MODEL 1
REMARK VINA RESULT:      -5.3      0.000      0.000
REMARK  Name = 2u_conf1
REMARK  31 active torsions:
REMARK  status: ('A' for Active; 'I' for Inactive)
REMARK    1  A    between atoms: C_2  and  C_3
REMARK    2  A    between atoms: C_2  and  O_8
REMARK    3  A    between atoms: O_8  and  C_9
REMARK    4  A    between atoms: C_9  and  C_10
REMARK    5  A    between atoms: C_9  and  C_29
REMARK    6  A    between atoms: C_10  and  C_11
REMARK    7  A    between atoms: C_11  and  C_12
REMARK    8  A    between atoms: C_12  and  C_13
REMARK    9  A    between atoms: C_12  and  C_14
REMARK   10  A    between atoms: C_14  and  O_15
REMARK   11  A    between atoms: C_14  and  C_17
REMARK   12  A    between atoms: O_15  and  C_16
REMARK   13  A    between atoms: C_17  and  C_18
REMARK   14  A    between atoms: C_18  and  O_19
REMARK   15  A    between atoms: C_18  and  C_26
REMARK   16  A    between atoms: O_19  and  C_20
REMARK   17  A    between atoms: C_20  and  C_21
REMARK   18  A    between atoms: C_21  and  C_22
REMARK   19  A    between atoms: C_22  and  C_23
REMARK   20  A    between atoms: C_23  and  N_24
REMARK   21  A    between atoms: C_26  and  C_27
REMARK   22  A    between atoms: C_26  and  C_28
REMARK   23  A    between atoms: C_29  and  C_30
REMARK   24  A    between atoms: C_29  and  C_31
REMARK   25  A    between atoms: C_31  and  O_32
REMARK   26  A    between atoms: C_31  and  C_34
REMARK   27  A    between atoms: O_32  and  C_33
REMARK   28  A    between atoms: C_34  and  C_35
REMARK   29  A    between atoms: C_34  and  C_36
REMARK   30  A    between atoms: C_37  and  N_38
REMARK   31  A    between atoms: N_38  and  C_39
REMARK                            x       y       z     vdW  Elec       q    Type
REMARK                         _______ _______ _______ _____ _____    ______ ____
ROOT
ATOM      1  C   UNL     1     151.468 167.300 189.816  0.00  0.00    -0.015 C 
ATOM      2  H   UNL     1     150.658 168.023 189.756  0.00  0.00    +0.030 HD
ATOM      3  H   UNL     1     152.373 167.893 189.985  0.00  0.00    +0.030 HD
ENDROOT
BRANCH   1   4
ATOM      4  C   UNL     1     151.188 166.417 191.045  0.00  0.00    -0.045 C 
ATOM      5  H   UNL     1     151.873 165.561 191.017  0.00  0.00    +0.027 HD
ATOM      6  H   UNL     1     150.183 165.991 190.945  0.00  0.00    +0.027 HD
BRANCH   4   7
ATOM      7  C   UNL     1     151.316 167.123 192.415  0.00  0.00    -0.017 C 
ATOM      8  H   UNL     1     151.803 168.092 192.255  0.00  0.00    +0.032 HD
BRANCH   7   9
ATOM      9  C   UNL     1     152.257 166.292 193.302  0.00  0.00    -0.060 C 
ATOM     10  H   UNL     1     153.303 166.522 193.071  0.00  0.00    +0.023 HD
ATOM     11  H   UNL     1     152.109 166.514 194.362  0.00  0.00    +0.023 HD
ATOM     12  H   UNL     1     152.111 165.217 193.151  0.00  0.00    +0.023 HD
ENDBRANCH   7   9
BRANCH   7  13
ATOM     13  C   UNL     1     149.938 167.379 193.085  0.00  0.00    +0.064 C 
ATOM     14  H   UNL     1     150.098 167.602 194.146  0.00  0.00    +0.060 HD
BRANCH  13  15
ATOM     15  C   UNL     1     149.022 166.144 192.982  0.00  0.00    +0.011 C 
ATOM     16  H   UNL     1     149.649 165.246 193.018  0.00  0.00    +0.033 HD
ATOM     17  H   UNL     1     148.485 166.157 192.028  0.00  0.00    +0.033 HD
BRANCH  15  18
ATOM     18  C   UNL     1     147.985 166.086 194.123  0.00  0.00    +0.108 C 
ATOM     19  H   UNL     1     147.819 167.107 194.488  0.00  0.00    +0.074 HD
BRANCH  18  20
ATOM     20  C   UNL     1     146.637 165.501 193.632  0.00  0.00    -0.009 C 
ATOM     21  H   UNL     1     146.856 164.642 192.984  0.00  0.00    +0.033 HD
BRANCH  20  22
ATOM     22  C   UNL     1     145.734 165.017 194.771  0.00  0.00    -0.059 C 
ATOM     23  H   UNL     1     146.211 164.224 195.358  0.00  0.00    +0.023 HD
ATOM     24  H   UNL     1     145.505 165.843 195.456  0.00  0.00    +0.023 HD
ATOM     25  H   UNL     1     144.781 164.637 194.392  0.00  0.00    +0.023 HD
ENDBRANCH  20  22
BRANCH  20  26
ATOM     26  C   UNL     1     145.871 166.511 192.774  0.00  0.00    -0.059 C 
ATOM     27  H   UNL     1     144.879 166.143 192.501  0.00  0.00    +0.023 HD
ATOM     28  H   UNL     1     145.751 167.462 193.306  0.00  0.00    +0.023 HD
ATOM     29  H   UNL     1     146.415 166.720 191.847  0.00  0.00    +0.023 HD
ENDBRANCH  20  26
ENDBRANCH  18  20
BRANCH  18  30
ATOM     30  O   UNL     1     148.555 165.251 195.158  0.00  0.00    -0.461 OA
BRANCH  30  31
ATOM     31  C   UNL     1     148.987 165.854 196.299  0.00  0.00    +0.307 C 
ATOM     32  O   UNL     1     148.313 166.571 197.024  0.00  0.00    -0.251 OA
BRANCH  31  33
ATOM     33  C   UNL     1     150.470 165.609 196.468  0.00  0.00    +0.046 C 
ATOM     34  H   UNL     1     151.040 166.435 196.029  0.00  0.00    +0.038 HD
ATOM     35  H   UNL     1     150.660 165.611 197.548  0.00  0.00    +0.038 HD
BRANCH  33  36
ATOM     36  C   UNL     1     150.930 164.277 195.873  0.00  0.00    -0.031 C 
ATOM     37  H   UNL     1     151.773 164.426 195.187  0.00  0.00    +0.028 HD
ATOM     38  H   UNL     1     150.109 163.865 195.273  0.00  0.00    +0.028 HD
BRANCH  36  39
ATOM     39  C   UNL     1     151.300 163.235 196.929  0.00  0.00    -0.006 C 
ATOM     40  H   UNL     1     150.787 163.473 197.868  0.00  0.00    +0.042 HD
ATOM     41  H   UNL     1     152.378 163.279 197.128  0.00  0.00    +0.042 HD
BRANCH  39  42
ATOM     42  N   UNL     1     150.950 161.885 196.518  0.00  0.00    -0.330 NA
ATOM     43  H   UNL     1     151.264 161.211 197.221  0.00  0.00    +0.118 HD
ATOM     44  H   UNL     1     151.441 161.650 195.656  0.00  0.00    +0.118 HD
ENDBRANCH  39  42
ENDBRANCH  36  39
ENDBRANCH  33  36
ENDBRANCH  31  33
ENDBRANCH  30  31
ENDBRANCH  18  30
ENDBRANCH  15  18
ENDBRANCH  13  15
BRANCH  13  45
ATOM     45  O   UNL     1     149.288 168.474 192.428  0.00  0.00    -0.379 OA
BRANCH  45  46
ATOM     46  C   UNL     1     150.098 169.634 192.313  0.00  0.00    +0.037 C 
ATOM     47  H   UNL     1     150.804 169.534 191.485  0.00  0.00    +0.052 HD
ATOM     48  H   UNL     1     149.481 170.526 192.175  0.00  0.00    +0.052 HD
ATOM     49  H   UNL     1     150.667 169.747 193.240  0.00  0.00    +0.052 HD
ENDBRANCH  45  46
ENDBRANCH  13  45
ENDBRANCH   7  13
ENDBRANCH   4   7
ENDBRANCH   1   4
BRANCH   1  50
ATOM     50  C   UNL     1     151.588 166.534 188.487  0.00  0.00    +0.108 C 
ATOM     51  H   UNL     1     151.610 167.312 187.711  0.00  0.00    +0.074 HD
BRANCH  50  52
ATOM     52  C   UNL     1     150.400 165.594 188.141  0.00  0.00    +0.020 C 
ATOM     53  H   UNL     1     150.276 165.007 189.063  0.00  0.00    +0.036 HD
BRANCH  52  54
ATOM     54  C   UNL     1     150.774 164.531 187.101  0.00  0.00    -0.057 C 
ATOM     55  H   UNL     1     151.178 164.986 186.192  0.00  0.00    +0.023 HD
ATOM     56  H   UNL     1     149.885 163.962 186.808  0.00  0.00    +0.023 HD
ATOM     57  H   UNL     1     151.508 163.814 187.475  0.00  0.00    +0.023 HD
ENDBRANCH  52  54
BRANCH  52  58
ATOM     58  C   UNL     1     148.991 166.240 187.943  0.00  0.00    +0.070 C 
ATOM     59  H   UNL     1     148.406 165.563 187.307  0.00  0.00    +0.061 HD
BRANCH  58  60
ATOM     60  C   UNL     1     148.074 166.584 189.162  0.00  0.00    +0.002 C 
ATOM     61  H   UNL     1     148.710 166.408 190.045  0.00  0.00    +0.037 HD
BRANCH  60  62
ATOM     62  C   UNL     1     146.906 165.614 189.356  0.00  0.00    -0.057 C 
ATOM     63  H   UNL     1     146.419 165.402 188.398  0.00  0.00    +0.024 HD
ATOM     64  H   UNL     1     146.139 166.036 190.013  0.00  0.00    +0.024 HD
ATOM     65  H   UNL     1     147.222 164.655 189.770  0.00  0.00    +0.024 HD
ENDBRANCH  60  62
BRANCH  60  66
ATOM     66  C   UNL     1     147.730 168.060 189.266  0.00  0.00    -0.065 C 
ATOM     67  C   UNL     1     146.668 168.609 189.875  0.00  0.00    -0.005 C 
ATOM     68  H   UNL     1     148.469 168.710 188.805  0.00  0.00    +0.059 HD
ATOM     69  H   UNL     1     145.938 167.968 190.366  0.00  0.00    +0.078 HD
BRANCH  67  70
ATOM     70  N   UNL     1     146.380 169.966 189.927  0.00  0.00    -0.284 N 
ATOM     71  C   UNL     1     147.368 170.887 190.262  0.00  0.00    +0.206 C 
ATOM     72  O   UNL     1     147.236 172.101 190.352  0.00  0.00    -0.279 OA
ATOM     73  H   UNL     1     148.347 170.416 190.455  0.00  0.00    +0.126 HD
BRANCH  70  74
ATOM     74  C   UNL     1     145.042 170.473 189.656  0.00  0.00    +0.007 C 
ATOM     75  H   UNL     1     144.311 169.664 189.562  0.00  0.00    +0.043 HD
ATOM     76  H   UNL     1     145.051 171.034 188.716  0.00  0.00    +0.043 HD
ATOM     77  H   UNL     1     144.726 171.121 190.481  0.00  0.00    +0.043 HD
ENDBRANCH  70  74
ENDBRANCH  67  70
ENDBRANCH  60  66
ENDBRANCH  58  60
BRANCH  58  78
ATOM     78  O   UNL     1     149.129 167.483 187.208  0.00  0.00    -0.379 OA
BRANCH  78  79
ATOM     79  C   UNL     1     148.738 167.398 185.841  0.00  0.00    +0.037 C 
ATOM     80  H   UNL     1     147.706 167.729 185.703  0.00  0.00    +0.052 HD
ATOM     81  H   UNL     1     148.801 166.350 185.535  0.00  0.00    +0.052 HD
ATOM     82  H   UNL     1     149.412 167.982 185.205  0.00  0.00    +0.052 HD
ENDBRANCH  78  79
ENDBRANCH  58  78
ENDBRANCH  52  58
ENDBRANCH  50  52
BRANCH  50  83
ATOM     83  O   UNL     1     152.837 165.814 188.458  0.00  0.00    -0.459 OA
BRANCH  83  85
ATOM     84  O   UNL     1     154.300 167.371 187.621  0.00  0.00    -0.248 OA
ATOM     85  C   UNL     1     153.975 166.572 188.489  0.00  0.00    +0.337 C 
BRANCH  85  86
ATOM     86  C   UNL     1     154.772 166.261 189.762  0.00  0.00    +0.155 C 
ATOM     87  O   UNL     1     156.190 166.313 189.539  0.00  0.00    -0.365 OA
ATOM     88  C   UNL     1     156.720 164.982 189.580  0.00  0.00    +0.049 C 
ATOM     89  C   UNL     1     155.540 164.037 189.576  0.00  0.00    -0.027 C 
ATOM     90  C   UNL     1     154.475 164.857 190.263  0.00  0.00    -0.014 C 
ATOM     91  H   UNL     1     154.522 167.025 190.506  0.00  0.00    +0.071 HD
ATOM     92  H   UNL     1     157.390 164.824 188.731  0.00  0.00    +0.056 HD
ATOM     93  H   UNL     1     157.300 164.883 190.505  0.00  0.00    +0.056 HD
ATOM     94  H   UNL     1     155.750 163.087 190.073  0.00  0.00    +0.029 HD
ATOM     95  H   UNL     1     155.237 163.821 188.545  0.00  0.00    +0.029 HD
ATOM     96  H   UNL     1     154.626 164.813 191.348  0.00  0.00    +0.030 HD
ATOM     97  H   UNL     1     153.466 164.497 190.046  0.00  0.00    +0.030 HD
ENDBRANCH  85  86
ENDBRANCH  83  85
ENDBRANCH  50  83
ENDBRANCH   1  50
TORSDOF 31
ENDMDL
MODEL 2
REMARK VINA RESULT:      -5.2      3.050      6.635
REMARK  Name = 2u_conf1
REMARK  31 active torsions:
REMARK  status: ('A' for Active; 'I' for Inactive)
REMARK    1  A    between atoms: C_2  and  C_3
REMARK    2  A    between atoms: C_2  and  O_8
REMARK    3  A    between atoms: O_8  and  C_9
REMARK    4  A    between atoms: C_9  and  C_10
REMARK    5  A    between atoms: C_9  and  C_29
REMARK    6  A    between atoms: C_10  and  C_11
REMARK    7  A    between atoms: C_11  and  C_12
REMARK    8  A    between atoms: C_12  and  C_13
REMARK    9  A    between atoms: C_12  and  C_14
REMARK   10  A    between atoms: C_14  and  O_15
REMARK   11  A    between atoms: C_14  and  C_17
REMARK   12  A    between atoms: O_15  and  C_16
REMARK   13  A    between atoms: C_17  and  C_18
REMARK   14  A    between atoms: C_18  and  O_19
REMARK   15  A    between atoms: C_18  and  C_26
REMARK   16  A    between atoms: O_19  and  C_20
REMARK   17  A    between atoms: C_20  and  C_21
REMARK   18  A    between atoms: C_21  and  C_22
REMARK   19  A    between atoms: C_22  and  C_23
REMARK   20  A    between atoms: C_23  and  N_24
REMARK   21  A    between atoms: C_26  and  C_27
REMARK   22  A    between atoms: C_26  and  C_28
REMARK   23  A    between atoms: C_29  and  C_30
REMARK   24  A    between atoms: C_29  and  C_31
REMARK   25  A    between atoms: C_31  and  O_32
REMARK   26  A    between atoms: C_31  and  C_34
REMARK   27  A    between atoms: O_32  and  C_33
REMARK   28  A    between atoms: C_34  and  C_35
REMARK   29  A    between atoms: C_34  and  C_36
REMARK   30  A    between atoms: C_37  and  N_38
REMARK   31  A    between atoms: N_38  and  C_39
REMARK                            x       y       z     vdW  Elec       q    Type
REMARK                         _______ _______ _______ _____ _____    ______ ____
ROOT
ATOM      1  C   UNL     1     148.008 168.692 191.722  0.00  0.00    -0.015 C 
ATOM      2  H   UNL     1     147.778 167.646 191.913  0.00  0.00    +0.030 HD
ATOM      3  H   UNL     1     147.936 169.186 192.697  0.00  0.00    +0.030 HD
ENDROOT
BRANCH   1   4
ATOM      4  C   UNL     1     149.461 168.745 191.219  0.00  0.00    -0.045 C 
ATOM      5  H   UNL     1     149.644 169.742 190.798  0.00  0.00    +0.027 HD
ATOM      6  H   UNL     1     149.563 168.050 190.377  0.00  0.00    +0.027 HD
BRANCH   4   7
ATOM      7  C   UNL     1     150.545 168.437 192.277  0.00  0.00    -0.017 C 
ATOM      8  H   UNL     1     150.171 168.766 193.254  0.00  0.00    +0.032 HD
BRANCH   7   9
ATOM      9  C   UNL     1     151.785 169.290 191.963  0.00  0.00    -0.060 C 
ATOM     10  H   UNL     1     152.595 168.660 191.576  0.00  0.00    +0.023 HD
ATOM     11  H   UNL     1     151.572 170.041 191.198  0.00  0.00    +0.023 HD
ATOM     12  H   UNL     1     152.160 169.803 192.855  0.00  0.00    +0.023 HD
ENDBRANCH   7   9
BRANCH   7  13
ATOM     13  C   UNL     1     150.874 166.921 192.372  0.00  0.00    +0.064 C 
ATOM     14  H   UNL     1     149.981 166.349 192.098  0.00  0.00    +0.060 HD
BRANCH  13  15
ATOM     15  C   UNL     1     151.286 166.522 193.802  0.00  0.00    +0.011 C 
ATOM     16  H   UNL     1     151.459 167.437 194.379  0.00  0.00    +0.033 HD
ATOM     17  H   UNL     1     152.217 165.946 193.773  0.00  0.00    +0.033 HD
BRANCH  15  18
ATOM     18  C   UNL     1     150.209 165.672 194.507  0.00  0.00    +0.108 C 
ATOM     19  H   UNL     1     150.245 164.658 194.091  0.00  0.00    +0.074 HD
BRANCH  18  20
ATOM     20  C   UNL     1     150.457 165.598 196.035  0.00  0.00    -0.009 C 
ATOM     21  H   UNL     1     151.360 166.182 196.260  0.00  0.00    +0.033 HD
BRANCH  20  22
ATOM     22  C   UNL     1     149.304 166.168 196.866  0.00  0.00    -0.059 C 
ATOM     23  H   UNL     1     149.376 165.867 197.918  0.00  0.00    +0.023 HD
ATOM     24  H   UNL     1     149.314 167.264 196.834  0.00  0.00    +0.023 HD
ATOM     25  H   UNL     1     148.334 165.841 196.482  0.00  0.00    +0.023 HD
ENDBRANCH  20  22
BRANCH  20  26
ATOM     26  C   UNL     1     150.743 164.163 196.483  0.00  0.00    -0.059 C 
ATOM     27  H   UNL     1     150.720 164.065 197.572  0.00  0.00    +0.023 HD
ATOM     28  H   UNL     1     150.007 163.469 196.060  0.00  0.00    +0.023 HD
ATOM     29  H   UNL     1     151.732 163.842 196.142  0.00  0.00    +0.023 HD
ENDBRANCH  20  26
ENDBRANCH  18  20
BRANCH  18  30
ATOM     30  O   UNL     1     148.937 166.303 194.228  0.00  0.00    -0.461 OA
BRANCH  30  31
ATOM     31  C   UNL     1     147.856 165.500 194.031  0.00  0.00    +0.307 C 
ATOM     32  O   UNL     1     147.894 164.315 193.733  0.00  0.00    -0.251 OA
BRANCH  31  33
ATOM     33  C   UNL     1     146.593 166.329 194.107  0.00  0.00    +0.046 C 
ATOM     34  H   UNL     1     146.705 167.117 194.860  0.00  0.00    +0.038 HD
ATOM     35  H   UNL     1     146.485 166.815 193.130  0.00  0.00    +0.038 HD
BRANCH  33  36
ATOM     36  C   UNL     1     145.345 165.494 194.401  0.00  0.00    -0.031 C 
ATOM     37  H   UNL     1     145.100 165.521 195.470  0.00  0.00    +0.028 HD
ATOM     38  H   UNL     1     145.564 164.447 194.156  0.00  0.00    +0.028 HD
BRANCH  36  39
ATOM     39  C   UNL     1     144.126 165.916 193.580  0.00  0.00    -0.006 C 
ATOM     40  H   UNL     1     143.212 165.642 194.121  0.00  0.00    +0.042 HD
ATOM     41  H   UNL     1     144.116 165.370 192.628  0.00  0.00    +0.042 HD
BRANCH  39  42
ATOM     42  N   UNL     1     144.113 167.343 193.305  0.00  0.00    -0.330 NA
ATOM     43  H   UNL     1     144.576 167.851 194.063  0.00  0.00    +0.118 HD
ATOM     44  H   UNL     1     143.151 167.681 193.281  0.00  0.00    +0.118 HD
ENDBRANCH  39  42
ENDBRANCH  36  39
ENDBRANCH  33  36
ENDBRANCH  31  33
ENDBRANCH  30  31
ENDBRANCH  18  30
ENDBRANCH  15  18
ENDBRANCH  13  15
BRANCH  13  45
ATOM     45  O   UNL     1     151.962 166.617 191.490  0.00  0.00    -0.379 OA
BRANCH  45  46
ATOM     46  C   UNL     1     151.840 165.360 190.844  0.00  0.00    +0.037 C 
ATOM     47  H   UNL     1     150.951 165.334 190.209  0.00  0.00    +0.052 HD
ATOM     48  H   UNL     1     152.731 165.141 190.250  0.00  0.00    +0.052 HD
ATOM     49  H   UNL     1     151.738 164.588 191.612  0.00  0.00    +0.052 HD
ENDBRANCH  45  46
ENDBRANCH  13  45
ENDBRANCH   7  13
ENDBRANCH   4   7
ENDBRANCH   1   4
BRANCH   1  50
ATOM     50  C   UNL     1     146.970 169.292 190.758  0.00  0.00    +0.108 C 
ATOM     51  H   UNL     1     146.059 169.417 191.362  0.00  0.00    +0.074 HD
BRANCH  50  52
ATOM     52  C   UNL     1     146.581 168.399 189.547  0.00  0.00    +0.020 C 
ATOM     53  H   UNL     1     147.315 167.581 189.601  0.00  0.00    +0.036 HD
BRANCH  52  54
ATOM     54  C   UNL     1     146.899 169.062 188.202  0.00  0.00    -0.057 C 
ATOM     55  H   UNL     1     147.339 170.054 188.339  0.00  0.00    +0.023 HD
ATOM     56  H   UNL     1     145.978 169.197 187.622  0.00  0.00    +0.023 HD
ATOM     57  H   UNL     1     147.583 168.471 187.590  0.00  0.00    +0.023 HD
ENDBRANCH  52  54
BRANCH  52  58
ATOM     58  C   UNL     1     145.212 167.647 189.603  0.00  0.00    +0.070 C 
ATOM     59  H   UNL     1     144.808 167.626 188.582  0.00  0.00    +0.061 HD
BRANCH  58  60
ATOM     60  C   UNL     1     145.110 166.180 190.136  0.00  0.00    +0.002 C 
ATOM     61  H   UNL     1     144.794 166.289 191.186  0.00  0.00    +0.037 HD
BRANCH  60  62
ATOM     62  C   UNL     1     146.456 165.458 190.235  0.00  0.00    -0.057 C 
ATOM     63  H   UNL     1     146.982 165.750 191.150  0.00  0.00    +0.024 HD
ATOM     64  H   UNL     1     147.112 165.716 189.398  0.00  0.00    +0.024 HD
ATOM     65  H   UNL     1     146.347 164.373 190.263  0.00  0.00    +0.024 HD
ENDBRANCH  60  62
BRANCH  60  66
ATOM     66  C   UNL     1     143.978 165.384 189.509  0.00  0.00    -0.065 C 
ATOM     67  C   UNL     1     143.655 164.103 189.744  0.00  0.00    -0.005 C 
ATOM     68  H   UNL     1     143.371 165.964 188.819  0.00  0.00    +0.059 HD
ATOM     69  H   UNL     1     144.238 163.522 190.456  0.00  0.00    +0.078 HD
BRANCH  67  70
ATOM     70  N   UNL     1     142.623 163.406 189.131  0.00  0.00    -0.284 N 
ATOM     71  C   UNL     1     141.694 164.071 188.335  0.00  0.00    +0.206 C 
ATOM     72  O   UNL     1     140.739 163.573 187.754  0.00  0.00    -0.279 OA
ATOM     73  H   UNL     1     141.892 165.154 188.259  0.00  0.00    +0.126 HD
BRANCH  70  74
ATOM     74  C   UNL     1     142.460 161.970 189.309  0.00  0.00    +0.007 C 
ATOM     75  H   UNL     1     143.059 161.400 188.592  0.00  0.00    +0.043 HD
ATOM     76  H   UNL     1     141.408 161.704 189.160  0.00  0.00    +0.043 HD
ATOM     77  H   UNL     1     142.782 161.692 190.319  0.00  0.00    +0.043 HD
ENDBRANCH  70  74
ENDBRANCH  67  70
ENDBRANCH  60  66
ENDBRANCH  58  60
BRANCH  58  78
ATOM     78  O   UNL     1     144.275 168.410 190.404  0.00  0.00    -0.379 OA
BRANCH  78  79
ATOM     79  C   UNL     1     143.391 169.230 189.645  0.00  0.00    +0.037 C 
ATOM     80  H   UNL     1     143.843 169.528 188.696  0.00  0.00    +0.052 HD
ATOM     81  H   UNL     1     143.189 170.136 190.222  0.00  0.00    +0.052 HD
ATOM     82  H   UNL     1     142.440 168.718 189.467  0.00  0.00    +0.052 HD
ENDBRANCH  78  79
ENDBRANCH  58  78
ENDBRANCH  52  58
ENDBRANCH  50  52
BRANCH  50  83
ATOM     83  O   UNL     1     147.416 170.589 190.316  0.00  0.00    -0.459 OA
BRANCH  83  85
ATOM     84  O   UNL     1     145.598 171.755 191.090  0.00  0.00    -0.248 OA
ATOM     85  C   UNL     1     146.801 171.670 190.887  0.00  0.00    +0.337 C 
BRANCH  85  86
ATOM     86  C   UNL     1     147.843 172.744 191.222  0.00  0.00    +0.155 C 
ATOM     87  O   UNL     1     149.172 172.205 191.293  0.00  0.00    -0.365 OA
ATOM     88  C   UNL     1     149.599 172.190 192.661  0.00  0.00    +0.049 C 
ATOM     89  C   UNL     1     148.384 172.499 193.506  0.00  0.00    -0.027 C 
ATOM     90  C   UNL     1     147.567 173.366 192.581  0.00  0.00    -0.014 C 
ATOM     91  H   UNL     1     147.826 173.487 190.417  0.00  0.00    +0.071 HD
ATOM     92  H   UNL     1     150.044 171.220 192.900  0.00  0.00    +0.056 HD
ATOM     93  H   UNL     1     150.367 172.964 192.779  0.00  0.00    +0.056 HD
ATOM     94  H   UNL     1     148.633 172.981 194.455  0.00  0.00    +0.029 HD
ATOM     95  H   UNL     1     147.839 171.574 193.728  0.00  0.00    +0.029 HD
ATOM     96  H   UNL     1     147.959 174.391 192.603  0.00  0.00    +0.030 HD
ATOM     97  H   UNL     1     146.512 173.401 192.863  0.00  0.00    +0.030 HD
ENDBRANCH  85  86
ENDBRANCH  83  85
ENDBRANCH  50  83
ENDBRANCH   1  50
TORSDOF 31
ENDMDL
MODEL 3
REMARK VINA RESULT:      -5.2      2.672      7.143
REMARK  Name = 2u_conf1
REMARK  31 active torsions:
REMARK  status: ('A' for Active; 'I' for Inactive)
REMARK    1  A    between atoms: C_2  and  C_3
REMARK    2  A    between atoms: C_2  and  O_8
REMARK    3  A    between atoms: O_8  and  C_9
REMARK    4  A    between atoms: C_9  and  C_10
REMARK    5  A    between atoms: C_9  and  C_29
REMARK    6  A    between atoms: C_10  and  C_11
REMARK    7  A    between atoms: C_11  and  C_12
REMARK    8  A    between atoms: C_12  and  C_13
REMARK    9  A    between atoms: C_12  and  C_14
REMARK   10  A    between atoms: C_14  and  O_15
REMARK   11  A    between atoms: C_14  and  C_17
REMARK   12  A    between atoms: O_15  and  C_16
REMARK   13  A    between atoms: C_17  and  C_18
REMARK   14  A    between atoms: C_18  and  O_19
REMARK   15  A    between atoms: C_18  and  C_26
REMARK   16  A    between atoms: O_19  and  C_20
REMARK   17  A    between atoms: C_20  and  C_21
REMARK   18  A    between atoms: C_21  and  C_22
REMARK   19  A    between atoms: C_22  and  C_23
REMARK   20  A    between atoms: C_23  and  N_24
REMARK   21  A    between atoms: C_26  and  C_27
REMARK   22  A    between atoms: C_26  and  C_28
REMARK   23  A    between atoms: C_29  and  C_30
REMARK   24  A    between atoms: C_29  and  C_31
REMARK   25  A    between atoms: C_31  and  O_32
REMARK   26  A    between atoms: C_31  and  C_34
REMARK   27  A    between atoms: O_32  and  C_33
REMARK   28  A    between atoms: C_34  and  C_35
REMARK   29  A    between atoms: C_34  and  C_36
REMARK   30  A    between atoms: C_37  and  N_38
REMARK   31  A    between atoms: N_38  and  C_39
REMARK                            x       y       z     vdW  Elec       q    Type
REMARK                         _______ _______ _______ _____ _____    ______ ____
ROOT
ATOM      1  C   UNL     1     148.493 169.088 192.134  0.00  0.00    -0.015 C 
ATOM      2  H   UNL     1     148.063 168.651 193.032  0.00  0.00    +0.030 HD
ATOM      3  H   UNL     1     148.970 170.017 192.465  0.00  0.00    +0.030 HD
ENDROOT
BRANCH   1   4
ATOM      4  C   UNL     1     149.564 168.106 191.628  0.00  0.00    -0.045 C 
ATOM      5  H   UNL     1     149.640 168.210 190.539  0.00  0.00    +0.027 HD
ATOM      6  H   UNL     1     149.207 167.083 191.801  0.00  0.00    +0.027 HD
BRANCH   4   7
ATOM      7  C   UNL     1     150.970 168.274 192.250  0.00  0.00    -0.017 C 
ATOM      8  H   UNL     1     150.853 168.368 193.337  0.00  0.00    +0.032 HD
BRANCH   7   9
ATOM      9  C   UNL     1     151.566 169.600 191.749  0.00  0.00    -0.060 C 
ATOM     10  H   UNL     1     151.586 169.620 190.653  0.00  0.00    +0.023 HD
ATOM     11  H   UNL     1     150.968 170.456 192.072  0.00  0.00    +0.023 HD
ATOM     12  H   UNL     1     152.592 169.741 192.104  0.00  0.00    +0.023 HD
ENDBRANCH   7   9
BRANCH   7  13
ATOM     13  C   UNL     1     151.897 167.060 191.968  0.00  0.00    +0.064 C 
ATOM     14  H   UNL     1     152.694 167.376 191.286  0.00  0.00    +0.060 HD
BRANCH  13  15
ATOM     15  C   UNL     1     151.124 165.902 191.307  0.00  0.00    +0.011 C 
ATOM     16  H   UNL     1     150.152 166.283 190.974  0.00  0.00    +0.033 HD
ATOM     17  H   UNL     1     150.955 165.103 192.037  0.00  0.00    +0.033 HD
BRANCH  15  18
ATOM     18  C   UNL     1     151.879 165.307 190.100  0.00  0.00    +0.108 C 
ATOM     19  H   UNL     1     151.894 164.216 190.209  0.00  0.00    +0.074 HD
BRANCH  18  20
ATOM     20  C   UNL     1     151.183 165.670 188.764  0.00  0.00    -0.009 C 
ATOM     21  H   UNL     1     151.420 164.884 188.033  0.00  0.00    +0.033 HD
BRANCH  20  22
ATOM     22  C   UNL     1     149.658 165.764 188.879  0.00  0.00    -0.059 C 
ATOM     23  H   UNL     1     149.272 166.675 188.407  0.00  0.00    +0.023 HD
ATOM     24  H   UNL     1     149.183 164.908 188.384  0.00  0.00    +0.023 HD
ATOM     25  H   UNL     1     149.335 165.756 189.923  0.00  0.00    +0.023 HD
ENDBRANCH  20  22
BRANCH  20  26
ATOM     26  C   UNL     1     151.728 166.979 188.188  0.00  0.00    -0.059 C 
ATOM     27  H   UNL     1     152.603 166.811 187.554  0.00  0.00    +0.023 HD
ATOM     28  H   UNL     1     150.964 167.491 187.592  0.00  0.00    +0.023 HD
ATOM     29  H   UNL     1     152.027 167.658 188.993  0.00  0.00    +0.023 HD
ENDBRANCH  20  26
ENDBRANCH  18  20
BRANCH  18  30
ATOM     30  O   UNL     1     153.218 165.853 190.140  0.00  0.00    -0.461 OA
BRANCH  30  31
ATOM     31  C   UNL     1     154.261 164.981 190.191  0.00  0.00    +0.307 C 
ATOM     32  O   UNL     1     154.169 163.764 190.271  0.00  0.00    -0.251 OA
BRANCH  31  33
ATOM     33  C   UNL     1     155.560 165.753 190.266  0.00  0.00    +0.046 C 
ATOM     34  H   UNL     1     155.526 166.612 189.586  0.00  0.00    +0.038 HD
ATOM     35  H   UNL     1     155.627 166.142 191.289  0.00  0.00    +0.038 HD
BRANCH  33  36
ATOM     36  C   UNL     1     156.787 164.892 189.966  0.00  0.00    -0.031 C 
ATOM     37  H   UNL     1     156.694 163.904 190.433  0.00  0.00    +0.028 HD
ATOM     38  H   UNL     1     157.665 165.371 190.419  0.00  0.00    +0.028 HD
BRANCH  36  39
ATOM     39  C   UNL     1     157.067 164.733 188.471  0.00  0.00    -0.006 C 
ATOM     40  H   UNL     1     158.036 165.187 188.233  0.00  0.00    +0.042 HD
ATOM     41  H   UNL     1     156.305 165.271 187.894  0.00  0.00    +0.042 HD
BRANCH  39  42
ATOM     42  N   UNL     1     157.074 163.339 188.057  0.00  0.00    -0.330 NA
ATOM     43  H   UNL     1     157.466 163.254 187.116  0.00  0.00    +0.118 HD
ATOM     44  H   UNL     1     156.117 162.991 188.002  0.00  0.00    +0.118 HD
ENDBRANCH  39  42
ENDBRANCH  36  39
ENDBRANCH  33  36
ENDBRANCH  31  33
ENDBRANCH  30  31
ENDBRANCH  18  30
ENDBRANCH  15  18
ENDBRANCH  13  15
BRANCH  13  45
ATOM     45  O   UNL     1     152.444 166.585 193.204  0.00  0.00    -0.379 OA
BRANCH  45  46
ATOM     46  C   UNL     1     153.756 167.061 193.469  0.00  0.00    +0.037 C 
ATOM     47  H   UNL     1     153.973 167.951 192.874  0.00  0.00    +0.052 HD
ATOM     48  H   UNL     1     153.881 167.281 194.533  0.00  0.00    +0.052 HD
ATOM     49  H   UNL     1     154.466 166.277 193.192  0.00  0.00    +0.052 HD
ENDBRANCH  45  46
ENDBRANCH  13  45
ENDBRANCH   7  13
ENDBRANCH   4   7
ENDBRANCH   1   4
BRANCH   1  50
ATOM     50  C   UNL     1     147.381 169.407 191.120  0.00  0.00    +0.108 C 
ATOM     51  H   UNL     1     146.456 169.447 191.714  0.00  0.00    +0.074 HD
BRANCH  50  52
ATOM     52  C   UNL     1     147.154 168.341 190.013  0.00  0.00    +0.020 C 
ATOM     53  H   UNL     1     147.973 167.628 190.188  0.00  0.00    +0.036 HD
BRANCH  52  54
ATOM     54  C   UNL     1     147.456 168.878 188.609  0.00  0.00    -0.057 C 
ATOM     55  H   UNL     1     147.905 169.875 188.649  0.00  0.00    +0.023 HD
ATOM     56  H   UNL     1     146.528 168.967 188.032  0.00  0.00    +0.023 HD
ATOM     57  H   UNL     1     148.127 168.229 188.043  0.00  0.00    +0.023 HD
ENDBRANCH  52  54
BRANCH  52  58
ATOM     58  C   UNL     1     145.878 167.444 190.113  0.00  0.00    +0.070 C 
ATOM     59  H   UNL     1     145.394 167.450 189.127  0.00  0.00    +0.061 HD
BRANCH  58  60
ATOM     60  C   UNL     1     145.971 165.941 190.536  0.00  0.00    +0.002 C 
ATOM     61  H   UNL     1     146.516 165.454 189.712  0.00  0.00    +0.037 HD
BRANCH  60  62
ATOM     62  C   UNL     1     144.623 165.216 190.559  0.00  0.00    -0.057 C 
ATOM     63  H   UNL     1     144.054 165.490 191.454  0.00  0.00    +0.024 HD
ATOM     64  H   UNL     1     144.753 164.129 190.588  0.00  0.00    +0.024 HD
ATOM     65  H   UNL     1     144.000 165.464 189.698  0.00  0.00    +0.024 HD
ENDBRANCH  60  62
BRANCH  60  66
ATOM     66  C   UNL     1     146.868 165.704 191.739  0.00  0.00    -0.065 C 
ATOM     67  C   UNL     1     146.520 165.735 193.035  0.00  0.00    -0.005 C 
ATOM     68  H   UNL     1     147.894 165.459 191.473  0.00  0.00    +0.059 HD
ATOM     69  H   UNL     1     145.490 165.950 193.310  0.00  0.00    +0.078 HD
BRANCH  67  70
ATOM     70  N   UNL     1     147.380 165.534 194.106  0.00  0.00    -0.284 N 
ATOM     71  C   UNL     1     148.720 165.222 193.890  0.00  0.00    +0.206 C 
ATOM     72  O   UNL     1     149.569 165.012 194.746  0.00  0.00    -0.279 OA
ATOM     73  H   UNL     1     148.981 165.173 192.819  0.00  0.00    +0.126 HD
BRANCH  70  74
ATOM     74  C   UNL     1     146.917 165.620 195.483  0.00  0.00    +0.007 C 
ATOM     75  H   UNL     1     147.432 166.410 196.038  0.00  0.00    +0.043 HD
ATOM     76  H   UNL     1     147.109 164.669 195.990  0.00  0.00    +0.043 HD
ATOM     77  H   UNL     1     145.844 165.844 195.491  0.00  0.00    +0.043 HD
ENDBRANCH  70  74
ENDBRANCH  67  70
ENDBRANCH  60  66
ENDBRANCH  58  60
BRANCH  58  78
ATOM     78  O   UNL     1     144.938 168.043 191.040  0.00  0.00    -0.379 OA
BRANCH  78  79
ATOM     79  C   UNL     1     143.862 168.734 190.413  0.00  0.00    +0.037 C 
ATOM     80  H   UNL     1     143.113 169.049 191.144  0.00  0.00    +0.052 HD
ATOM     81  H   UNL     1     143.382 168.048 189.711  0.00  0.00    +0.052 HD
ATOM     82  H   UNL     1     144.229 169.600 189.850  0.00  0.00    +0.052 HD
ENDBRANCH  78  79
ENDBRANCH  58  78
ENDBRANCH  52  58
ENDBRANCH  50  52
BRANCH  50  83
ATOM     83  O   UNL     1     147.617 170.706 190.541  0.00  0.00    -0.459 OA
BRANCH  83  85
ATOM     84  O   UNL     1     145.626 171.706 191.090  0.00  0.00    -0.248 OA
ATOM     85  C   UNL     1     146.847 171.732 191.017  0.00  0.00    +0.337 C 
BRANCH  85  86
ATOM     86  C   UNL     1     147.743 172.905 191.432  0.00  0.00    +0.155 C 
ATOM     87  O   UNL     1     149.132 172.541 191.460  0.00  0.00    -0.365 OA
ATOM     88  C   UNL     1     149.573 172.478 192.821  0.00  0.00    +0.049 C 
ATOM     89  C   UNL     1     148.338 172.559 193.690  0.00  0.00    -0.027 C 
ATOM     90  C   UNL     1     147.404 173.380 192.835  0.00  0.00    -0.014 C 
ATOM     91  H   UNL     1     147.619 173.698 190.688  0.00  0.00    +0.071 HD
ATOM     92  H   UNL     1     150.143 171.560 192.984  0.00  0.00    +0.056 HD
ATOM     93  H   UNL     1     150.234 173.335 192.998  0.00  0.00    +0.056 HD
ATOM     94  H   UNL     1     148.533 172.995 194.672  0.00  0.00    +0.029 HD
ATOM     95  H   UNL     1     147.921 171.556 193.841  0.00  0.00    +0.029 HD
ATOM     96  H   UNL     1     147.658 174.442 192.937  0.00  0.00    +0.030 HD
ATOM     97  H   UNL     1     146.356 173.254 193.121  0.00  0.00    +0.030 HD
ENDBRANCH  85  86
ENDBRANCH  83  85
ENDBRANCH  50  83
ENDBRANCH   1  50
TORSDOF 31
ENDMDL
MODEL 4
REMARK VINA RESULT:      -5.1      2.601      7.619
REMARK  Name = 2u_conf1
REMARK  31 active torsions:
REMARK  status: ('A' for Active; 'I' for Inactive)
REMARK    1  A    between atoms: C_2  and  C_3
REMARK    2  A    between atoms: C_2  and  O_8
REMARK    3  A    between atoms: O_8  and  C_9
REMARK    4  A    between atoms: C_9  and  C_10
REMARK    5  A    between atoms: C_9  and  C_29
REMARK    6  A    between atoms: C_10  and  C_11
REMARK    7  A    between atoms: C_11  and  C_12
REMARK    8  A    between atoms: C_12  and  C_13
REMARK    9  A    between atoms: C_12  and  C_14
REMARK   10  A    between atoms: C_14  and  O_15
REMARK   11  A    between atoms: C_14  and  C_17
REMARK   12  A    between atoms: O_15  and  C_16
REMARK   13  A    between atoms: C_17  and  C_18
REMARK   14  A    between atoms: C_18  and  O_19
REMARK   15  A    between atoms: C_18  and  C_26
REMARK   16  A    between atoms: O_19  and  C_20
REMARK   17  A    between atoms: C_20  and  C_21
REMARK   18  A    between atoms: C_21  and  C_22
REMARK   19  A    between atoms: C_22  and  C_23
REMARK   20  A    between atoms: C_23  and  N_24
REMARK   21  A    between atoms: C_26  and  C_27
REMARK   22  A    between atoms: C_26  and  C_28
REMARK   23  A    between atoms: C_29  and  C_30
REMARK   24  A    between atoms: C_29  and  C_31
REMARK   25  A    between atoms: C_31  and  O_32
REMARK   26  A    between atoms: C_31  and  C_34
REMARK   27  A    between atoms: O_32  and  C_33
REMARK   28  A    between atoms: C_34  and  C_35
REMARK   29  A    between atoms: C_34  and  C_36
REMARK   30  A    between atoms: C_37  and  N_38
REMARK   31  A    between atoms: N_38  and  C_39
REMARK                            x       y       z     vdW  Elec       q    Type
REMARK                         _______ _______ _______ _____ _____    ______ ____
ROOT
ATOM      1  C   UNL     1     147.628 165.916 192.028  0.00  0.00    -0.015 C 
ATOM      2  H   UNL     1     148.649 165.720 191.708  0.00  0.00    +0.030 HD
ATOM      3  H   UNL     1     147.171 164.929 192.155  0.00  0.00    +0.030 HD
ENDROOT
BRANCH   1   4
ATOM      4  C   UNL     1     147.716 166.627 193.390  0.00  0.00    -0.045 C 
ATOM      5  H   UNL     1     146.712 166.979 193.660  0.00  0.00    +0.027 HD
ATOM      6  H   UNL     1     148.321 167.534 193.270  0.00  0.00    +0.027 HD
BRANCH   4   7
ATOM      7  C   UNL     1     148.282 165.778 194.551  0.00  0.00    -0.017 C 
ATOM      8  H   UNL     1     148.278 164.727 194.238  0.00  0.00    +0.032 HD
BRANCH   7   9
ATOM      9  C   UNL     1     147.323 165.891 195.747  0.00  0.00    -0.060 C 
ATOM     10  H   UNL     1     147.869 166.196 196.648  0.00  0.00    +0.023 HD
ATOM     11  H   UNL     1     146.551 166.645 195.573  0.00  0.00    +0.023 HD
ATOM     12  H   UNL     1     146.831 164.937 195.963  0.00  0.00    +0.023 HD
ENDBRANCH   7   9
BRANCH   7  13
ATOM     13  C   UNL     1     149.741 166.166 194.919  0.00  0.00    +0.064 C 
ATOM     14  H   UNL     1     149.830 167.258 194.902  0.00  0.00    +0.060 HD
BRANCH  13  15
ATOM     15  C   UNL     1     150.751 165.581 193.912  0.00  0.00    +0.011 C 
ATOM     16  H   UNL     1     150.192 165.062 193.125  0.00  0.00    +0.033 HD
ATOM     17  H   UNL     1     151.401 164.858 194.415  0.00  0.00    +0.033 HD
BRANCH  15  18
ATOM     18  C   UNL     1     151.637 166.670 193.272  0.00  0.00    +0.108 C 
ATOM     19  H   UNL     1     151.590 167.565 193.903  0.00  0.00    +0.074 HD
BRANCH  18  20
ATOM     20  C   UNL     1     153.112 166.207 193.165  0.00  0.00    -0.009 C 
ATOM     21  H   UNL     1     153.269 165.402 193.897  0.00  0.00    +0.033 HD
BRANCH  20  22
ATOM     22  C   UNL     1     153.481 165.666 191.780  0.00  0.00    -0.059 C 
ATOM     23  H   UNL     1     153.253 164.598 191.688  0.00  0.00    +0.023 HD
ATOM     24  H   UNL     1     152.917 166.193 191.001  0.00  0.00    +0.023 HD
ATOM     25  H   UNL     1     154.544 165.809 191.565  0.00  0.00    +0.023 HD
ENDBRANCH  20  22
BRANCH  20  26
ATOM     26  C   UNL     1     154.078 167.333 193.542  0.00  0.00    -0.059 C 
ATOM     27  H   UNL     1     153.549 168.213 193.917  0.00  0.00    +0.023 HD
ATOM     28  H   UNL     1     154.783 167.000 194.313  0.00  0.00    +0.023 HD
ATOM     29  H   UNL     1     154.665 167.645 192.672  0.00  0.00    +0.023 HD
ENDBRANCH  20  26
ENDBRANCH  18  20
BRANCH  18  30
ATOM     30  O   UNL     1     151.090 166.930 191.959  0.00  0.00    -0.461 OA
BRANCH  30  31
ATOM     31  C   UNL     1     151.157 168.202 191.480  0.00  0.00    +0.307 C 
ATOM     32  O   UNL     1     151.932 168.600 190.622  0.00  0.00    -0.251 OA
BRANCH  31  33
ATOM     33  C   UNL     1     150.212 169.086 192.264  0.00  0.00    +0.046 C 
ATOM     34  H   UNL     1     149.179 168.907 191.946  0.00  0.00    +0.038 HD
ATOM     35  H   UNL     1     150.296 168.771 193.311  0.00  0.00    +0.038 HD
BRANCH  33  36
ATOM     36  C   UNL     1     150.549 170.573 192.150  0.00  0.00    -0.031 C 
ATOM     37  H   UNL     1     151.342 170.738 191.409  0.00  0.00    +0.028 HD
ATOM     38  H   UNL     1     150.947 170.912 193.114  0.00  0.00    +0.028 HD
BRANCH  36  39
ATOM     39  C   UNL     1     149.339 171.446 191.815  0.00  0.00    -0.006 C 
ATOM     40  H   UNL     1     149.095 171.335 190.753  0.00  0.00    +0.042 HD
ATOM     41  H   UNL     1     149.589 172.501 191.983  0.00  0.00    +0.042 HD
BRANCH  39  42
ATOM     42  N   UNL     1     148.175 171.104 192.616  0.00  0.00    -0.330 NA
ATOM     43  H   UNL     1     148.259 170.147 192.968  0.00  0.00    +0.118 HD
ATOM     44  H   UNL     1     147.338 171.122 192.032  0.00  0.00    +0.118 HD
ENDBRANCH  39  42
ENDBRANCH  36  39
ENDBRANCH  33  36
ENDBRANCH  31  33
ENDBRANCH  30  31
ENDBRANCH  18  30
ENDBRANCH  15  18
ENDBRANCH  13  15
BRANCH  13  45
ATOM     45  O   UNL     1     150.054 165.651 196.218  0.00  0.00    -0.379 OA
BRANCH  45  46
ATOM     46  C   UNL     1     150.790 164.436 196.189  0.00  0.00    +0.037 C 
ATOM     47  H   UNL     1     151.448 164.361 197.058  0.00  0.00    +0.052 HD
ATOM     48  H   UNL     1     150.116 163.576 196.152  0.00  0.00    +0.052 HD
ATOM     49  H   UNL     1     151.407 164.431 195.286  0.00  0.00    +0.052 HD
ENDBRANCH  45  46
ENDBRANCH  13  45
ENDBRANCH   7  13
ENDBRANCH   4   7
ENDBRANCH   1   4
BRANCH   1  50
ATOM     50  C   UNL     1     146.877 166.701 190.938  0.00  0.00    +0.108 C 
ATOM     51  H   UNL     1     146.335 165.938 190.361  0.00  0.00    +0.074 HD
BRANCH  50  52
ATOM     52  C   UNL     1     147.770 167.473 189.928  0.00  0.00    +0.020 C 
ATOM     53  H   UNL     1     148.744 167.507 190.439  0.00  0.00    +0.036 HD
BRANCH  52  54
ATOM     54  C   UNL     1     147.385 168.953 189.816  0.00  0.00    -0.057 C 
ATOM     55  H   UNL     1     148.245 169.571 189.542  0.00  0.00    +0.023 HD
ATOM     56  H   UNL     1     147.021 169.321 190.782  0.00  0.00    +0.023 HD
ATOM     57  H   UNL     1     146.595 169.131 189.083  0.00  0.00    +0.023 HD
ENDBRANCH  52  54
BRANCH  52  58
ATOM     58  C   UNL     1     148.109 166.777 188.571  0.00  0.00    +0.070 C 
ATOM     59  H   UNL     1     147.230 166.883 187.920  0.00  0.00    +0.061 HD
BRANCH  58  60
ATOM     60  C   UNL     1     149.337 167.223 187.712  0.00  0.00    +0.002 C 
ATOM     61  H   UNL     1     149.517 168.268 188.008  0.00  0.00    +0.037 HD
BRANCH  60  62
ATOM     62  C   UNL     1     149.047 167.315 186.211  0.00  0.00    -0.057 C 
ATOM     63  H   UNL     1     147.992 167.554 186.038  0.00  0.00    +0.024 HD
ATOM     64  H   UNL     1     149.243 166.364 185.706  0.00  0.00    +0.024 HD
ATOM     65  H   UNL     1     149.634 168.092 185.718  0.00  0.00    +0.024 HD
ENDBRANCH  60  62
BRANCH  60  66
ATOM     66  C   UNL     1     150.630 166.523 188.092  0.00  0.00    -0.065 C 
ATOM     67  C   UNL     1     151.857 166.752 187.599  0.00  0.00    -0.005 C 
ATOM     68  H   UNL     1     150.506 165.778 188.875  0.00  0.00    +0.059 HD
ATOM     69  H   UNL     1     151.997 167.516 186.837  0.00  0.00    +0.078 HD
BRANCH  67  70
ATOM     70  N   UNL     1     153.012 166.071 187.961  0.00  0.00    -0.284 N 
ATOM     71  C   UNL     1     154.176 166.767 188.273  0.00  0.00    +0.206 C 
ATOM     72  O   UNL     1     155.254 166.283 188.592  0.00  0.00    -0.279 OA
ATOM     73  H   UNL     1     154.053 167.862 188.207  0.00  0.00    +0.126 HD
BRANCH  70  74
ATOM     74  C   UNL     1     153.057 164.617 188.007  0.00  0.00    +0.007 C 
ATOM     75  H   UNL     1     152.384 164.212 188.769  0.00  0.00    +0.043 HD
ATOM     76  H   UNL     1     154.075 164.293 188.246  0.00  0.00    +0.043 HD
ATOM     77  H   UNL     1     152.750 164.214 187.035  0.00  0.00    +0.043 HD
ENDBRANCH  70  74
ENDBRANCH  67  70
ENDBRANCH  60  66
ENDBRANCH  58  60
BRANCH  58  78
ATOM     78  O   UNL     1     148.293 165.355 188.790  0.00  0.00    -0.379 OA
BRANCH  78  79
ATOM     79  C   UNL     1     147.415 164.530 188.032  0.00  0.00    +0.037 C 
ATOM     80  H   UNL     1     147.797 163.509 187.955  0.00  0.00    +0.052 HD
ATOM     81  H   UNL     1     147.351 164.943 187.021  0.00  0.00    +0.052 HD
ATOM     82  H   UNL     1     146.410 164.527 188.465  0.00  0.00    +0.052 HD
ENDBRANCH  78  79
ENDBRANCH  58  78
ENDBRANCH  52  58
ENDBRANCH  50  52
BRANCH  50  83
ATOM     83  O   UNL     1     145.918 167.583 191.556  0.00  0.00    -0.459 OA
BRANCH  83  85
ATOM     84  O   UNL     1     143.946 168.072 190.490  0.00  0.00    -0.248 OA
ATOM     85  C   UNL     1     144.605 167.367 191.242  0.00  0.00    +0.337 C 
BRANCH  85  86
ATOM     86  C   UNL     1     144.093 166.122 191.977  0.00  0.00    +0.155 C 
ATOM     87  O   UNL     1     142.742 165.797 191.616  0.00  0.00    -0.365 OA
ATOM     88  C   UNL     1     141.878 166.091 192.720  0.00  0.00    +0.049 C 
ATOM     89  C   UNL     1     142.695 166.872 193.724  0.00  0.00    -0.027 C 
ATOM     90  C   UNL     1     144.086 166.341 193.481  0.00  0.00    -0.014 C 
ATOM     91  H   UNL     1     144.730 165.279 191.687  0.00  0.00    +0.071 HD
ATOM     92  H   UNL     1     141.002 166.643 192.368  0.00  0.00    +0.056 HD
ATOM     93  H   UNL     1     141.541 165.138 193.143  0.00  0.00    +0.056 HD
ATOM     94  H   UNL     1     142.348 166.742 194.752  0.00  0.00    +0.029 HD
ATOM     95  H   UNL     1     142.657 167.942 193.486  0.00  0.00    +0.029 HD
ATOM     96  H   UNL     1     144.202 165.379 193.995  0.00  0.00    +0.030 HD
ATOM     97  H   UNL     1     144.862 167.017 193.849  0.00  0.00    +0.030 HD
ENDBRANCH  85  86
ENDBRANCH  83  85
ENDBRANCH  50  83
ENDBRANCH   1  50
TORSDOF 31
ENDMDL
MODEL 5
REMARK VINA RESULT:      -5.1      2.516      6.977
REMARK  Name = 2u_conf1
REMARK  31 active torsions:
REMARK  status: ('A' for Active; 'I' for Inactive)
REMARK    1  A    between atoms: C_2  and  C_3
REMARK    2  A    between atoms: C_2  and  O_8
REMARK    3  A    between atoms: O_8  and  C_9
REMARK    4  A    between atoms: C_9  and  C_10
REMARK    5  A    between atoms: C_9  and  C_29
REMARK    6  A    between atoms: C_10  and  C_11
REMARK    7  A    between atoms: C_11  and  C_12
REMARK    8  A    between atoms: C_12  and  C_13
REMARK    9  A    between atoms: C_12  and  C_14
REMARK   10  A    between atoms: C_14  and  O_15
REMARK   11  A    between atoms: C_14  and  C_17
REMARK   12  A    between atoms: O_15  and  C_16
REMARK   13  A    between atoms: C_17  and  C_18
REMARK   14  A    between atoms: C_18  and  O_19
REMARK   15  A    between atoms: C_18  and  C_26
REMARK   16  A    between atoms: O_19  and  C_20
REMARK   17  A    between atoms: C_20  and  C_21
REMARK   18  A    between atoms: C_21  and  C_22
REMARK   19  A    between atoms: C_22  and  C_23
REMARK   20  A    between atoms: C_23  and  N_24
REMARK   21  A    between atoms: C_26  and  C_27
REMARK   22  A    between atoms: C_26  and  C_28
REMARK   23  A    between atoms: C_29  and  C_30
REMARK   24  A    between atoms: C_29  and  C_31
REMARK   25  A    between atoms: C_31  and  O_32
REMARK   26  A    between atoms: C_31  and  C_34
REMARK   27  A    between atoms: O_32  and  C_33
REMARK   28  A    between atoms: C_34  and  C_35
REMARK   29  A    between atoms: C_34  and  C_36
REMARK   30  A    between atoms: C_37  and  N_38
REMARK   31  A    between atoms: N_38  and  C_39
REMARK                            x       y       z     vdW  Elec       q    Type
REMARK                         _______ _______ _______ _____ _____    ______ ____
ROOT
ATOM      1  C   UNL     1     148.177 167.892 190.471  0.00  0.00    -0.015 C 
ATOM      2  H   UNL     1     147.920 168.749 189.852  0.00  0.00    +0.030 HD
ATOM      3  H   UNL     1     147.361 167.804 191.196  0.00  0.00    +0.030 HD
ENDROOT
BRANCH   1   4
ATOM      4  C   UNL     1     148.185 166.662 189.546  0.00  0.00    -0.045 C 
ATOM      5  H   UNL     1     148.964 165.973 189.897  0.00  0.00    +0.027 HD
ATOM      6  H   UNL     1     148.504 166.980 188.546  0.00  0.00    +0.027 HD
BRANCH   4   7
ATOM      7  C   UNL     1     146.845 165.898 189.442  0.00  0.00    -0.017 C 
ATOM      8  H   UNL     1     146.953 164.945 189.974  0.00  0.00    +0.032 HD
BRANCH   7   9
ATOM      9  C   UNL     1     146.596 165.557 187.963  0.00  0.00    -0.060 C 
ATOM     10  H   UNL     1     147.407 165.948 187.338  0.00  0.00    +0.023 HD
ATOM     11  H   UNL     1     146.562 164.477 187.801  0.00  0.00    +0.023 HD
ATOM     12  H   UNL     1     145.658 165.990 187.601  0.00  0.00    +0.023 HD
ENDBRANCH   7   9
BRANCH   7  13
ATOM     13  C   UNL     1     145.661 166.677 190.080  0.00  0.00    +0.064 C 
ATOM     14  H   UNL     1     146.062 167.530 190.639  0.00  0.00    +0.060 HD
BRANCH  13  15
ATOM     15  C   UNL     1     144.863 165.790 191.054  0.00  0.00    +0.011 C 
ATOM     16  H   UNL     1     145.322 164.795 191.069  0.00  0.00    +0.033 HD
ATOM     17  H   UNL     1     143.829 165.693 190.707  0.00  0.00    +0.033 HD
BRANCH  15  18
ATOM     18  C   UNL     1     144.844 166.362 192.487  0.00  0.00    +0.108 C 
ATOM     19  H   UNL     1     144.983 167.449 192.424  0.00  0.00    +0.074 HD
BRANCH  18  20
ATOM     20  C   UNL     1     143.497 166.068 193.195  0.00  0.00    -0.009 C 
ATOM     21  H   UNL     1     143.701 165.411 194.052  0.00  0.00    +0.033 HD
BRANCH  20  22
ATOM     22  C   UNL     1     142.798 167.326 193.719  0.00  0.00    -0.059 C 
ATOM     23  H   UNL     1     142.891 168.163 193.017  0.00  0.00    +0.023 HD
ATOM     24  H   UNL     1     141.729 167.136 193.867  0.00  0.00    +0.023 HD
ATOM     25  H   UNL     1     143.209 167.641 194.682  0.00  0.00    +0.023 HD
ENDBRANCH  20  22
BRANCH  20  26
ATOM     26  C   UNL     1     142.541 165.303 192.277  0.00  0.00    -0.059 C 
ATOM     27  H   UNL     1     141.661 164.943 192.817  0.00  0.00    +0.023 HD
ATOM     28  H   UNL     1     142.201 165.939 191.451  0.00  0.00    +0.023 HD
ATOM     29  H   UNL     1     143.040 164.433 191.839  0.00  0.00    +0.023 HD
ENDBRANCH  20  26
ENDBRANCH  18  20
BRANCH  18  30
ATOM     30  O   UNL     1     145.939 165.738 193.196  0.00  0.00    -0.461 OA
BRANCH  30  31
ATOM     31  C   UNL     1     146.569 166.462 194.161  0.00  0.00    +0.307 C 
ATOM     32  O   UNL     1     146.911 167.632 194.064  0.00  0.00    -0.251 OA
BRANCH  31  33
ATOM     33  C   UNL     1     146.904 165.561 195.329  0.00  0.00    +0.046 C 
ATOM     34  H   UNL     1     145.991 165.299 195.874  0.00  0.00    +0.038 HD
ATOM     35  H   UNL     1     147.311 164.638 194.898  0.00  0.00    +0.038 HD
BRANCH  33  36
ATOM     36  C   UNL     1     147.930 166.173 196.283  0.00  0.00    -0.031 C 
ATOM     37  H   UNL     1     147.477 166.387 197.259  0.00  0.00    +0.028 HD
ATOM     38  H   UNL     1     148.254 167.137 195.871  0.00  0.00    +0.028 HD
BRANCH  36  39
ATOM     39  C   UNL     1     149.177 165.307 196.470  0.00  0.00    -0.006 C 
ATOM     40  H   UNL     1     149.389 164.770 195.538  0.00  0.00    +0.042 HD
ATOM     41  H   UNL     1     148.989 164.553 197.244  0.00  0.00    +0.042 HD
BRANCH  39  42
ATOM     42  N   UNL     1     150.341 166.091 196.849  0.00  0.00    -0.330 NA
ATOM     43  H   UNL     1     150.095 167.083 196.901  0.00  0.00    +0.118 HD
ATOM     44  H   UNL     1     151.059 166.012 196.129  0.00  0.00    +0.118 HD
ENDBRANCH  39  42
ENDBRANCH  36  39
ENDBRANCH  33  36
ENDBRANCH  31  33
ENDBRANCH  30  31
ENDBRANCH  18  30
ENDBRANCH  15  18
ENDBRANCH  13  15
BRANCH  13  45
ATOM     45  O   UNL     1     144.774 167.119 189.046  0.00  0.00    -0.379 OA
BRANCH  45  46
ATOM     46  C   UNL     1     144.106 168.336 189.347  0.00  0.00    +0.037 C 
ATOM     47  H   UNL     1     144.256 168.612 190.393  0.00  0.00    +0.052 HD
ATOM     48  H   UNL     1     144.453 169.140 188.693  0.00  0.00    +0.052 HD
ATOM     49  H   UNL     1     143.036 168.189 189.177  0.00  0.00    +0.052 HD
ENDBRANCH  45  46
ENDBRANCH  13  45
ENDBRANCH   7  13
ENDBRANCH   4   7
ENDBRANCH   1   4
BRANCH   1  50
ATOM     50  C   UNL     1     149.502 168.153 191.207  0.00  0.00    +0.108 C 
ATOM     51  H   UNL     1     150.129 168.694 190.483  0.00  0.00    +0.074 HD
BRANCH  50  52
ATOM     52  C   UNL     1     150.299 166.887 191.628  0.00  0.00    +0.020 C 
ATOM     53  H   UNL     1     149.752 166.076 191.125  0.00  0.00    +0.036 HD
BRANCH  52  54
ATOM     54  C   UNL     1     150.127 166.552 193.115  0.00  0.00    -0.057 C 
ATOM     55  H   UNL     1     151.071 166.649 193.658  0.00  0.00    +0.023 HD
ATOM     56  H   UNL     1     149.795 165.514 193.230  0.00  0.00    +0.023 HD
ATOM     57  H   UNL     1     149.388 167.186 193.608  0.00  0.00    +0.023 HD
ENDBRANCH  52  54
BRANCH  52  58
ATOM     58  C   UNL     1     151.754 166.724 191.081  0.00  0.00    +0.070 C 
ATOM     59  H   UNL     1     152.162 167.732 190.929  0.00  0.00    +0.061 HD
BRANCH  58  60
ATOM     60  C   UNL     1     152.841 165.936 191.882  0.00  0.00    +0.002 C 
ATOM     61  H   UNL     1     152.268 165.242 192.517  0.00  0.00    +0.037 HD
BRANCH  60  62
ATOM     62  C   UNL     1     153.616 166.792 192.887  0.00  0.00    -0.057 C 
ATOM     63  H   UNL     1     153.004 167.634 193.229  0.00  0.00    +0.024 HD
ATOM     64  H   UNL     1     154.518 167.219 192.438  0.00  0.00    +0.024 HD
ATOM     65  H   UNL     1     153.909 166.231 193.777  0.00  0.00    +0.024 HD
ENDBRANCH  60  62
BRANCH  60  66
ATOM     66  C   UNL     1     153.680 165.010 191.018  0.00  0.00    -0.065 C 
ATOM     67  C   UNL     1     154.895 165.254 190.503  0.00  0.00    -0.005 C 
ATOM     68  H   UNL     1     153.217 164.042 190.845  0.00  0.00    +0.059 HD
ATOM     69  H   UNL     1     155.379 166.209 190.695  0.00  0.00    +0.078 HD
BRANCH  67  70
ATOM     70  N   UNL     1     155.618 164.386 189.697  0.00  0.00    -0.284 N 
ATOM     71  C   UNL     1     157.003 164.495 189.601  0.00  0.00    +0.206 C 
ATOM     72  O   UNL     1     157.746 163.801 188.920  0.00  0.00    -0.279 OA
ATOM     73  H   UNL     1     157.413 165.308 190.225  0.00  0.00    +0.126 HD
BRANCH  70  74
ATOM     74  C   UNL     1     154.963 163.349 188.911  0.00  0.00    +0.007 C 
ATOM     75  H   UNL     1     154.078 162.953 189.417  0.00  0.00    +0.043 HD
ATOM     76  H   UNL     1     155.661 162.522 188.750  0.00  0.00    +0.043 HD
ATOM     77  H   UNL     1     154.645 163.770 187.951  0.00  0.00    +0.043 HD
ENDBRANCH  70  74
ENDBRANCH  67  70
ENDBRANCH  60  66
ENDBRANCH  58  60
BRANCH  58  78
ATOM     78  O   UNL     1     151.710 166.093 189.776  0.00  0.00    -0.379 OA
BRANCH  78  79
ATOM     79  C   UNL     1     151.905 166.991 188.688  0.00  0.00    +0.037 C 
ATOM     80  H   UNL     1     152.536 167.834 188.977  0.00  0.00    +0.052 HD
ATOM     81  H   UNL     1     150.928 167.385 188.395  0.00  0.00    +0.052 HD
ATOM     82  H   UNL     1     152.337 166.472 187.825  0.00  0.00    +0.052 HD
ENDBRANCH  78  79
ENDBRANCH  58  78
ENDBRANCH  52  58
ENDBRANCH  50  52
BRANCH  50  83
ATOM     83  O   UNL     1     149.260 169.009 192.343  0.00  0.00    -0.459 OA
BRANCH  83  85
ATOM     84  O   UNL     1     150.593 170.724 191.602  0.00  0.00    -0.248 OA
ATOM     85  C   UNL     1     149.598 170.326 192.193  0.00  0.00    +0.337 C 
BRANCH  85  86
ATOM     86  C   UNL     1     148.552 171.212 192.880  0.00  0.00    +0.155 C 
ATOM     87  O   UNL     1     147.434 171.493 192.022  0.00  0.00    -0.365 OA
ATOM     88  C   UNL     1     147.486 172.867 191.620  0.00  0.00    +0.049 C 
ATOM     89  C   UNL     1     148.837 173.400 192.042  0.00  0.00    -0.027 C 
ATOM     90  C   UNL     1     149.142 172.560 193.258  0.00  0.00    -0.014 C 
ATOM     91  H   UNL     1     148.176 170.667 193.752  0.00  0.00    +0.071 HD
ATOM     92  H   UNL     1     147.321 172.944 190.542  0.00  0.00    +0.056 HD
ATOM     93  H   UNL     1     146.676 173.396 192.135  0.00  0.00    +0.056 HD
ATOM     94  H   UNL     1     148.830 174.474 192.241  0.00  0.00    +0.029 HD
ATOM     95  H   UNL     1     149.578 173.204 191.258  0.00  0.00    +0.029 HD
ATOM     96  H   UNL     1     148.606 172.967 194.124  0.00  0.00    +0.030 HD
ATOM     97  H   UNL     1     150.208 172.543 193.497  0.00  0.00    +0.030 HD
ENDBRANCH  85  86
ENDBRANCH  83  85
ENDBRANCH  50  83
ENDBRANCH   1  50
TORSDOF 31
ENDMDL
MODEL 6
REMARK VINA RESULT:      -5.0      2.680      7.708
REMARK  Name = 2u_conf1
REMARK  31 active torsions:
REMARK  status: ('A' for Active; 'I' for Inactive)
REMARK    1  A    between atoms: C_2  and  C_3
REMARK    2  A    between atoms: C_2  and  O_8
REMARK    3  A    between atoms: O_8  and  C_9
REMARK    4  A    between atoms: C_9  and  C_10
REMARK    5  A    between atoms: C_9  and  C_29
REMARK    6  A    between atoms: C_10  and  C_11
REMARK    7  A    between atoms: C_11  and  C_12
REMARK    8  A    between atoms: C_12  and  C_13
REMARK    9  A    between atoms: C_12  and  C_14
REMARK   10  A    between atoms: C_14  and  O_15
REMARK   11  A    between atoms: C_14  and  C_17
REMARK   12  A    between atoms: O_15  and  C_16
REMARK   13  A    between atoms: C_17  and  C_18
REMARK   14  A    between atoms: C_18  and  O_19
REMARK   15  A    between atoms: C_18  and  C_26
REMARK   16  A    between atoms: O_19  and  C_20
REMARK   17  A    between atoms: C_20  and  C_21
REMARK   18  A    between atoms: C_21  and  C_22
REMARK   19  A    between atoms: C_22  and  C_23
REMARK   20  A    between atoms: C_23  and  N_24
REMARK   21  A    between atoms: C_26  and  C_27
REMARK   22  A    between atoms: C_26  and  C_28
REMARK   23  A    between atoms: C_29  and  C_30
REMARK   24  A    between atoms: C_29  and  C_31
REMARK   25  A    between atoms: C_31  and  O_32
REMARK   26  A    between atoms: C_31  and  C_34
REMARK   27  A    between atoms: O_32  and  C_33
REMARK   28  A    between atoms: C_34  and  C_35
REMARK   29  A    between atoms: C_34  and  C_36
REMARK   30  A    between atoms: C_37  and  N_38
REMARK   31  A    between atoms: N_38  and  C_39
REMARK                            x       y       z     vdW  Elec       q    Type
REMARK                         _______ _______ _______ _____ _____    ______ ____
ROOT
ATOM      1  C   UNL     1     148.882 169.457 192.063  0.00  0.00    -0.015 C 
ATOM      2  H   UNL     1     148.574 169.593 193.097  0.00  0.00    +0.030 HD
ATOM      3  H   UNL     1     149.549 170.300 191.848  0.00  0.00    +0.030 HD
ENDROOT
BRANCH   1   4
ATOM      4  C   UNL     1     149.676 168.140 192.003  0.00  0.00    -0.045 C 
ATOM      5  H   UNL     1     149.437 167.637 191.057  0.00  0.00    +0.027 HD
ATOM      6  H   UNL     1     149.302 167.473 192.790  0.00  0.00    +0.027 HD
BRANCH   4   7
ATOM      7  C   UNL     1     151.210 168.279 192.129  0.00  0.00    -0.017 C 
ATOM      8  H   UNL     1     151.513 167.849 193.091  0.00  0.00    +0.032 HD
BRANCH   7   9
ATOM      9  C   UNL     1     151.558 169.775 192.179  0.00  0.00    -0.060 C 
ATOM     10  H   UNL     1     150.647 170.382 192.128  0.00  0.00    +0.023 HD
ATOM     11  H   UNL     1     152.064 170.039 193.111  0.00  0.00    +0.023 HD
ATOM     12  H   UNL     1     152.201 170.069 191.343  0.00  0.00    +0.023 HD
ENDBRANCH   7   9
BRANCH   7  13
ATOM     13  C   UNL     1     151.972 167.528 191.002  0.00  0.00    +0.064 C 
ATOM     14  H   UNL     1     152.613 168.242 190.474  0.00  0.00    +0.060 HD
BRANCH  13  15
ATOM     15  C   UNL     1     151.000 166.902 189.984  0.00  0.00    +0.011 C 
ATOM     16  H   UNL     1     150.317 167.684 189.634  0.00  0.00    +0.033 HD
ATOM     17  H   UNL     1     150.411 166.115 190.468  0.00  0.00    +0.033 HD
BRANCH  15  18
ATOM     18  C   UNL     1     151.733 166.287 188.774  0.00  0.00    +0.108 C 
ATOM     19  H   UNL     1     152.280 165.401 189.119  0.00  0.00    +0.074 HD
BRANCH  18  20
ATOM     20  C   UNL     1     150.737 165.865 187.664  0.00  0.00    -0.009 C 
ATOM     21  H   UNL     1     151.229 165.107 187.039  0.00  0.00    +0.033 HD
BRANCH  20  22
ATOM     22  C   UNL     1     149.440 165.260 188.210  0.00  0.00    -0.059 C 
ATOM     23  H   UNL     1     149.599 164.252 188.611  0.00  0.00    +0.023 HD
ATOM     24  H   UNL     1     149.041 165.880 189.022  0.00  0.00    +0.023 HD
ATOM     25  H   UNL     1     148.669 165.203 187.436  0.00  0.00    +0.023 HD
ENDBRANCH  20  22
BRANCH  20  26
ATOM     26  C   UNL     1     150.400 167.039 186.742  0.00  0.00    -0.059 C 
ATOM     27  H   UNL     1     151.299 167.554 186.394  0.00  0.00    +0.023 HD
ATOM     28  H   UNL     1     149.838 166.697 185.865  0.00  0.00    +0.023 HD
ATOM     29  H   UNL     1     149.778 167.773 187.265  0.00  0.00    +0.023 HD
ENDBRANCH  20  26
ENDBRANCH  18  20
BRANCH  18  30
ATOM     30  O   UNL     1     152.642 167.300 188.283  0.00  0.00    -0.461 OA
BRANCH  30  31
ATOM     31  C   UNL     1     153.942 166.950 188.086  0.00  0.00    +0.307 C 
ATOM     32  O   UNL     1     154.798 166.871 188.955  0.00  0.00    -0.251 OA
BRANCH  31  33
ATOM     33  C   UNL     1     154.202 166.797 186.603  0.00  0.00    +0.046 C 
ATOM     34  H   UNL     1     153.498 167.412 186.033  0.00  0.00    +0.038 HD
ATOM     35  H   UNL     1     155.210 167.194 186.427  0.00  0.00    +0.038 HD
BRANCH  33  36
ATOM     36  C   UNL     1     154.138 165.344 186.130  0.00  0.00    -0.031 C 
ATOM     37  H   UNL     1     153.813 164.683 186.943  0.00  0.00    +0.028 HD
ATOM     38  H   UNL     1     155.150 165.025 185.852  0.00  0.00    +0.028 HD
BRANCH  36  39
ATOM     39  C   UNL     1     153.238 165.143 184.909  0.00  0.00    -0.006 C 
ATOM     40  H   UNL     1     152.336 165.757 185.019  0.00  0.00    +0.042 HD
ATOM     41  H   UNL     1     152.914 164.096 184.859  0.00  0.00    +0.042 HD
BRANCH  39  42
ATOM     42  N   UNL     1     153.908 165.490 183.667  0.00  0.00    -0.330 NA
ATOM     43  H   UNL     1     154.546 164.739 183.391  0.00  0.00    +0.118 HD
ATOM     44  H   UNL     1     154.485 166.319 183.807  0.00  0.00    +0.118 HD
ENDBRANCH  39  42
ENDBRANCH  36  39
ENDBRANCH  33  36
ENDBRANCH  31  33
ENDBRANCH  30  31
ENDBRANCH  18  30
ENDBRANCH  15  18
ENDBRANCH  13  15
BRANCH  13  45
ATOM     45  O   UNL     1     152.754 166.475 191.581  0.00  0.00    -0.379 OA
BRANCH  45  46
ATOM     46  C   UNL     1     152.712 166.445 192.999  0.00  0.00    +0.037 C 
ATOM     47  H   UNL     1     153.012 165.464 193.376  0.00  0.00    +0.052 HD
ATOM     48  H   UNL     1     153.353 167.223 193.423  0.00  0.00    +0.052 HD
ATOM     49  H   UNL     1     151.682 166.637 193.315  0.00  0.00    +0.052 HD
ENDBRANCH  45  46
ENDBRANCH  13  45
ENDBRANCH   7  13
ENDBRANCH   4   7
ENDBRANCH   1   4
BRANCH   1  50
ATOM     50  C   UNL     1     147.656 169.514 191.136  0.00  0.00    +0.108 C 
ATOM     51  H   UNL     1     146.788 169.435 191.807  0.00  0.00    +0.074 HD
BRANCH  50  52
ATOM     52  C   UNL     1     147.534 168.354 190.110  0.00  0.00    +0.020 C 
ATOM     53  H   UNL     1     148.423 167.743 190.324  0.00  0.00    +0.036 HD
BRANCH  52  54
ATOM     54  C   UNL     1     147.770 168.817 188.668  0.00  0.00    -0.057 C 
ATOM     55  H   UNL     1     148.837 168.915 188.449  0.00  0.00    +0.023 HD
ATOM     56  H   UNL     1     147.318 169.803 188.510  0.00  0.00    +0.023 HD
ATOM     57  H   UNL     1     147.335 168.140 187.929  0.00  0.00    +0.023 HD
ENDBRANCH  52  54
BRANCH  52  58
ATOM     58  C   UNL     1     146.358 167.340 190.291  0.00  0.00    +0.070 C 
ATOM     59  H   UNL     1     145.881 167.213 189.310  0.00  0.00    +0.061 HD
BRANCH  58  60
ATOM     60  C   UNL     1     146.606 165.895 190.838  0.00  0.00    +0.002 C 
ATOM     61  H   UNL     1     147.695 165.752 190.757  0.00  0.00    +0.037 HD
BRANCH  60  62
ATOM     62  C   UNL     1     146.027 164.787 189.955  0.00  0.00    -0.057 C 
ATOM     63  H   UNL     1     146.144 163.810 190.437  0.00  0.00    +0.024 HD
ATOM     64  H   UNL     1     146.546 164.728 188.993  0.00  0.00    +0.024 HD
ATOM     65  H   UNL     1     144.961 164.920 189.761  0.00  0.00    +0.024 HD
ENDBRANCH  60  62
BRANCH  60  66
ATOM     66  C   UNL     1     146.343 165.757 192.327  0.00  0.00    -0.065 C 
ATOM     67  C   UNL     1     147.252 165.689 193.313  0.00  0.00    -0.005 C 
ATOM     68  H   UNL     1     145.287 165.743 192.581  0.00  0.00    +0.059 HD
ATOM     69  H   UNL     1     148.313 165.732 193.071  0.00  0.00    +0.078 HD
BRANCH  67  70
ATOM     70  N   UNL     1     146.968 165.540 194.663  0.00  0.00    -0.284 N 
ATOM     71  C   UNL     1     147.879 165.957 195.629  0.00  0.00    +0.206 C 
ATOM     72  O   UNL     1     147.750 165.868 196.843  0.00  0.00    -0.279 OA
ATOM     73  H   UNL     1     148.791 166.402 195.195  0.00  0.00    +0.126 HD
BRANCH  70  74
ATOM     74  C   UNL     1     145.727 164.929 195.119  0.00  0.00    +0.007 C 
ATOM     75  H   UNL     1     145.837 164.472 196.107  0.00  0.00    +0.043 HD
ATOM     76  H   UNL     1     145.429 164.146 194.414  0.00  0.00    +0.043 HD
ATOM     77  H   UNL     1     144.948 165.696 195.184  0.00  0.00    +0.043 HD
ENDBRANCH  70  74
ENDBRANCH  67  70
ENDBRANCH  60  66
ENDBRANCH  58  60
BRANCH  58  78
ATOM     78  O   UNL     1     145.357 167.913 191.169  0.00  0.00    -0.379 OA
BRANCH  78  79
ATOM     79  C   UNL     1     144.126 168.224 190.524  0.00  0.00    +0.037 C 
ATOM     80  H   UNL     1     143.289 168.187 191.226  0.00  0.00    +0.052 HD
ATOM     81  H   UNL     1     143.950 167.472 189.750  0.00  0.00    +0.052 HD
ATOM     82  H   UNL     1     144.173 169.206 190.043  0.00  0.00    +0.052 HD
ENDBRANCH  78  79
ENDBRANCH  58  78
ENDBRANCH  52  58
ENDBRANCH  50  52
BRANCH  50  83
ATOM     83  O   UNL     1     147.615 170.793 190.471  0.00  0.00    -0.459 OA
BRANCH  83  85
ATOM     84  O   UNL     1     145.491 171.464 191.026  0.00  0.00    -0.248 OA
ATOM     85  C   UNL     1     146.691 171.689 190.936  0.00  0.00    +0.337 C 
BRANCH  85  86
ATOM     86  C   UNL     1     147.386 173.003 191.315  0.00  0.00    +0.155 C 
ATOM     87  O   UNL     1     148.816 172.902 191.233  0.00  0.00    -0.365 OA
ATOM     88  C   UNL     1     149.363 172.906 192.557  0.00  0.00    +0.049 C 
ATOM     89  C   UNL     1     148.203 172.747 193.514  0.00  0.00    -0.027 C 
ATOM     90  C   UNL     1     147.072 173.391 192.750  0.00  0.00    -0.014 C 
ATOM     91  H   UNL     1     147.062 173.768 190.601  0.00  0.00    +0.071 HD
ATOM     92  H   UNL     1     150.103 172.107 192.654  0.00  0.00    +0.056 HD
ATOM     93  H   UNL     1     149.867 173.868 192.706  0.00  0.00    +0.056 HD
ATOM     94  H   UNL     1     148.389 173.201 194.490  0.00  0.00    +0.029 HD
ATOM     95  H   UNL     1     147.990 171.683 193.670  0.00  0.00    +0.029 HD
ATOM     96  H   UNL     1     147.135 174.481 192.859  0.00  0.00    +0.030 HD
ATOM     97  H   UNL     1     146.091 173.071 193.108  0.00  0.00    +0.030 HD
ENDBRANCH  85  86
ENDBRANCH  83  85
ENDBRANCH  50  83
ENDBRANCH   1  50
TORSDOF 31
ENDMDL
MODEL 7
REMARK VINA RESULT:      -5.0      2.668      6.308
REMARK  Name = 2u_conf1
REMARK  31 active torsions:
REMARK  status: ('A' for Active; 'I' for Inactive)
REMARK    1  A    between atoms: C_2  and  C_3
REMARK    2  A    between atoms: C_2  and  O_8
REMARK    3  A    between atoms: O_8  and  C_9
REMARK    4  A    between atoms: C_9  and  C_10
REMARK    5  A    between atoms: C_9  and  C_29
REMARK    6  A    between atoms: C_10  and  C_11
REMARK    7  A    between atoms: C_11  and  C_12
REMARK    8  A    between atoms: C_12  and  C_13
REMARK    9  A    between atoms: C_12  and  C_14
REMARK   10  A    between atoms: C_14  and  O_15
REMARK   11  A    between atoms: C_14  and  C_17
REMARK   12  A    between atoms: O_15  and  C_16
REMARK   13  A    between atoms: C_17  and  C_18
REMARK   14  A    between atoms: C_18  and  O_19
REMARK   15  A    between atoms: C_18  and  C_26
REMARK   16  A    between atoms: O_19  and  C_20
REMARK   17  A    between atoms: C_20  and  C_21
REMARK   18  A    between atoms: C_21  and  C_22
REMARK   19  A    between atoms: C_22  and  C_23
REMARK   20  A    between atoms: C_23  and  N_24
REMARK   21  A    between atoms: C_26  and  C_27
REMARK   22  A    between atoms: C_26  and  C_28
REMARK   23  A    between atoms: C_29  and  C_30
REMARK   24  A    between atoms: C_29  and  C_31
REMARK   25  A    between atoms: C_31  and  O_32
REMARK   26  A    between atoms: C_31  and  C_34
REMARK   27  A    between atoms: O_32  and  C_33
REMARK   28  A    between atoms: C_34  and  C_35
REMARK   29  A    between atoms: C_34  and  C_36
REMARK   30  A    between atoms: C_37  and  N_38
REMARK   31  A    between atoms: N_38  and  C_39
REMARK                            x       y       z     vdW  Elec       q    Type
REMARK                         _______ _______ _______ _____ _____    ______ ____
ROOT
ATOM      1  C   UNL     1     147.880 168.138 191.105  0.00  0.00    -0.015 C 
ATOM      2  H   UNL     1     147.454 167.155 191.290  0.00  0.00    +0.030 HD
ATOM      3  H   UNL     1     147.827 168.661 192.067  0.00  0.00    +0.030 HD
ENDROOT
BRANCH   1   4
ATOM      4  C   UNL     1     149.353 167.920 190.715  0.00  0.00    -0.045 C 
ATOM      5  H   UNL     1     149.631 168.683 189.978  0.00  0.00    +0.027 HD
ATOM      6  H   UNL     1     149.434 166.961 190.188  0.00  0.00    +0.027 HD
BRANCH   4   7
ATOM      7  C   UNL     1     150.365 167.954 191.884  0.00  0.00    -0.017 C 
ATOM      8  H   UNL     1     149.849 168.345 192.769  0.00  0.00    +0.032 HD
BRANCH   7   9
ATOM      9  C   UNL     1     151.475 168.959 191.534  0.00  0.00    -0.060 C 
ATOM     10  H   UNL     1     151.201 169.965 191.873  0.00  0.00    +0.023 HD
ATOM     11  H   UNL     1     152.417 168.703 192.025  0.00  0.00    +0.023 HD
ATOM     12  H   UNL     1     151.650 169.008 190.454  0.00  0.00    +0.023 HD
ENDBRANCH   7   9
BRANCH   7  13
ATOM     13  C   UNL     1     150.924 166.547 192.232  0.00  0.00    +0.064 C 
ATOM     14  H   UNL     1     150.168 165.795 191.980  0.00  0.00    +0.060 HD
BRANCH  13  15
ATOM     15  C   UNL     1     151.248 166.425 193.733  0.00  0.00    +0.011 C 
ATOM     16  H   UNL     1     151.328 167.434 194.152  0.00  0.00    +0.033 HD
ATOM     17  H   UNL     1     152.207 165.914 193.866  0.00  0.00    +0.033 HD
BRANCH  15  18
ATOM     18  C   UNL     1     150.167 165.640 194.504  0.00  0.00    +0.108 C 
ATOM     19  H   UNL     1     150.143 164.615 194.114  0.00  0.00    +0.074 HD
BRANCH  18  20
ATOM     20  C   UNL     1     150.477 165.592 196.022  0.00  0.00    -0.009 C 
ATOM     21  H   UNL     1     151.388 166.179 196.201  0.00  0.00    +0.033 HD
BRANCH  20  22
ATOM     22  C   UNL     1     149.358 166.176 196.890  0.00  0.00    -0.059 C 
ATOM     23  H   UNL     1     149.035 167.159 196.527  0.00  0.00    +0.023 HD
ATOM     24  H   UNL     1     148.483 165.516 196.882  0.00  0.00    +0.023 HD
ATOM     25  H   UNL     1     149.675 166.283 197.931  0.00  0.00    +0.023 HD
ENDBRANCH  20  22
BRANCH  20  26
ATOM     26  C   UNL     1     150.782 164.164 196.483  0.00  0.00    -0.059 C 
ATOM     27  H   UNL     1     151.183 163.552 195.671  0.00  0.00    +0.023 HD
ATOM     28  H   UNL     1     151.510 164.167 197.303  0.00  0.00    +0.023 HD
ATOM     29  H   UNL     1     149.874 163.676 196.850  0.00  0.00    +0.023 HD
ENDBRANCH  20  26
ENDBRANCH  18  20
BRANCH  18  30
ATOM     30  O   UNL     1     148.912 166.318 194.263  0.00  0.00    -0.461 OA
BRANCH  30  31
ATOM     31  C   UNL     1     147.813 165.557 194.014  0.00  0.00    +0.307 C 
ATOM     32  O   UNL     1     147.822 164.387 193.657  0.00  0.00    -0.251 OA
BRANCH  31  33
ATOM     33  C   UNL     1     146.571 166.415 194.119  0.00  0.00    +0.046 C 
ATOM     34  H   UNL     1     146.645 167.078 194.987  0.00  0.00    +0.038 HD
ATOM     35  H   UNL     1     146.557 167.044 193.220  0.00  0.00    +0.038 HD
BRANCH  33  36
ATOM     36  C   UNL     1     145.281 165.596 194.188  0.00  0.00    -0.031 C 
ATOM     37  H   UNL     1     145.031 165.349 195.227  0.00  0.00    +0.028 HD
ATOM     38  H   UNL     1     145.448 164.643 193.671  0.00  0.00    +0.028 HD
BRANCH  36  39
ATOM     39  C   UNL     1     144.089 166.284 193.519  0.00  0.00    -0.006 C 
ATOM     40  H   UNL     1     143.416 166.674 194.291  0.00  0.00    +0.042 HD
ATOM     41  H   UNL     1     143.523 165.550 192.933  0.00  0.00    +0.042 HD
BRANCH  39  42
ATOM     42  N   UNL     1     144.500 167.370 192.644  0.00  0.00    -0.330 NA
ATOM     43  H   UNL     1     145.008 166.999 191.838  0.00  0.00    +0.118 HD
ATOM     44  H   UNL     1     145.151 167.981 193.137  0.00  0.00    +0.118 HD
ENDBRANCH  39  42
ENDBRANCH  36  39
ENDBRANCH  33  36
ENDBRANCH  31  33
ENDBRANCH  30  31
ENDBRANCH  18  30
ENDBRANCH  15  18
ENDBRANCH  13  15
BRANCH  13  45
ATOM     45  O   UNL     1     152.130 166.321 191.493  0.00  0.00    -0.379 OA
BRANCH  45  46
ATOM     46  C   UNL     1     152.147 165.089 190.788  0.00  0.00    +0.037 C 
ATOM     47  H   UNL     1     151.456 165.116 189.943  0.00  0.00    +0.052 HD
ATOM     48  H   UNL     1     153.157 164.855 190.441  0.00  0.00    +0.052 HD
ATOM     49  H   UNL     1     151.826 164.299 191.473  0.00  0.00    +0.052 HD
ENDBRANCH  45  46
ENDBRANCH  13  45
ENDBRANCH   7  13
ENDBRANCH   4   7
ENDBRANCH   1   4
BRANCH   1  50
ATOM     50  C   UNL     1     147.040 168.888 190.057  0.00  0.00    +0.108 C 
ATOM     51  H   UNL     1     146.055 169.023 190.526  0.00  0.00    +0.074 HD
BRANCH  50  52
ATOM     52  C   UNL     1     146.798 168.132 188.722  0.00  0.00    +0.020 C 
ATOM     53  H   UNL     1     147.771 167.654 188.532  0.00  0.00    +0.036 HD
BRANCH  52  54
ATOM     54  C   UNL     1     146.640 169.082 187.529  0.00  0.00    -0.057 C 
ATOM     55  H   UNL     1     146.701 168.544 186.578  0.00  0.00    +0.023 HD
ATOM     56  H   UNL     1     147.446 169.825 187.530  0.00  0.00    +0.023 HD
ATOM     57  H   UNL     1     145.695 169.629 187.546  0.00  0.00    +0.023 HD
ENDBRANCH  52  54
BRANCH  52  58
ATOM     58  C   UNL     1     145.809 166.923 188.736  0.00  0.00    +0.070 C 
ATOM     59  H   UNL     1     145.318 166.889 187.754  0.00  0.00    +0.061 HD
BRANCH  58  60
ATOM     60  C   UNL     1     146.306 165.467 189.017  0.00  0.00    +0.002 C 
ATOM     61  H   UNL     1     145.698 164.833 188.352  0.00  0.00    +0.037 HD
BRANCH  60  62
ATOM     62  C   UNL     1     145.967 164.953 190.419  0.00  0.00    -0.057 C 
ATOM     63  H   UNL     1     146.042 165.763 191.154  0.00  0.00    +0.024 HD
ATOM     64  H   UNL     1     146.663 164.171 190.739  0.00  0.00    +0.024 HD
ATOM     65  H   UNL     1     144.952 164.557 190.485  0.00  0.00    +0.024 HD
ENDBRANCH  60  62
BRANCH  60  66
ATOM     66  C   UNL     1     147.726 165.209 188.545  0.00  0.00    -0.065 C 
ATOM     67  C   UNL     1     148.166 164.176 187.809  0.00  0.00    -0.005 C 
ATOM     68  H   UNL     1     148.428 165.986 188.837  0.00  0.00    +0.059 HD
ATOM     69  H   UNL     1     147.466 163.407 187.488  0.00  0.00    +0.078 HD
BRANCH  67  70
ATOM     70  N   UNL     1     149.482 163.967 187.418  0.00  0.00    -0.284 N 
ATOM     71  C   UNL     1     150.399 165.014 187.429  0.00  0.00    +0.206 C 
ATOM     72  O   UNL     1     151.576 164.959 187.098  0.00  0.00    -0.279 OA
ATOM     73  H   UNL     1     149.960 165.965 187.779  0.00  0.00    +0.126 HD
BRANCH  70  74
ATOM     74  C   UNL     1     149.946 162.663 186.967  0.00  0.00    +0.007 C 
ATOM     75  H   UNL     1     150.801 162.747 186.289  0.00  0.00    +0.043 HD
ATOM     76  H   UNL     1     149.136 162.156 186.432  0.00  0.00    +0.043 HD
ATOM     77  H   UNL     1     150.257 162.069 187.834  0.00  0.00    +0.043 HD
ENDBRANCH  70  74
ENDBRANCH  67  70
ENDBRANCH  60  66
ENDBRANCH  58  60
BRANCH  58  78
ATOM     78  O   UNL     1     144.765 167.164 189.713  0.00  0.00    -0.379 OA
BRANCH  78  79
ATOM     79  C   UNL     1     143.542 167.634 189.156  0.00  0.00    +0.037 C 
ATOM     80  H   UNL     1     143.652 168.643 188.752  0.00  0.00    +0.052 HD
ATOM     81  H   UNL     1     142.797 167.670 189.956  0.00  0.00    +0.052 HD
ATOM     82  H   UNL     1     143.179 166.953 188.380  0.00  0.00    +0.052 HD
ENDBRANCH  78  79
ENDBRANCH  58  78
ENDBRANCH  52  58
ENDBRANCH  50  52
BRANCH  50  83
ATOM     83  O   UNL     1     147.621 170.185 189.814  0.00  0.00    -0.459 OA
BRANCH  83  85
ATOM     84  O   UNL     1     146.403 171.436 191.303  0.00  0.00    -0.248 OA
ATOM     85  C   UNL     1     147.474 171.112 190.810  0.00  0.00    +0.337 C 
BRANCH  85  86
ATOM     86  C   UNL     1     148.846 171.676 191.201  0.00  0.00    +0.155 C 
ATOM     87  O   UNL     1     149.203 171.344 192.552  0.00  0.00    -0.365 OA
ATOM     88  C   UNL     1     149.133 172.525 193.359  0.00  0.00    +0.049 C 
ATOM     89  C   UNL     1     148.458 173.590 192.525  0.00  0.00    -0.027 C 
ATOM     90  C   UNL     1     148.853 173.194 191.124  0.00  0.00    -0.014 C 
ATOM     91  H   UNL     1     149.592 171.226 190.537  0.00  0.00    +0.071 HD
ATOM     92  H   UNL     1     148.595 172.310 194.285  0.00  0.00    +0.056 HD
ATOM     93  H   UNL     1     150.159 172.817 193.613  0.00  0.00    +0.056 HD
ATOM     94  H   UNL     1     148.762 174.604 192.797  0.00  0.00    +0.029 HD
ATOM     95  H   UNL     1     147.370 173.521 192.639  0.00  0.00    +0.029 HD
ATOM     96  H   UNL     1     149.871 173.548 190.920  0.00  0.00    +0.030 HD
ATOM     97  H   UNL     1     148.189 173.618 190.367  0.00  0.00    +0.030 HD
ENDBRANCH  85  86
ENDBRANCH  83  85
ENDBRANCH  50  83
ENDBRANCH   1  50
TORSDOF 31
ENDMDL
MODEL 8
REMARK VINA RESULT:      -5.0      2.331      6.336
REMARK  Name = 2u_conf1
REMARK  31 active torsions:
REMARK  status: ('A' for Active; 'I' for Inactive)
REMARK    1  A    between atoms: C_2  and  C_3
REMARK    2  A    between atoms: C_2  and  O_8
REMARK    3  A    between atoms: O_8  and  C_9
REMARK    4  A    between atoms: C_9  and  C_10
REMARK    5  A    between atoms: C_9  and  C_29
REMARK    6  A    between atoms: C_10  and  C_11
REMARK    7  A    between atoms: C_11  and  C_12
REMARK    8  A    between atoms: C_12  and  C_13
REMARK    9  A    between atoms: C_12  and  C_14
REMARK   10  A    between atoms: C_14  and  O_15
REMARK   11  A    between atoms: C_14  and  C_17
REMARK   12  A    between atoms: O_15  and  C_16
REMARK   13  A    between atoms: C_17  and  C_18
REMARK   14  A    between atoms: C_18  and  O_19
REMARK   15  A    between atoms: C_18  and  C_26
REMARK   16  A    between atoms: O_19  and  C_20
REMARK   17  A    between atoms: C_20  and  C_21
REMARK   18  A    between atoms: C_21  and  C_22
REMARK   19  A    between atoms: C_22  and  C_23
REMARK   20  A    between atoms: C_23  and  N_24
REMARK   21  A    between atoms: C_26  and  C_27
REMARK   22  A    between atoms: C_26  and  C_28
REMARK   23  A    between atoms: C_29  and  C_30
REMARK   24  A    between atoms: C_29  and  C_31
REMARK   25  A    between atoms: C_31  and  O_32
REMARK   26  A    between atoms: C_31  and  C_34
REMARK   27  A    between atoms: O_32  and  C_33
REMARK   28  A    between atoms: C_34  and  C_35
REMARK   29  A    between atoms: C_34  and  C_36
REMARK   30  A    between atoms: C_37  and  N_38
REMARK   31  A    between atoms: N_38  and  C_39
REMARK                            x       y       z     vdW  Elec       q    Type
REMARK                         _______ _______ _______ _____ _____    ______ ____
ROOT
ATOM      1  C   UNL     1     147.479 169.357 189.592  0.00  0.00    -0.015 C 
ATOM      2  H   UNL     1     148.373 169.935 189.366  0.00  0.00    +0.030 HD
ATOM      3  H   UNL     1     147.191 168.889 188.643  0.00  0.00    +0.030 HD
ENDROOT
BRANCH   1   4
ATOM      4  C   UNL     1     147.893 168.271 190.601  0.00  0.00    -0.045 C 
ATOM      5  H   UNL     1     147.101 168.183 191.356  0.00  0.00    +0.027 HD
ATOM      6  H   UNL     1     148.778 168.621 191.145  0.00  0.00    +0.027 HD
BRANCH   4   7
ATOM      7  C   UNL     1     148.175 166.875 190.000  0.00  0.00    -0.017 C 
ATOM      8  H   UNL     1     147.767 166.853 188.982  0.00  0.00    +0.032 HD
BRANCH   7   9
ATOM      9  C   UNL     1     147.396 165.830 190.815  0.00  0.00    -0.060 C 
ATOM     10  H   UNL     1     146.968 165.069 190.152  0.00  0.00    +0.023 HD
ATOM     11  H   UNL     1     148.045 165.307 191.522  0.00  0.00    +0.023 HD
ATOM     12  H   UNL     1     146.572 166.285 191.374  0.00  0.00    +0.023 HD
ENDBRANCH   7   9
BRANCH   7  13
ATOM     13  C   UNL     1     149.693 166.555 189.919  0.00  0.00    +0.064 C 
ATOM     14  H   UNL     1     149.849 165.508 190.201  0.00  0.00    +0.060 HD
BRANCH  13  15
ATOM     15  C   UNL     1     150.508 167.442 190.880  0.00  0.00    +0.011 C 
ATOM     16  H   UNL     1     149.828 168.168 191.339  0.00  0.00    +0.033 HD
ATOM     17  H   UNL     1     151.277 167.987 190.322  0.00  0.00    +0.033 HD
BRANCH  15  18
ATOM     18  C   UNL     1     151.200 166.623 191.989  0.00  0.00    +0.108 C 
ATOM     19  H   UNL     1     150.933 165.567 191.853  0.00  0.00    +0.074 HD
BRANCH  18  20
ATOM     20  C   UNL     1     152.742 166.763 191.917  0.00  0.00    -0.009 C 
ATOM     21  H   UNL     1     152.974 167.655 191.319  0.00  0.00    +0.033 HD
BRANCH  20  22
ATOM     22  C   UNL     1     153.402 166.928 193.289  0.00  0.00    -0.059 C 
ATOM     23  H   UNL     1     154.220 166.213 193.434  0.00  0.00    +0.023 HD
ATOM     24  H   UNL     1     153.822 167.936 193.394  0.00  0.00    +0.023 HD
ATOM     25  H   UNL     1     152.680 166.791 194.099  0.00  0.00    +0.023 HD
ENDBRANCH  20  22
BRANCH  20  26
ATOM     26  C   UNL     1     153.376 165.575 191.190  0.00  0.00    -0.059 C 
ATOM     27  H   UNL     1     153.498 165.770 190.121  0.00  0.00    +0.023 HD
ATOM     28  H   UNL     1     154.361 165.341 191.611  0.00  0.00    +0.023 HD
ATOM     29  H   UNL     1     152.753 164.681 191.295  0.00  0.00    +0.023 HD
ENDBRANCH  20  26
ENDBRANCH  18  20
BRANCH  18  30
ATOM     30  O   UNL     1     150.702 167.128 193.249  0.00  0.00    -0.461 OA
BRANCH  30  31
ATOM     31  C   UNL     1     149.743 166.407 193.891  0.00  0.00    +0.307 C 
ATOM     32  O   UNL     1     148.583 166.755 194.059  0.00  0.00    -0.251 OA
BRANCH  31  33
ATOM     33  C   UNL     1     150.362 165.161 194.485  0.00  0.00    +0.046 C 
ATOM     34  H   UNL     1     149.716 164.296 194.302  0.00  0.00    +0.038 HD
ATOM     35  H   UNL     1     151.301 164.996 193.942  0.00  0.00    +0.038 HD
BRANCH  33  36
ATOM     36  C   UNL     1     150.656 165.292 195.981  0.00  0.00    -0.031 C 
ATOM     37  H   UNL     1     149.870 165.868 196.484  0.00  0.00    +0.028 HD
ATOM     38  H   UNL     1     151.586 165.862 196.101  0.00  0.00    +0.028 HD
BRANCH  36  39
ATOM     39  C   UNL     1     150.843 163.947 196.683  0.00  0.00    -0.006 C 
ATOM     40  H   UNL     1     149.957 163.729 197.291  0.00  0.00    +0.042 HD
ATOM     41  H   UNL     1     151.700 164.003 197.365  0.00  0.00    +0.042 HD
BRANCH  39  42
ATOM     42  N   UNL     1     151.059 162.860 195.742  0.00  0.00    -0.330 NA
ATOM     43  H   UNL     1     151.053 161.963 196.234  0.00  0.00    +0.118 HD
ATOM     44  H   UNL     1     151.983 162.949 195.319  0.00  0.00    +0.118 HD
ENDBRANCH  39  42
ENDBRANCH  36  39
ENDBRANCH  33  36
ENDBRANCH  31  33
ENDBRANCH  30  31
ENDBRANCH  18  30
ENDBRANCH  15  18
ENDBRANCH  13  15
BRANCH  13  45
ATOM     45  O   UNL     1     150.157 166.797 188.585  0.00  0.00    -0.379 OA
BRANCH  45  46
ATOM     46  C   UNL     1     149.744 165.812 187.649  0.00  0.00    +0.037 C 
ATOM     47  H   UNL     1     148.737 166.024 187.282  0.00  0.00    +0.052 HD
ATOM     48  H   UNL     1     150.445 165.755 186.812  0.00  0.00    +0.052 HD
ATOM     49  H   UNL     1     149.731 164.843 188.155  0.00  0.00    +0.052 HD
ENDBRANCH  45  46
ENDBRANCH  13  45
ENDBRANCH   7  13
ENDBRANCH   4   7
ENDBRANCH   1   4
BRANCH   1  50
ATOM     50  C   UNL     1     146.355 170.290 190.074  0.00  0.00    +0.108 C 
ATOM     51  H   UNL     1     146.217 170.044 191.136  0.00  0.00    +0.074 HD
BRANCH  50  52
ATOM     52  C   UNL     1     144.975 170.092 189.388  0.00  0.00    +0.020 C 
ATOM     53  H   UNL     1     144.992 170.842 188.583  0.00  0.00    +0.036 HD
BRANCH  52  54
ATOM     54  C   UNL     1     143.809 170.555 190.269  0.00  0.00    -0.057 C 
ATOM     55  H   UNL     1     142.934 170.819 189.669  0.00  0.00    +0.023 HD
ATOM     56  H   UNL     1     144.095 171.452 190.831  0.00  0.00    +0.023 HD
ATOM     57  H   UNL     1     143.503 169.801 190.997  0.00  0.00    +0.023 HD
ENDBRANCH  52  54
BRANCH  52  58
ATOM     58  C   UNL     1     144.727 168.755 188.618  0.00  0.00    +0.070 C 
ATOM     59  H   UNL     1     145.707 168.295 188.434  0.00  0.00    +0.061 HD
BRANCH  58  60
ATOM     60  C   UNL     1     143.828 167.624 189.219  0.00  0.00    +0.002 C 
ATOM     61  H   UNL     1     144.214 166.696 188.769  0.00  0.00    +0.037 HD
BRANCH  60  62
ATOM     62  C   UNL     1     142.370 167.675 188.755  0.00  0.00    -0.057 C 
ATOM     63  H   UNL     1     142.047 168.713 188.615  0.00  0.00    +0.024 HD
ATOM     64  H   UNL     1     141.698 167.233 189.497  0.00  0.00    +0.024 HD
ATOM     65  H   UNL     1     142.215 167.164 187.804  0.00  0.00    +0.024 HD
ENDBRANCH  60  62
BRANCH  60  66
ATOM     66  C   UNL     1     144.040 167.407 190.707  0.00  0.00    -0.065 C 
ATOM     67  C   UNL     1     143.445 166.494 191.491  0.00  0.00    -0.005 C 
ATOM     68  H   UNL     1     144.785 168.070 191.140  0.00  0.00    +0.059 HD
ATOM     69  H   UNL     1     142.719 165.807 191.061  0.00  0.00    +0.078 HD
BRANCH  67  70
ATOM     70  N   UNL     1     143.652 166.345 192.856  0.00  0.00    -0.284 N 
ATOM     71  C   UNL     1     144.827 165.773 193.335  0.00  0.00    +0.206 C 
ATOM     72  O   UNL     1     145.120 165.577 194.507  0.00  0.00    -0.279 OA
ATOM     73  H   UNL     1     145.525 165.486 192.529  0.00  0.00    +0.126 HD
BRANCH  70  74
ATOM     74  C   UNL     1     142.651 166.758 193.829  0.00  0.00    +0.007 C 
ATOM     75  H   UNL     1     142.557 167.847 193.879  0.00  0.00    +0.043 HD
ATOM     76  H   UNL     1     142.940 166.396 194.821  0.00  0.00    +0.043 HD
ATOM     77  H   UNL     1     141.677 166.346 193.544  0.00  0.00    +0.043 HD
ENDBRANCH  70  74
ENDBRANCH  67  70
ENDBRANCH  60  66
ENDBRANCH  58  60
BRANCH  58  78
ATOM     78  O   UNL     1     144.154 169.046 187.317  0.00  0.00    -0.379 OA
BRANCH  78  79
ATOM     79  C   UNL     1     144.786 170.121 186.630  0.00  0.00    +0.037 C 
ATOM     80  H   UNL     1     144.179 171.028 186.668  0.00  0.00    +0.052 HD
ATOM     81  H   UNL     1     144.898 169.833 185.581  0.00  0.00    +0.052 HD
ATOM     82  H   UNL     1     145.783 170.314 187.040  0.00  0.00    +0.052 HD
ENDBRANCH  78  79
ENDBRANCH  58  78
ENDBRANCH  52  58
ENDBRANCH  50  52
BRANCH  50  83
ATOM     83  O   UNL     1     146.790 171.661 189.966  0.00  0.00    -0.459 OA
BRANCH  83  85
ATOM     84  O   UNL     1     146.239 172.553 192.008  0.00  0.00    -0.248 OA
ATOM     85  C   UNL     1     147.066 172.304 191.142  0.00  0.00    +0.337 C 
BRANCH  85  86
ATOM     86  C   UNL     1     148.557 172.663 191.199  0.00  0.00    +0.155 C 
ATOM     87  O   UNL     1     149.393 171.496 191.246  0.00  0.00    -0.365 OA
ATOM     88  C   UNL     1     149.965 171.383 192.555  0.00  0.00    +0.049 C 
ATOM     89  C   UNL     1     149.253 172.383 193.436  0.00  0.00    -0.027 C 
ATOM     90  C   UNL     1     148.877 173.462 192.451  0.00  0.00    -0.014 C 
ATOM     91  H   UNL     1     148.801 173.213 190.284  0.00  0.00    +0.071 HD
ATOM     92  H   UNL     1     149.864 170.356 192.916  0.00  0.00    +0.056 HD
ATOM     93  H   UNL     1     151.033 171.620 192.474  0.00  0.00    +0.056 HD
ATOM     94  H   UNL     1     149.870 172.741 194.264  0.00  0.00    +0.029 HD
ATOM     95  H   UNL     1     148.347 171.932 193.858  0.00  0.00    +0.029 HD
ATOM     96  H   UNL     1     149.747 174.104 192.265  0.00  0.00    +0.030 HD
ATOM     97  H   UNL     1     148.062 174.093 192.813  0.00  0.00    +0.030 HD
ENDBRANCH  85  86
ENDBRANCH  83  85
ENDBRANCH  50  83
ENDBRANCH   1  50
TORSDOF 31
ENDMDL
MODEL 9
REMARK VINA RESULT:      -5.0      3.080      6.278
REMARK  Name = 2u_conf1
REMARK  31 active torsions:
REMARK  status: ('A' for Active; 'I' for Inactive)
REMARK    1  A    between atoms: C_2  and  C_3
REMARK    2  A    between atoms: C_2  and  O_8
REMARK    3  A    between atoms: O_8  and  C_9
REMARK    4  A    between atoms: C_9  and  C_10
REMARK    5  A    between atoms: C_9  and  C_29
REMARK    6  A    between atoms: C_10  and  C_11
REMARK    7  A    between atoms: C_11  and  C_12
REMARK    8  A    between atoms: C_12  and  C_13
REMARK    9  A    between atoms: C_12  and  C_14
REMARK   10  A    between atoms: C_14  and  O_15
REMARK   11  A    between atoms: C_14  and  C_17
REMARK   12  A    between atoms: O_15  and  C_16
REMARK   13  A    between atoms: C_17  and  C_18
REMARK   14  A    between atoms: C_18  and  O_19
REMARK   15  A    between atoms: C_18  and  C_26
REMARK   16  A    between atoms: O_19  and  C_20
REMARK   17  A    between atoms: C_20  and  C_21
REMARK   18  A    between atoms: C_21  and  C_22
REMARK   19  A    between atoms: C_22  and  C_23
REMARK   20  A    between atoms: C_23  and  N_24
REMARK   21  A    between atoms: C_26  and  C_27
REMARK   22  A    between atoms: C_26  and  C_28
REMARK   23  A    between atoms: C_29  and  C_30
REMARK   24  A    between atoms: C_29  and  C_31
REMARK   25  A    between atoms: C_31  and  O_32
REMARK   26  A    between atoms: C_31  and  C_34
REMARK   27  A    between atoms: O_32  and  C_33
REMARK   28  A    between atoms: C_34  and  C_35
REMARK   29  A    between atoms: C_34  and  C_36
REMARK   30  A    between atoms: C_37  and  N_38
REMARK   31  A    between atoms: N_38  and  C_39
REMARK                            x       y       z     vdW  Elec       q    Type
REMARK                         _______ _______ _______ _____ _____    ______ ____
ROOT
ATOM      1  C   UNL     1     147.803 168.596 191.225  0.00  0.00    -0.015 C 
ATOM      2  H   UNL     1     147.476 168.433 192.250  0.00  0.00    +0.030 HD
ATOM      3  H   UNL     1     148.756 169.130 191.308  0.00  0.00    +0.030 HD
ENDROOT
BRANCH   1   4
ATOM      4  C   UNL     1     148.039 167.207 190.606  0.00  0.00    -0.045 C 
ATOM      5  H   UNL     1     149.107 167.110 190.374  0.00  0.00    +0.027 HD
ATOM      6  H   UNL     1     147.524 167.166 189.638  0.00  0.00    +0.027 HD
BRANCH   4   7
ATOM      7  C   UNL     1     147.600 166.006 191.474  0.00  0.00    -0.017 C 
ATOM      8  H   UNL     1     148.400 165.256 191.449  0.00  0.00    +0.032 HD
BRANCH   7   9
ATOM      9  C   UNL     1     146.365 165.362 190.823  0.00  0.00    -0.060 C 
ATOM     10  H   UNL     1     145.898 164.647 191.510  0.00  0.00    +0.023 HD
ATOM     11  H   UNL     1     145.606 166.109 190.576  0.00  0.00    +0.023 HD
ATOM     12  H   UNL     1     146.627 164.821 189.907  0.00  0.00    +0.023 HD
ENDBRANCH   7   9
BRANCH   7  13
ATOM     13  C   UNL     1     147.353 166.399 192.957  0.00  0.00    +0.064 C 
ATOM     14  H   UNL     1     147.641 167.447 193.096  0.00  0.00    +0.060 HD
BRANCH  13  15
ATOM     15  C   UNL     1     148.192 165.534 193.917  0.00  0.00    +0.011 C 
ATOM     16  H   UNL     1     148.432 164.592 193.412  0.00  0.00    +0.033 HD
ATOM     17  H   UNL     1     147.613 165.310 194.819  0.00  0.00    +0.033 HD
BRANCH  15  18
ATOM     18  C   UNL     1     149.502 166.232 194.341  0.00  0.00    +0.108 C 
ATOM     19  H   UNL     1     149.396 167.306 194.149  0.00  0.00    +0.074 HD
BRANCH  18  20
ATOM     20  C   UNL     1     149.794 166.017 195.848  0.00  0.00    -0.009 C 
ATOM     21  H   UNL     1     150.398 166.864 196.200  0.00  0.00    +0.033 HD
BRANCH  20  22
ATOM     22  C   UNL     1     148.529 165.947 196.709  0.00  0.00    -0.059 C 
ATOM     23  H   UNL     1     148.755 166.076 197.774  0.00  0.00    +0.023 HD
ATOM     24  H   UNL     1     147.826 166.739 196.422  0.00  0.00    +0.023 HD
ATOM     25  H   UNL     1     148.011 164.992 196.582  0.00  0.00    +0.023 HD
ENDBRANCH  20  22
BRANCH  20  26
ATOM     26  C   UNL     1     150.632 164.757 196.079  0.00  0.00    -0.059 C 
ATOM     27  H   UNL     1     150.530 164.383 197.101  0.00  0.00    +0.023 HD
ATOM     28  H   UNL     1     150.334 163.959 195.389  0.00  0.00    +0.023 HD
ATOM     29  H   UNL     1     151.693 164.963 195.905  0.00  0.00    +0.023 HD
ENDBRANCH  20  26
ENDBRANCH  18  20
BRANCH  18  30
ATOM     30  O   UNL     1     150.555 165.660 193.533  0.00  0.00    -0.461 OA
BRANCH  30  31
ATOM     31  C   UNL     1     151.152 166.457 192.605  0.00  0.00    +0.307 C 
ATOM     32  O   UNL     1     151.032 167.671 192.526  0.00  0.00    -0.251 OA
BRANCH  31  33
ATOM     33  C   UNL     1     151.888 165.597 191.601  0.00  0.00    +0.046 C 
ATOM     34  H   UNL     1     152.126 164.624 192.042  0.00  0.00    +0.038 HD
ATOM     35  H   UNL     1     151.189 165.426 190.773  0.00  0.00    +0.038 HD
BRANCH  33  36
ATOM     36  C   UNL     1     153.159 166.257 191.065  0.00  0.00    -0.031 C 
ATOM     37  H   UNL     1     154.006 165.560 191.100  0.00  0.00    +0.028 HD
ATOM     38  H   UNL     1     153.417 167.096 191.723  0.00  0.00    +0.028 HD
BRANCH  36  39
ATOM     39  C   UNL     1     153.005 166.811 189.647  0.00  0.00    -0.006 C 
ATOM     40  H   UNL     1     152.525 166.055 189.014  0.00  0.00    +0.042 HD
ATOM     41  H   UNL     1     153.995 167.012 189.220  0.00  0.00    +0.042 HD
BRANCH  39  42
ATOM     42  N   UNL     1     152.220 168.034 189.616  0.00  0.00    -0.330 NA
ATOM     43  H   UNL     1     151.268 167.849 189.943  0.00  0.00    +0.118 HD
ATOM     44  H   UNL     1     152.134 168.364 188.655  0.00  0.00    +0.118 HD
ENDBRANCH  39  42
ENDBRANCH  36  39
ENDBRANCH  33  36
ENDBRANCH  31  33
ENDBRANCH  30  31
ENDBRANCH  18  30
ENDBRANCH  15  18
ENDBRANCH  13  15
BRANCH  13  45
ATOM     45  O   UNL     1     145.969 166.206 193.274  0.00  0.00    -0.379 OA
BRANCH  45  46
ATOM     46  C   UNL     1     145.751 165.361 194.394  0.00  0.00    +0.037 C 
ATOM     47  H   UNL     1     146.650 165.297 195.012  0.00  0.00    +0.052 HD
ATOM     48  H   UNL     1     144.909 165.720 194.992  0.00  0.00    +0.052 HD
ATOM     49  H   UNL     1     145.512 164.360 194.026  0.00  0.00    +0.052 HD
ENDBRANCH  45  46
ENDBRANCH  13  45
ENDBRANCH   7  13
ENDBRANCH   4   7
ENDBRANCH   1   4
BRANCH   1  50
ATOM     50  C   UNL     1     146.780 169.469 190.479  0.00  0.00    +0.108 C 
ATOM     51  H   UNL     1     145.995 169.684 191.218  0.00  0.00    +0.074 HD
BRANCH  50  52
ATOM     52  C   UNL     1     146.078 168.797 189.266  0.00  0.00    +0.020 C 
ATOM     53  H   UNL     1     146.677 167.887 189.111  0.00  0.00    +0.036 HD
BRANCH  52  54
ATOM     54  C   UNL     1     146.284 169.575 187.962  0.00  0.00    -0.057 C 
ATOM     55  H   UNL     1     145.386 170.134 187.683  0.00  0.00    +0.023 HD
ATOM     56  H   UNL     1     146.499 168.882 187.140  0.00  0.00    +0.023 HD
ATOM     57  H   UNL     1     147.117 170.280 188.017  0.00  0.00    +0.023 HD
ENDBRANCH  52  54
BRANCH  52  58
ATOM     58  C   UNL     1     144.635 168.236 189.477  0.00  0.00    +0.070 C 
ATOM     59  H   UNL     1     144.699 167.140 189.436  0.00  0.00    +0.061 HD
BRANCH  58  60
ATOM     60  C   UNL     1     143.811 168.571 190.763  0.00  0.00    +0.002 C 
ATOM     61  H   UNL     1     144.558 168.944 191.481  0.00  0.00    +0.037 HD
BRANCH  60  62
ATOM     62  C   UNL     1     143.219 167.343 191.461  0.00  0.00    -0.057 C 
ATOM     63  H   UNL     1     143.674 167.206 192.449  0.00  0.00    +0.024 HD
ATOM     64  H   UNL     1     143.414 166.427 190.894  0.00  0.00    +0.024 HD
ATOM     65  H   UNL     1     142.142 167.428 191.616  0.00  0.00    +0.024 HD
ENDBRANCH  60  62
BRANCH  60  66
ATOM     66  C   UNL     1     142.868 169.750 190.591  0.00  0.00    -0.065 C 
ATOM     67  C   UNL     1     143.105 171.034 190.902  0.00  0.00    -0.005 C 
ATOM     68  H   UNL     1     141.918 169.482 190.138  0.00  0.00    +0.059 HD
ATOM     69  H   UNL     1     144.065 171.317 191.329  0.00  0.00    +0.078 HD
BRANCH  67  70
ATOM     70  N   UNL     1     142.204 172.079 190.748  0.00  0.00    -0.284 N 
ATOM     71  C   UNL     1     141.945 172.952 191.802  0.00  0.00    +0.206 C 
ATOM     72  O   UNL     1     141.169 173.898 191.794  0.00  0.00    -0.279 OA
ATOM     73  H   UNL     1     142.529 172.715 192.708  0.00  0.00    +0.126 HD
BRANCH  70  74
ATOM     74  C   UNL     1     141.485 172.290 189.500  0.00  0.00    +0.007 C 
ATOM     75  H   UNL     1     140.571 172.873 189.649  0.00  0.00    +0.043 HD
ATOM     76  H   UNL     1     141.204 171.321 189.075  0.00  0.00    +0.043 HD
ATOM     77  H   UNL     1     142.127 172.838 188.801  0.00  0.00    +0.043 HD
ENDBRANCH  70  74
ENDBRANCH  67  70
ENDBRANCH  60  66
ENDBRANCH  58  60
BRANCH  58  78
ATOM     78  O   UNL     1     143.792 168.644 188.368  0.00  0.00    -0.379 OA
BRANCH  78  79
ATOM     79  C   UNL     1     143.205 167.561 187.654  0.00  0.00    +0.037 C 
ATOM     80  H   UNL     1     142.505 167.919 186.896  0.00  0.00    +0.052 HD
ATOM     81  H   UNL     1     142.646 166.949 188.367  0.00  0.00    +0.052 HD
ATOM     82  H   UNL     1     143.974 166.933 187.193  0.00  0.00    +0.052 HD
ENDBRANCH  78  79
ENDBRANCH  58  78
ENDBRANCH  52  58
ENDBRANCH  50  52
BRANCH  50  83
ATOM     83  O   UNL     1     147.402 170.710 190.088  0.00  0.00    -0.459 OA
BRANCH  83  85
ATOM     84  O   UNL     1     146.257 172.102 191.508  0.00  0.00    -0.248 OA
ATOM     85  C   UNL     1     147.299 171.746 190.975  0.00  0.00    +0.337 C 
BRANCH  85  86
ATOM     86  C   UNL     1     148.677 172.386 191.188  0.00  0.00    +0.155 C 
ATOM     87  O   UNL     1     149.700 171.405 191.416  0.00  0.00    -0.365 OA
ATOM     88  C   UNL     1     150.105 171.461 192.789  0.00  0.00    +0.049 C 
ATOM     89  C   UNL     1     149.111 172.344 193.507  0.00  0.00    -0.027 C 
ATOM     90  C   UNL     1     148.676 173.286 192.412  0.00  0.00    -0.014 C 
ATOM     91  H   UNL     1     148.934 172.933 190.275  0.00  0.00    +0.071 HD
ATOM     92  H   UNL     1     150.149 170.450 193.204  0.00  0.00    +0.056 HD
ATOM     93  H   UNL     1     151.112 171.894 192.823  0.00  0.00    +0.056 HD
ATOM     94  H   UNL     1     149.536 172.849 194.378  0.00  0.00    +0.029 HD
ATOM     95  H   UNL     1     148.256 171.747 193.846  0.00  0.00    +0.029 HD
ATOM     96  H   UNL     1     149.430 174.074 192.291  0.00  0.00    +0.030 HD
ATOM     97  H   UNL     1     147.718 173.765 192.629  0.00  0.00    +0.030 HD
ENDBRANCH  85  86
ENDBRANCH  83  85
ENDBRANCH  50  83
ENDBRANCH   1  50
TORSDOF 31
ENDMDL
MODEL 10
REMARK VINA RESULT:      -5.0      3.197      6.650
REMARK  Name = 2u_conf1
REMARK  31 active torsions:
REMARK  status: ('A' for Active; 'I' for Inactive)
REMARK    1  A    between atoms: C_2  and  C_3
REMARK    2  A    between atoms: C_2  and  O_8
REMARK    3  A    between atoms: O_8  and  C_9
REMARK    4  A    between atoms: C_9  and  C_10
REMARK    5  A    between atoms: C_9  and  C_29
REMARK    6  A    between atoms: C_10  and  C_11
REMARK    7  A    between atoms: C_11  and  C_12
REMARK    8  A    between atoms: C_12  and  C_13
REMARK    9  A    between atoms: C_12  and  C_14
REMARK   10  A    between atoms: C_14  and  O_15
REMARK   11  A    between atoms: C_14  and  C_17
REMARK   12  A    between atoms: O_15  and  C_16
REMARK   13  A    between atoms: C_17  and  C_18
REMARK   14  A    between atoms: C_18  and  O_19
REMARK   15  A    between atoms: C_18  and  C_26
REMARK   16  A    between atoms: O_19  and  C_20
REMARK   17  A    between atoms: C_20  and  C_21
REMARK   18  A    between atoms: C_21  and  C_22
REMARK   19  A    between atoms: C_22  and  C_23
REMARK   20  A    between atoms: C_23  and  N_24
REMARK   21  A    between atoms: C_26  and  C_27
REMARK   22  A    between atoms: C_26  and  C_28
REMARK   23  A    between atoms: C_29  and  C_30
REMARK   24  A    between atoms: C_29  and  C_31
REMARK   25  A    between atoms: C_31  and  O_32
REMARK   26  A    between atoms: C_31  and  C_34
REMARK   27  A    between atoms: O_32  and  C_33
REMARK   28  A    between atoms: C_34  and  C_35
REMARK   29  A    between atoms: C_34  and  C_36
REMARK   30  A    between atoms: C_37  and  N_38
REMARK   31  A    between atoms: N_38  and  C_39
REMARK                            x       y       z     vdW  Elec       q    Type
REMARK                         _______ _______ _______ _____ _____    ______ ____
ROOT
ATOM      1  C   UNL     1     146.586 169.761 189.326  0.00  0.00    -0.015 C 
ATOM      2  H   UNL     1     147.649 169.881 189.524  0.00  0.00    +0.030 HD
ATOM      3  H   UNL     1     146.510 169.597 188.245  0.00  0.00    +0.030 HD
ENDROOT
BRANCH   1   4
ATOM      4  C   UNL     1     146.133 168.495 190.075  0.00  0.00    -0.045 C 
ATOM      5  H   UNL     1     145.107 168.261 189.766  0.00  0.00    +0.027 HD
ATOM      6  H   UNL     1     146.070 168.729 191.145  0.00  0.00    +0.027 HD
BRANCH   4   7
ATOM      7  C   UNL     1     147.020 167.246 189.871  0.00  0.00    -0.017 C 
ATOM      8  H   UNL     1     147.612 167.393 188.960  0.00  0.00    +0.032 HD
BRANCH   7   9
ATOM      9  C   UNL     1     146.104 166.038 189.618  0.00  0.00    -0.060 C 
ATOM     10  H   UNL     1     146.563 165.354 188.894  0.00  0.00    +0.023 HD
ATOM     11  H   UNL     1     145.933 165.464 190.533  0.00  0.00    +0.023 HD
ATOM     12  H   UNL     1     145.132 166.344 189.216  0.00  0.00    +0.023 HD
ENDBRANCH   7   9
BRANCH   7  13
ATOM     13  C   UNL     1     148.001 167.011 191.053  0.00  0.00    +0.064 C 
ATOM     14  H   UNL     1     148.110 165.932 191.212  0.00  0.00    +0.060 HD
BRANCH  13  15
ATOM     15  C   UNL     1     147.476 167.643 192.356  0.00  0.00    +0.011 C 
ATOM     16  H   UNL     1     146.451 167.988 192.183  0.00  0.00    +0.033 HD
ATOM     17  H   UNL     1     148.094 168.506 192.627  0.00  0.00    +0.033 HD
BRANCH  15  18
ATOM     18  C   UNL     1     147.485 166.648 193.535  0.00  0.00    +0.108 C 
ATOM     19  H   UNL     1     147.516 167.223 194.469  0.00  0.00    +0.074 HD
BRANCH  18  20
ATOM     20  C   UNL     1     146.217 165.758 193.534  0.00  0.00    -0.009 C 
ATOM     21  H   UNL     1     146.350 164.979 192.772  0.00  0.00    +0.033 HD
BRANCH  20  22
ATOM     22  C   UNL     1     145.957 165.069 194.877  0.00  0.00    -0.059 C 
ATOM     23  H   UNL     1     146.675 165.387 195.642  0.00  0.00    +0.023 HD
ATOM     24  H   UNL     1     144.953 165.312 195.245  0.00  0.00    +0.023 HD
ATOM     25  H   UNL     1     146.014 163.981 194.786  0.00  0.00    +0.023 HD
ENDBRANCH  20  22
BRANCH  20  26
ATOM     26  C   UNL     1     144.976 166.558 193.128  0.00  0.00    -0.059 C 
ATOM     27  H   UNL     1     144.161 165.906 192.802  0.00  0.00    +0.023 HD
ATOM     28  H   UNL     1     144.615 167.168 193.964  0.00  0.00    +0.023 HD
ATOM     29  H   UNL     1     145.209 167.237 192.301  0.00  0.00    +0.023 HD
ENDBRANCH  20  26
ENDBRANCH  18  20
BRANCH  18  30
ATOM     30  O   UNL     1     148.674 165.839 193.384  0.00  0.00    -0.461 OA
BRANCH  30  31
ATOM     31  C   UNL     1     149.787 166.204 194.077  0.00  0.00    +0.307 C 
ATOM     32  O   UNL     1     150.676 166.935 193.663  0.00  0.00    -0.251 OA
BRANCH  31  33
ATOM     33  C   UNL     1     149.826 165.461 195.394  0.00  0.00    +0.046 C 
ATOM     34  H   UNL     1     149.801 166.172 196.227  0.00  0.00    +0.038 HD
ATOM     35  H   UNL     1     148.907 164.865 195.438  0.00  0.00    +0.038 HD
BRANCH  33  36
ATOM     36  C   UNL     1     151.038 164.537 195.526  0.00  0.00    -0.031 C 
ATOM     37  H   UNL     1     151.969 165.117 195.562  0.00  0.00    +0.028 HD
ATOM     38  H   UNL     1     151.095 163.911 194.627  0.00  0.00    +0.028 HD
BRANCH  36  39
ATOM     39  C   UNL     1     150.962 163.604 196.735  0.00  0.00    -0.006 C 
ATOM     40  H   UNL     1     150.001 163.747 197.243  0.00  0.00    +0.042 HD
ATOM     41  H   UNL     1     151.750 163.865 197.452  0.00  0.00    +0.042 HD
BRANCH  39  42
ATOM     42  N   UNL     1     151.107 162.207 196.363  0.00  0.00    -0.330 NA
ATOM     43  H   UNL     1     150.272 161.682 196.636  0.00  0.00    +0.118 HD
ATOM     44  H   UNL     1     151.886 161.793 196.875  0.00  0.00    +0.118 HD
ENDBRANCH  39  42
ENDBRANCH  36  39
ENDBRANCH  33  36
ENDBRANCH  31  33
ENDBRANCH  30  31
ENDBRANCH  18  30
ENDBRANCH  15  18
ENDBRANCH  13  15
BRANCH  13  45
ATOM     45  O   UNL     1     149.266 167.608 190.743  0.00  0.00    -0.379 OA
BRANCH  45  46
ATOM     46  C   UNL     1     150.197 166.708 190.161  0.00  0.00    +0.037 C 
ATOM     47  H   UNL     1     151.219 167.072 190.286  0.00  0.00    +0.052 HD
ATOM     48  H   UNL     1     150.097 165.711 190.599  0.00  0.00    +0.052 HD
ATOM     49  H   UNL     1     149.982 166.639 189.091  0.00  0.00    +0.052 HD
ENDBRANCH  45  46
ENDBRANCH  13  45
ENDBRANCH   7  13
ENDBRANCH   4   7
ENDBRANCH   1   4
BRANCH   1  50
ATOM     50  C   UNL     1     145.830 171.044 189.711  0.00  0.00    +0.108 C 
ATOM     51  H   UNL     1     145.378 170.825 190.689  0.00  0.00    +0.074 HD
BRANCH  50  52
ATOM     52  C   UNL     1     144.667 171.450 188.763  0.00  0.00    +0.020 C 
ATOM     53  H   UNL     1     144.555 170.564 188.121  0.00  0.00    +0.036 HD
BRANCH  52  54
ATOM     54  C   UNL     1     145.072 172.548 187.773  0.00  0.00    -0.057 C 
ATOM     55  H   UNL     1     145.570 173.380 188.279  0.00  0.00    +0.023 HD
ATOM     56  H   UNL     1     144.183 172.958 187.281  0.00  0.00    +0.023 HD
ATOM     57  H   UNL     1     145.738 172.184 186.988  0.00  0.00    +0.023 HD
ENDBRANCH  52  54
BRANCH  52  58
ATOM     58  C   UNL     1     143.243 171.618 189.384  0.00  0.00    +0.070 C 
ATOM     59  H   UNL     1     142.627 170.784 189.022  0.00  0.00    +0.061 HD
BRANCH  58  60
ATOM     60  C   UNL     1     143.031 171.667 190.933  0.00  0.00    +0.002 C 
ATOM     61  H   UNL     1     143.930 171.188 191.351  0.00  0.00    +0.037 HD
BRANCH  60  62
ATOM     62  C   UNL     1     141.883 170.785 191.433  0.00  0.00    -0.057 C 
ATOM     63  H   UNL     1     141.141 170.635 190.641  0.00  0.00    +0.024 HD
ATOM     64  H   UNL     1     141.359 171.248 192.274  0.00  0.00    +0.024 HD
ATOM     65  H   UNL     1     142.221 169.794 191.742  0.00  0.00    +0.024 HD
ENDBRANCH  60  62
BRANCH  60  66
ATOM     66  C   UNL     1     143.082 173.072 191.509  0.00  0.00    -0.065 C 
ATOM     67  C   UNL     1     142.125 173.701 192.209  0.00  0.00    -0.005 C 
ATOM     68  H   UNL     1     144.028 173.578 191.332  0.00  0.00    +0.059 HD
ATOM     69  H   UNL     1     141.186 173.192 192.416  0.00  0.00    +0.078 HD
BRANCH  67  70
ATOM     70  N   UNL     1     142.206 174.998 192.698  0.00  0.00    -0.284 N 
ATOM     71  C   UNL     1     142.750 176.016 191.920  0.00  0.00    +0.206 C 
ATOM     72  O   UNL     1     142.886 177.189 192.241  0.00  0.00    -0.279 OA
ATOM     73  H   UNL     1     143.075 175.668 190.924  0.00  0.00    +0.126 HD
BRANCH  70  74
ATOM     74  C   UNL     1     141.748 175.338 194.038  0.00  0.00    +0.007 C 
ATOM     75  H   UNL     1     140.690 175.618 194.048  0.00  0.00    +0.043 HD
ATOM     76  H   UNL     1     142.327 176.187 194.413  0.00  0.00    +0.043 HD
ATOM     77  H   UNL     1     141.876 174.471 194.695  0.00  0.00    +0.043 HD
ENDBRANCH  70  74
ENDBRANCH  67  70
ENDBRANCH  60  66
ENDBRANCH  58  60
BRANCH  58  78
ATOM     78  O   UNL     1     142.636 172.833 188.878  0.00  0.00    -0.379 OA
BRANCH  78  79
ATOM     79  C   UNL     1     141.392 172.631 188.215  0.00  0.00    +0.037 C 
ATOM     80  H   UNL     1     140.739 173.501 188.322  0.00  0.00    +0.052 HD
ATOM     81  H   UNL     1     140.894 171.776 188.681  0.00  0.00    +0.052 HD
ATOM     82  H   UNL     1     141.547 172.401 187.155  0.00  0.00    +0.052 HD
ENDBRANCH  78  79
ENDBRANCH  58  78
ENDBRANCH  52  58
ENDBRANCH  50  52
BRANCH  50  83
ATOM     83  O   UNL     1     146.769 172.127 189.865  0.00  0.00    -0.459 OA
BRANCH  83  85
ATOM     84  O   UNL     1     146.389 172.481 192.100  0.00  0.00    -0.248 OA
ATOM     85  C   UNL     1     147.151 172.421 191.145  0.00  0.00    +0.337 C 
BRANCH  85  86
ATOM     86  C   UNL     1     148.664 172.667 191.192  0.00  0.00    +0.155 C 
ATOM     87  O   UNL     1     149.411 171.440 191.225  0.00  0.00    -0.365 OA
ATOM     88  C   UNL     1     149.983 171.276 192.528  0.00  0.00    +0.049 C 
ATOM     89  C   UNL     1     149.356 172.322 193.421  0.00  0.00    -0.027 C 
ATOM     90  C   UNL     1     149.054 173.432 192.445  0.00  0.00    -0.014 C 
ATOM     91  H   UNL     1     148.942 173.203 190.278  0.00  0.00    +0.071 HD
ATOM     92  H   UNL     1     149.808 170.257 192.884  0.00  0.00    +0.056 HD
ATOM     93  H   UNL     1     151.065 171.433 192.439  0.00  0.00    +0.056 HD
ATOM     94  H   UNL     1     150.005 172.626 194.246  0.00  0.00    +0.029 HD
ATOM     95  H   UNL     1     148.422 171.937 193.849  0.00  0.00    +0.029 HD
ATOM     96  H   UNL     1     149.969 174.008 192.256  0.00  0.00    +0.030 HD
ATOM     97  H   UNL     1     148.292 174.121 192.818  0.00  0.00    +0.030 HD
ENDBRANCH  85  86
ENDBRANCH  83  85
ENDBRANCH  50  83
ENDBRANCH   1  50
TORSDOF 31
ENDMDL
