MODEL 1
REMARK VINA RESULT:      -5.5      0.000      0.000
REMARK  Name = 2u_conf3
REMARK  31 active torsions:
REMARK  status: ('A' for Active; 'I' for Inactive)
REMARK    1  A    between atoms: C_2  and  C_3
REMARK    2  A    between atoms: C_2  and  O_8
REMARK    3  A    between atoms: O_8  and  C_9
REMARK    4  A    between atoms: C_9  and  C_10
REMARK    5  A    between atoms: C_9  and  C_29
REMARK    6  A    between atoms: C_10  and  C_11
REMARK    7  A    between atoms: C_11  and  C_12
REMARK    8  A    between atoms: C_12  and  C_13
REMARK    9  A    between atoms: C_12  and  C_14
REMARK   10  A    between atoms: C_14  and  O_15
REMARK   11  A    between atoms: C_14  and  C_17
REMARK   12  A    between atoms: O_15  and  C_16
REMARK   13  A    between atoms: C_17  and  C_18
REMARK   14  A    between atoms: C_18  and  O_19
REMARK   15  A    between atoms: C_18  and  C_26
REMARK   16  A    between atoms: O_19  and  C_20
REMARK   17  A    between atoms: C_20  and  C_21
REMARK   18  A    between atoms: C_21  and  C_22
REMARK   19  A    between atoms: C_22  and  C_23
REMARK   20  A    between atoms: C_23  and  N_24
REMARK   21  A    between atoms: C_26  and  C_27
REMARK   22  A    between atoms: C_26  and  C_28
REMARK   23  A    between atoms: C_29  and  C_30
REMARK   24  A    between atoms: C_29  and  C_31
REMARK   25  A    between atoms: C_31  and  O_32
REMARK   26  A    between atoms: C_31  and  C_34
REMARK   27  A    between atoms: O_32  and  C_33
REMARK   28  A    between atoms: C_34  and  C_35
REMARK   29  A    between atoms: C_34  and  C_36
REMARK   30  A    between atoms: C_37  and  N_38
REMARK   31  A    between atoms: N_38  and  C_39
REMARK                            x       y       z     vdW  Elec       q    Type
REMARK                         _______ _______ _______ _____ _____    ______ ____
ROOT
ATOM      1  C   UNL     1     150.047 167.718 192.845  0.00  0.00    -0.015 C 
ATOM      2  H   UNL     1     149.996 166.746 193.337  0.00  0.00    +0.030 HD
ATOM      3  H   UNL     1     150.128 168.491 193.612  0.00  0.00    +0.030 HD
ENDROOT
BRANCH   1   4
ATOM      4  C   UNL     1     151.309 167.767 191.966  0.00  0.00    -0.045 C 
ATOM      5  H   UNL     1     152.034 168.431 192.455  0.00  0.00    +0.027 HD
ATOM      6  H   UNL     1     151.092 168.238 191.003  0.00  0.00    +0.027 HD
BRANCH   4   7
ATOM      7  C   UNL     1     151.983 166.400 191.724  0.00  0.00    -0.017 C 
ATOM      8  H   UNL     1     151.191 165.640 191.732  0.00  0.00    +0.032 HD
BRANCH   7   9
ATOM      9  C   UNL     1     152.911 166.121 192.919  0.00  0.00    -0.060 C 
ATOM     10  H   UNL     1     152.912 165.058 193.181  0.00  0.00    +0.023 HD
ATOM     11  H   UNL     1     153.940 166.414 192.688  0.00  0.00    +0.023 HD
ATOM     12  H   UNL     1     152.611 166.692 193.803  0.00  0.00    +0.023 HD
ENDBRANCH   7   9
BRANCH   7  13
ATOM     13  C   UNL     1     152.740 166.289 190.370  0.00  0.00    +0.064 C 
ATOM     14  H   UNL     1     152.394 165.396 189.836  0.00  0.00    +0.060 HD
BRANCH  13  15
ATOM     15  C   UNL     1     154.266 166.158 190.605  0.00  0.00    +0.011 C 
ATOM     16  H   UNL     1     154.436 165.809 191.631  0.00  0.00    +0.033 HD
ATOM     17  H   UNL     1     154.725 167.150 190.523  0.00  0.00    +0.033 HD
BRANCH  15  18
ATOM     18  C   UNL     1     154.957 165.195 189.618  0.00  0.00    +0.108 C 
ATOM     19  H   UNL     1     154.474 165.232 188.635  0.00  0.00    +0.074 HD
BRANCH  18  20
ATOM     20  C   UNL     1     156.478 165.403 189.399  0.00  0.00    -0.009 C 
ATOM     21  H   UNL     1     156.695 166.437 189.709  0.00  0.00    +0.033 HD
BRANCH  20  22
ATOM     22  C   UNL     1     157.347 164.485 190.264  0.00  0.00    -0.059 C 
ATOM     23  H   UNL     1     158.167 164.040 189.690  0.00  0.00    +0.023 HD
ATOM     24  H   UNL     1     156.746 163.682 190.707  0.00  0.00    +0.023 HD
ATOM     25  H   UNL     1     157.791 165.052 191.090  0.00  0.00    +0.023 HD
ENDBRANCH  20  22
BRANCH  20  26
ATOM     26  C   UNL     1     156.905 165.301 187.926  0.00  0.00    -0.059 C 
ATOM     27  H   UNL     1     157.706 166.020 187.715  0.00  0.00    +0.023 HD
ATOM     28  H   UNL     1     156.073 165.530 187.247  0.00  0.00    +0.023 HD
ATOM     29  H   UNL     1     157.285 164.303 187.676  0.00  0.00    +0.023 HD
ENDBRANCH  20  26
ENDBRANCH  18  20
BRANCH  18  30
ATOM     30  O   UNL     1     154.827 163.855 190.161  0.00  0.00    -0.461 OA
BRANCH  30  31
ATOM     31  C   UNL     1     154.159 162.937 189.406  0.00  0.00    +0.307 C 
ATOM     32  O   UNL     1     152.944 162.850 189.303  0.00  0.00    -0.251 OA
BRANCH  31  33
ATOM     33  C   UNL     1     155.153 162.004 188.751  0.00  0.00    +0.046 C 
ATOM     34  H   UNL     1     155.736 162.549 187.995  0.00  0.00    +0.038 HD
ATOM     35  H   UNL     1     155.845 161.669 189.533  0.00  0.00    +0.038 HD
BRANCH  33  36
ATOM     36  C   UNL     1     154.473 160.799 188.101  0.00  0.00    -0.031 C 
ATOM     37  H   UNL     1     155.009 160.503 187.188  0.00  0.00    +0.028 HD
ATOM     38  H   UNL     1     153.457 161.100 187.798  0.00  0.00    +0.028 HD
BRANCH  36  39
ATOM     39  C   UNL     1     154.381 159.615 189.062  0.00  0.00    -0.006 C 
ATOM     40  H   UNL     1     155.101 159.735 189.879  0.00  0.00    +0.042 HD
ATOM     41  H   UNL     1     154.616 158.675 188.552  0.00  0.00    +0.042 HD
BRANCH  39  42
ATOM     42  N   UNL     1     153.040 159.533 189.628  0.00  0.00    -0.330 NA
ATOM     43  H   UNL     1     152.770 158.558 189.712  0.00  0.00    +0.118 HD
ATOM     44  H   UNL     1     152.366 159.978 189.001  0.00  0.00    +0.118 HD
ENDBRANCH  39  42
ENDBRANCH  36  39
ENDBRANCH  33  36
ENDBRANCH  31  33
ENDBRANCH  30  31
ENDBRANCH  18  30
ENDBRANCH  15  18
ENDBRANCH  13  15
BRANCH  13  45
ATOM     45  O   UNL     1     152.534 167.473 189.594  0.00  0.00    -0.379 OA
BRANCH  45  46
ATOM     46  C   UNL     1     152.234 167.231 188.228  0.00  0.00    +0.037 C 
ATOM     47  H   UNL     1     151.841 168.157 187.800  0.00  0.00    +0.052 HD
ATOM     48  H   UNL     1     151.470 166.456 188.129  0.00  0.00    +0.052 HD
ATOM     49  H   UNL     1     153.140 166.957 187.669  0.00  0.00    +0.052 HD
ENDBRANCH  45  46
ENDBRANCH  13  45
ENDBRANCH   7  13
ENDBRANCH   4   7
ENDBRANCH   1   4
BRANCH   1  50
ATOM     50  C   UNL     1     148.774 167.926 191.997  0.00  0.00    +0.108 C 
ATOM     51  H   UNL     1     148.007 168.357 192.659  0.00  0.00    +0.074 HD
BRANCH  50  52
ATOM     52  C   UNL     1     148.192 166.628 191.353  0.00  0.00    +0.020 C 
ATOM     53  H   UNL     1     148.705 165.797 191.852  0.00  0.00    +0.036 HD
BRANCH  52  54
ATOM     54  C   UNL     1     148.575 166.578 189.865  0.00  0.00    -0.057 C 
ATOM     55  H   UNL     1     148.543 165.550 189.480  0.00  0.00    +0.023 HD
ATOM     56  H   UNL     1     149.593 166.947 189.706  0.00  0.00    +0.023 HD
ATOM     57  H   UNL     1     147.895 167.180 189.257  0.00  0.00    +0.023 HD
ENDBRANCH  52  54
BRANCH  52  58
ATOM     58  C   UNL     1     146.663 166.410 191.585  0.00  0.00    +0.070 C 
ATOM     59  H   UNL     1     146.262 165.880 190.711  0.00  0.00    +0.061 HD
BRANCH  58  60
ATOM     60  C   UNL     1     146.334 165.536 192.844  0.00  0.00    +0.002 C 
ATOM     61  H   UNL     1     146.188 164.510 192.482  0.00  0.00    +0.037 HD
BRANCH  60  62
ATOM     62  C   UNL     1     145.005 165.931 193.500  0.00  0.00    -0.057 C 
ATOM     63  H   UNL     1     144.178 165.925 192.783  0.00  0.00    +0.024 HD
ATOM     64  H   UNL     1     144.758 165.246 194.318  0.00  0.00    +0.024 HD
ATOM     65  H   UNL     1     145.065 166.945 193.915  0.00  0.00    +0.024 HD
ENDBRANCH  60  62
BRANCH  60  66
ATOM     66  C   UNL     1     147.413 165.456 193.913  0.00  0.00    -0.065 C 
ATOM     67  C   UNL     1     147.467 166.226 195.011  0.00  0.00    -0.005 C 
ATOM     68  H   UNL     1     148.158 164.683 193.729  0.00  0.00    +0.059 HD
ATOM     69  H   UNL     1     146.691 166.982 195.159  0.00  0.00    +0.078 HD
BRANCH  67  70
ATOM     70  N   UNL     1     148.392 166.162 196.037  0.00  0.00    -0.284 N 
ATOM     71  C   UNL     1     149.664 165.608 195.945  0.00  0.00    +0.206 C 
ATOM     72  O   UNL     1     150.469 165.493 196.865  0.00  0.00    -0.279 OA
ATOM     73  H   UNL     1     149.927 165.246 194.937  0.00  0.00    +0.126 HD
BRANCH  70  74
ATOM     74  C   UNL     1     147.972 166.693 197.332  0.00  0.00    +0.007 C 
ATOM     75  H   UNL     1     148.051 165.895 198.083  0.00  0.00    +0.043 HD
ATOM     76  H   UNL     1     146.927 167.023 197.259  0.00  0.00    +0.043 HD
ATOM     77  H   UNL     1     148.578 167.546 197.648  0.00  0.00    +0.043 HD
ENDBRANCH  70  74
ENDBRANCH  67  70
ENDBRANCH  60  66
ENDBRANCH  58  60
BRANCH  58  78
ATOM     78  O   UNL     1     146.019 167.688 191.719  0.00  0.00    -0.379 OA
BRANCH  78  79
ATOM     79  C   UNL     1     145.213 168.047 190.601  0.00  0.00    +0.037 C 
ATOM     80  H   UNL     1     145.734 168.771 189.968  0.00  0.00    +0.052 HD
ATOM     81  H   UNL     1     144.940 167.165 190.015  0.00  0.00    +0.052 HD
ATOM     82  H   UNL     1     144.295 168.506 190.977  0.00  0.00    +0.052 HD
ENDBRANCH  78  79
ENDBRANCH  58  78
ENDBRANCH  52  58
ENDBRANCH  50  52
BRANCH  50  83
ATOM     83  O   UNL     1     149.117 168.907 191.000  0.00  0.00    -0.459 OA
BRANCH  83  85
ATOM     84  O   UNL     1     147.723 170.437 190.000  0.00  0.00    -0.248 OA
ATOM     85  C   UNL     1     148.371 170.048 190.964  0.00  0.00    +0.337 C 
BRANCH  85  86
ATOM     86  C   UNL     1     148.395 170.760 192.323  0.00  0.00    +0.155 C 
ATOM     87  O   UNL     1     147.450 171.839 192.479  0.00  0.00    -0.365 OA
ATOM     88  C   UNL     1     148.177 173.058 192.695  0.00  0.00    +0.049 C 
ATOM     89  C   UNL     1     149.493 172.628 193.312  0.00  0.00    -0.027 C 
ATOM     90  C   UNL     1     149.784 171.356 192.556  0.00  0.00    -0.014 C 
ATOM     91  H   UNL     1     148.143 170.013 193.087  0.00  0.00    +0.071 HD
ATOM     92  H   UNL     1     147.598 173.715 193.348  0.00  0.00    +0.056 HD
ATOM     93  H   UNL     1     148.326 173.555 191.730  0.00  0.00    +0.056 HD
ATOM     94  H   UNL     1     149.357 172.400 194.374  0.00  0.00    +0.029 HD
ATOM     95  H   UNL     1     150.274 173.390 193.210  0.00  0.00    +0.029 HD
ATOM     96  H   UNL     1     150.285 171.595 191.603  0.00  0.00    +0.030 HD
ATOM     97  H   UNL     1     150.441 170.672 193.107  0.00  0.00    +0.030 HD
ENDBRANCH  85  86
ENDBRANCH  83  85
ENDBRANCH  50  83
ENDBRANCH   1  50
TORSDOF 31
ENDMDL
MODEL 2
REMARK VINA RESULT:      -5.4      2.550      8.727
REMARK  Name = 2u_conf3
REMARK  31 active torsions:
REMARK  status: ('A' for Active; 'I' for Inactive)
REMARK    1  A    between atoms: C_2  and  C_3
REMARK    2  A    between atoms: C_2  and  O_8
REMARK    3  A    between atoms: O_8  and  C_9
REMARK    4  A    between atoms: C_9  and  C_10
REMARK    5  A    between atoms: C_9  and  C_29
REMARK    6  A    between atoms: C_10  and  C_11
REMARK    7  A    between atoms: C_11  and  C_12
REMARK    8  A    between atoms: C_12  and  C_13
REMARK    9  A    between atoms: C_12  and  C_14
REMARK   10  A    between atoms: C_14  and  O_15
REMARK   11  A    between atoms: C_14  and  C_17
REMARK   12  A    between atoms: O_15  and  C_16
REMARK   13  A    between atoms: C_17  and  C_18
REMARK   14  A    between atoms: C_18  and  O_19
REMARK   15  A    between atoms: C_18  and  C_26
REMARK   16  A    between atoms: O_19  and  C_20
REMARK   17  A    between atoms: C_20  and  C_21
REMARK   18  A    between atoms: C_21  and  C_22
REMARK   19  A    between atoms: C_22  and  C_23
REMARK   20  A    between atoms: C_23  and  N_24
REMARK   21  A    between atoms: C_26  and  C_27
REMARK   22  A    between atoms: C_26  and  C_28
REMARK   23  A    between atoms: C_29  and  C_30
REMARK   24  A    between atoms: C_29  and  C_31
REMARK   25  A    between atoms: C_31  and  O_32
REMARK   26  A    between atoms: C_31  and  C_34
REMARK   27  A    between atoms: O_32  and  C_33
REMARK   28  A    between atoms: C_34  and  C_35
REMARK   29  A    between atoms: C_34  and  C_36
REMARK   30  A    between atoms: C_37  and  N_38
REMARK   31  A    between atoms: N_38  and  C_39
REMARK                            x       y       z     vdW  Elec       q    Type
REMARK                         _______ _______ _______ _____ _____    ______ ____
ROOT
ATOM      1  C   UNL     1     149.370 167.133 191.002  0.00  0.00    -0.015 C 
ATOM      2  H   UNL     1     149.278 166.715 189.998  0.00  0.00    +0.030 HD
ATOM      3  H   UNL     1     148.551 167.838 191.159  0.00  0.00    +0.030 HD
ENDROOT
BRANCH   1   4
ATOM      4  C   UNL     1     149.240 165.995 192.030  0.00  0.00    -0.045 C 
ATOM      5  H   UNL     1     150.252 165.715 192.350  0.00  0.00    +0.027 HD
ATOM      6  H   UNL     1     148.827 165.097 191.562  0.00  0.00    +0.027 HD
BRANCH   4   7
ATOM      7  C   UNL     1     148.410 166.346 193.282  0.00  0.00    -0.017 C 
ATOM      8  H   UNL     1     148.187 167.419 193.237  0.00  0.00    +0.032 HD
BRANCH   7   9
ATOM      9  C   UNL     1     149.301 166.106 194.513  0.00  0.00    -0.060 C 
ATOM     10  H   UNL     1     149.448 167.030 195.083  0.00  0.00    +0.023 HD
ATOM     11  H   UNL     1     148.850 165.365 195.180  0.00  0.00    +0.023 HD
ATOM     12  H   UNL     1     150.284 165.718 194.229  0.00  0.00    +0.023 HD
ENDBRANCH   7   9
BRANCH   7  13
ATOM     13  C   UNL     1     147.060 165.580 193.391  0.00  0.00    +0.064 C 
ATOM     14  H   UNL     1     146.913 164.978 192.487  0.00  0.00    +0.060 HD
BRANCH  13  15
ATOM     15  C   UNL     1     145.876 166.572 193.516  0.00  0.00    +0.011 C 
ATOM     16  H   UNL     1     146.265 167.596 193.445  0.00  0.00    +0.033 HD
ATOM     17  H   UNL     1     145.427 166.467 194.510  0.00  0.00    +0.033 HD
BRANCH  15  18
ATOM     18  C   UNL     1     144.788 166.365 192.442  0.00  0.00    +0.108 C 
ATOM     19  H   UNL     1     145.120 165.644 191.686  0.00  0.00    +0.074 HD
BRANCH  18  20
ATOM     20  C   UNL     1     143.396 165.905 192.947  0.00  0.00    -0.009 C 
ATOM     21  H   UNL     1     143.578 165.038 193.602  0.00  0.00    +0.033 HD
BRANCH  20  22
ATOM     22  C   UNL     1     142.676 166.961 193.790  0.00  0.00    -0.059 C 
ATOM     23  H   UNL     1     141.971 166.509 194.495  0.00  0.00    +0.023 HD
ATOM     24  H   UNL     1     142.136 167.670 193.151  0.00  0.00    +0.023 HD
ATOM     25  H   UNL     1     143.402 167.540 194.374  0.00  0.00    +0.023 HD
ENDBRANCH  20  22
BRANCH  20  26
ATOM     26  C   UNL     1     142.472 165.405 191.825  0.00  0.00    -0.059 C 
ATOM     27  H   UNL     1     143.001 165.421 190.865  0.00  0.00    +0.023 HD
ATOM     28  H   UNL     1     141.583 166.040 191.719  0.00  0.00    +0.023 HD
ATOM     29  H   UNL     1     142.137 164.375 191.998  0.00  0.00    +0.023 HD
ENDBRANCH  20  26
ENDBRANCH  18  20
BRANCH  18  30
ATOM     30  O   UNL     1     144.561 167.651 191.806  0.00  0.00    -0.461 OA
BRANCH  30  31
ATOM     31  C   UNL     1     145.070 167.826 190.553  0.00  0.00    +0.307 C 
ATOM     32  O   UNL     1     145.872 167.087 190.002  0.00  0.00    -0.251 OA
BRANCH  31  33
ATOM     33  C   UNL     1     144.528 169.109 189.964  0.00  0.00    +0.046 C 
ATOM     34  H   UNL     1     144.229 168.944 188.919  0.00  0.00    +0.038 HD
ATOM     35  H   UNL     1     143.629 169.371 190.534  0.00  0.00    +0.038 HD
BRANCH  33  36
ATOM     36  C   UNL     1     145.543 170.250 190.031  0.00  0.00    -0.031 C 
ATOM     37  H   UNL     1     146.185 170.140 190.917  0.00  0.00    +0.028 HD
ATOM     38  H   UNL     1     144.989 171.197 190.147  0.00  0.00    +0.028 HD
BRANCH  36  39
ATOM     39  C   UNL     1     146.399 170.320 188.768  0.00  0.00    -0.006 C 
ATOM     40  H   UNL     1     146.683 171.359 188.562  0.00  0.00    +0.042 HD
ATOM     41  H   UNL     1     145.848 169.951 187.898  0.00  0.00    +0.042 HD
BRANCH  39  42
ATOM     42  N   UNL     1     147.611 169.530 188.941  0.00  0.00    -0.330 NA
ATOM     43  H   UNL     1     147.473 168.863 189.694  0.00  0.00    +0.118 HD
ATOM     44  H   UNL     1     148.389 170.134 189.216  0.00  0.00    +0.118 HD
ENDBRANCH  39  42
ENDBRANCH  36  39
ENDBRANCH  33  36
ENDBRANCH  31  33
ENDBRANCH  30  31
ENDBRANCH  18  30
ENDBRANCH  15  18
ENDBRANCH  13  15
BRANCH  13  45
ATOM     45  O   UNL     1     147.052 164.766 194.567  0.00  0.00    -0.379 OA
BRANCH  45  46
ATOM     46  C   UNL     1     145.945 164.991 195.426  0.00  0.00    +0.037 C 
ATOM     47  H   UNL     1     145.792 166.070 195.504  0.00  0.00    +0.052 HD
ATOM     48  H   UNL     1     146.144 164.600 196.427  0.00  0.00    +0.052 HD
ATOM     49  H   UNL     1     145.029 164.547 195.012  0.00  0.00    +0.052 HD
ENDBRANCH  45  46
ENDBRANCH  13  45
ENDBRANCH   7  13
ENDBRANCH   4   7
ENDBRANCH   1   4
BRANCH   1  50
ATOM     50  C   UNL     1     150.733 167.845 191.134  0.00  0.00    +0.108 C 
ATOM     51  H   UNL     1     150.903 168.401 190.199  0.00  0.00    +0.074 HD
BRANCH  50  52
ATOM     52  C   UNL     1     151.952 166.897 191.367  0.00  0.00    +0.020 C 
ATOM     53  H   UNL     1     151.543 165.879 191.333  0.00  0.00    +0.036 HD
BRANCH  52  54
ATOM     54  C   UNL     1     152.512 167.121 192.781  0.00  0.00    -0.057 C 
ATOM     55  H   UNL     1     152.080 166.410 193.498  0.00  0.00    +0.023 HD
ATOM     56  H   UNL     1     152.274 168.125 193.146  0.00  0.00    +0.023 HD
ATOM     57  H   UNL     1     153.598 166.996 192.806  0.00  0.00    +0.023 HD
ENDBRANCH  52  54
BRANCH  52  58
ATOM     58  C   UNL     1     153.058 166.969 190.268  0.00  0.00    +0.070 C 
ATOM     59  H   UNL     1     153.950 167.427 190.716  0.00  0.00    +0.061 HD
BRANCH  58  60
ATOM     60  C   UNL     1     153.491 165.567 189.715  0.00  0.00    +0.002 C 
ATOM     61  H   UNL     1     153.173 165.533 188.665  0.00  0.00    +0.037 HD
BRANCH  60  62
ATOM     62  C   UNL     1     152.753 164.413 190.404  0.00  0.00    -0.057 C 
ATOM     63  H   UNL     1     151.933 164.771 191.035  0.00  0.00    +0.024 HD
ATOM     64  H   UNL     1     152.340 163.720 189.663  0.00  0.00    +0.024 HD
ATOM     65  H   UNL     1     153.435 163.849 191.051  0.00  0.00    +0.024 HD
ENDBRANCH  60  62
BRANCH  60  66
ATOM     66  C   UNL     1     154.983 165.273 189.712  0.00  0.00    -0.065 C 
ATOM     67  C   UNL     1     155.581 164.338 188.957  0.00  0.00    -0.005 C 
ATOM     68  H   UNL     1     155.560 165.914 190.377  0.00  0.00    +0.059 HD
ATOM     69  H   UNL     1     154.963 163.725 188.296  0.00  0.00    +0.078 HD
BRANCH  67  70
ATOM     70  N   UNL     1     156.934 164.063 188.876  0.00  0.00    -0.284 N 
ATOM     71  C   UNL     1     157.672 163.357 189.819  0.00  0.00    +0.206 C 
ATOM     72  O   UNL     1     158.884 163.159 189.785  0.00  0.00    -0.279 OA
ATOM     73  H   UNL     1     157.075 162.964 190.658  0.00  0.00    +0.126 HD
BRANCH  70  74
ATOM     74  C   UNL     1     157.643 164.595 187.714  0.00  0.00    +0.007 C 
ATOM     75  H   UNL     1     157.439 165.672 187.640  0.00  0.00    +0.043 HD
ATOM     76  H   UNL     1     157.274 164.092 186.811  0.00  0.00    +0.043 HD
ATOM     77  H   UNL     1     158.722 164.437 187.777  0.00  0.00    +0.043 HD
ENDBRANCH  70  74
ENDBRANCH  67  70
ENDBRANCH  60  66
ENDBRANCH  58  60
BRANCH  58  78
ATOM     78  O   UNL     1     152.589 167.779 189.177  0.00  0.00    -0.379 OA
BRANCH  78  79
ATOM     79  C   UNL     1     152.483 167.078 187.942  0.00  0.00    +0.037 C 
ATOM     80  H   UNL     1     153.402 167.187 187.359  0.00  0.00    +0.052 HD
ATOM     81  H   UNL     1     152.269 166.019 188.109  0.00  0.00    +0.052 HD
ATOM     82  H   UNL     1     151.654 167.511 187.376  0.00  0.00    +0.052 HD
ENDBRANCH  78  79
ENDBRANCH  58  78
ENDBRANCH  52  58
ENDBRANCH  50  52
BRANCH  50  83
ATOM     83  O   UNL     1     150.583 168.793 192.206  0.00  0.00    -0.459 OA
BRANCH  83  85
ATOM     84  O   UNL     1     151.762 170.617 191.451  0.00  0.00    -0.248 OA
ATOM     85  C   UNL     1     150.740 170.113 191.900  0.00  0.00    +0.337 C 
BRANCH  85  86
ATOM     86  C   UNL     1     149.435 170.887 192.131  0.00  0.00    +0.155 C 
ATOM     87  O   UNL     1     148.839 171.471 190.955  0.00  0.00    -0.365 OA
ATOM     88  C   UNL     1     148.810 172.897 191.115  0.00  0.00    +0.049 C 
ATOM     89  C   UNL     1     148.778 173.125 192.613  0.00  0.00    -0.027 C 
ATOM     90  C   UNL     1     149.697 172.035 193.107  0.00  0.00    -0.014 C 
ATOM     91  H   UNL     1     148.701 170.176 192.531  0.00  0.00    +0.071 HD
ATOM     92  H   UNL     1     147.931 173.301 190.607  0.00  0.00    +0.056 HD
ATOM     93  H   UNL     1     149.711 173.321 190.660  0.00  0.00    +0.056 HD
ATOM     94  H   UNL     1     147.769 172.957 193.001  0.00  0.00    +0.029 HD
ATOM     95  H   UNL     1     149.102 174.134 192.891  0.00  0.00    +0.029 HD
ATOM     96  H   UNL     1     150.743 172.377 193.056  0.00  0.00    +0.030 HD
ATOM     97  H   UNL     1     149.498 171.748 194.147  0.00  0.00    +0.030 HD
ENDBRANCH  85  86
ENDBRANCH  83  85
ENDBRANCH  50  83
ENDBRANCH   1  50
TORSDOF 31
ENDMDL
MODEL 3
REMARK VINA RESULT:      -5.3      3.717      7.296
REMARK  Name = 2u_conf3
REMARK  31 active torsions:
REMARK  status: ('A' for Active; 'I' for Inactive)
REMARK    1  A    between atoms: C_2  and  C_3
REMARK    2  A    between atoms: C_2  and  O_8
REMARK    3  A    between atoms: O_8  and  C_9
REMARK    4  A    between atoms: C_9  and  C_10
REMARK    5  A    between atoms: C_9  and  C_29
REMARK    6  A    between atoms: C_10  and  C_11
REMARK    7  A    between atoms: C_11  and  C_12
REMARK    8  A    between atoms: C_12  and  C_13
REMARK    9  A    between atoms: C_12  and  C_14
REMARK   10  A    between atoms: C_14  and  O_15
REMARK   11  A    between atoms: C_14  and  C_17
REMARK   12  A    between atoms: O_15  and  C_16
REMARK   13  A    between atoms: C_17  and  C_18
REMARK   14  A    between atoms: C_18  and  O_19
REMARK   15  A    between atoms: C_18  and  C_26
REMARK   16  A    between atoms: O_19  and  C_20
REMARK   17  A    between atoms: C_20  and  C_21
REMARK   18  A    between atoms: C_21  and  C_22
REMARK   19  A    between atoms: C_22  and  C_23
REMARK   20  A    between atoms: C_23  and  N_24
REMARK   21  A    between atoms: C_26  and  C_27
REMARK   22  A    between atoms: C_26  and  C_28
REMARK   23  A    between atoms: C_29  and  C_30
REMARK   24  A    between atoms: C_29  and  C_31
REMARK   25  A    between atoms: C_31  and  O_32
REMARK   26  A    between atoms: C_31  and  C_34
REMARK   27  A    between atoms: O_32  and  C_33
REMARK   28  A    between atoms: C_34  and  C_35
REMARK   29  A    between atoms: C_34  and  C_36
REMARK   30  A    between atoms: C_37  and  N_38
REMARK   31  A    between atoms: N_38  and  C_39
REMARK                            x       y       z     vdW  Elec       q    Type
REMARK                         _______ _______ _______ _____ _____    ______ ____
ROOT
ATOM      1  C   UNL     1     147.698 169.093 189.705  0.00  0.00    -0.015 C 
ATOM      2  H   UNL     1     148.567 169.731 189.533  0.00  0.00    +0.030 HD
ATOM      3  H   UNL     1     147.572 168.439 188.839  0.00  0.00    +0.030 HD
ENDROOT
BRANCH   1   4
ATOM      4  C   UNL     1     147.958 168.219 190.945  0.00  0.00    -0.045 C 
ATOM      5  H   UNL     1     146.994 168.044 191.440  0.00  0.00    +0.027 HD
ATOM      6  H   UNL     1     148.563 168.759 191.678  0.00  0.00    +0.027 HD
BRANCH   4   7
ATOM      7  C   UNL     1     148.612 166.854 190.649  0.00  0.00    -0.017 C 
ATOM      8  H   UNL     1     149.178 166.958 189.715  0.00  0.00    +0.032 HD
BRANCH   7   9
ATOM      9  C   UNL     1     147.481 165.841 190.399  0.00  0.00    -0.060 C 
ATOM     10  H   UNL     1     146.514 166.236 190.728  0.00  0.00    +0.023 HD
ATOM     11  H   UNL     1     147.403 165.601 189.334  0.00  0.00    +0.023 HD
ATOM     12  H   UNL     1     147.662 164.898 190.922  0.00  0.00    +0.023 HD
ENDBRANCH   7   9
BRANCH   7  13
ATOM     13  C   UNL     1     149.593 166.361 191.751  0.00  0.00    +0.064 C 
ATOM     14  H   UNL     1     149.476 165.278 191.879  0.00  0.00    +0.060 HD
BRANCH  13  15
ATOM     15  C   UNL     1     149.287 167.049 193.105  0.00  0.00    +0.011 C 
ATOM     16  H   UNL     1     148.468 167.765 192.960  0.00  0.00    +0.033 HD
ATOM     17  H   UNL     1     150.165 167.625 193.419  0.00  0.00    +0.033 HD
BRANCH  15  18
ATOM     18  C   UNL     1     148.903 166.057 194.223  0.00  0.00    +0.108 C 
ATOM     19  H   UNL     1     148.796 165.043 193.823  0.00  0.00    +0.074 HD
BRANCH  18  20
ATOM     20  C   UNL     1     149.862 165.981 195.439  0.00  0.00    -0.009 C 
ATOM     21  H   UNL     1     150.512 166.869 195.374  0.00  0.00    +0.033 HD
BRANCH  20  22
ATOM     22  C   UNL     1     149.140 166.054 196.788  0.00  0.00    -0.059 C 
ATOM     23  H   UNL     1     149.439 166.936 197.363  0.00  0.00    +0.023 HD
ATOM     24  H   UNL     1     149.337 165.156 197.385  0.00  0.00    +0.023 HD
ATOM     25  H   UNL     1     148.056 166.110 196.635  0.00  0.00    +0.023 HD
ENDBRANCH  20  22
BRANCH  20  26
ATOM     26  C   UNL     1     150.799 164.764 195.406  0.00  0.00    -0.059 C 
ATOM     27  H   UNL     1     150.699 164.186 196.333  0.00  0.00    +0.023 HD
ATOM     28  H   UNL     1     151.851 165.064 195.320  0.00  0.00    +0.023 HD
ATOM     29  H   UNL     1     150.568 164.089 194.572  0.00  0.00    +0.023 HD
ENDBRANCH  20  26
ENDBRANCH  18  20
BRANCH  18  30
ATOM     30  O   UNL     1     147.628 166.491 194.766  0.00  0.00    -0.461 OA
BRANCH  30  31
ATOM     31  C   UNL     1     146.523 165.775 194.414  0.00  0.00    +0.307 C 
ATOM     32  O   UNL     1     146.280 164.629 194.759  0.00  0.00    -0.251 OA
BRANCH  31  33
ATOM     33  C   UNL     1     145.663 166.600 193.483  0.00  0.00    +0.046 C 
ATOM     34  H   UNL     1     145.230 167.451 194.030  0.00  0.00    +0.038 HD
ATOM     35  H   UNL     1     146.322 167.001 192.704  0.00  0.00    +0.038 HD
BRANCH  33  36
ATOM     36  C   UNL     1     144.541 165.777 192.850  0.00  0.00    -0.031 C 
ATOM     37  H   UNL     1     144.679 164.708 193.072  0.00  0.00    +0.028 HD
ATOM     38  H   UNL     1     144.606 165.892 191.756  0.00  0.00    +0.028 HD
BRANCH  36  39
ATOM     39  C   UNL     1     143.164 166.237 193.324  0.00  0.00    -0.006 C 
ATOM     40  H   UNL     1     142.857 165.662 194.206  0.00  0.00    +0.042 HD
ATOM     41  H   UNL     1     142.408 166.079 192.549  0.00  0.00    +0.042 HD
BRANCH  39  42
ATOM     42  N   UNL     1     143.204 167.650 193.678  0.00  0.00    -0.330 NA
ATOM     43  H   UNL     1     143.814 168.142 193.033  0.00  0.00    +0.118 HD
ATOM     44  H   UNL     1     143.599 167.768 194.613  0.00  0.00    +0.118 HD
ENDBRANCH  39  42
ENDBRANCH  36  39
ENDBRANCH  33  36
ENDBRANCH  31  33
ENDBRANCH  30  31
ENDBRANCH  18  30
ENDBRANCH  15  18
ENDBRANCH  13  15
BRANCH  13  45
ATOM     45  O   UNL     1     150.936 166.702 191.400  0.00  0.00    -0.379 OA
BRANCH  45  46
ATOM     46  C   UNL     1     151.887 165.681 191.665  0.00  0.00    +0.037 C 
ATOM     47  H   UNL     1     152.268 165.829 192.679  0.00  0.00    +0.052 HD
ATOM     48  H   UNL     1     152.729 165.745 190.970  0.00  0.00    +0.052 HD
ATOM     49  H   UNL     1     151.421 164.688 191.619  0.00  0.00    +0.052 HD
ENDBRANCH  45  46
ENDBRANCH  13  45
ENDBRANCH   7  13
ENDBRANCH   4   7
ENDBRANCH   1   4
BRANCH   1  50
ATOM     50  C   UNL     1     146.450 169.979 189.904  0.00  0.00    +0.108 C 
ATOM     51  H   UNL     1     146.055 169.766 190.909  0.00  0.00    +0.074 HD
BRANCH  50  52
ATOM     52  C   UNL     1     145.304 169.743 188.869  0.00  0.00    +0.020 C 
ATOM     53  H   UNL     1     145.789 169.306 187.987  0.00  0.00    +0.036 HD
BRANCH  52  54
ATOM     54  C   UNL     1     144.710 171.096 188.445  0.00  0.00    -0.057 C 
ATOM     55  H   UNL     1     145.060 171.389 187.447  0.00  0.00    +0.023 HD
ATOM     56  H   UNL     1     145.008 171.892 189.134  0.00  0.00    +0.023 HD
ATOM     57  H   UNL     1     143.617 171.062 188.415  0.00  0.00    +0.023 HD
ENDBRANCH  52  54
BRANCH  52  58
ATOM     58  C   UNL     1     144.210 168.725 189.323  0.00  0.00    +0.070 C 
ATOM     59  H   UNL     1     143.281 168.969 188.791  0.00  0.00    +0.061 HD
BRANCH  58  60
ATOM     60  C   UNL     1     144.555 167.235 188.985  0.00  0.00    +0.002 C 
ATOM     61  H   UNL     1     145.201 166.872 189.795  0.00  0.00    +0.037 HD
BRANCH  60  62
ATOM     62  C   UNL     1     145.390 167.102 187.705  0.00  0.00    -0.057 C 
ATOM     63  H   UNL     1     146.448 167.317 187.884  0.00  0.00    +0.024 HD
ATOM     64  H   UNL     1     145.308 166.092 187.292  0.00  0.00    +0.024 HD
ATOM     65  H   UNL     1     145.042 167.809 186.942  0.00  0.00    +0.024 HD
ENDBRANCH  60  62
BRANCH  60  66
ATOM     66  C   UNL     1     143.383 166.267 188.917  0.00  0.00    -0.065 C 
ATOM     67  C   UNL     1     143.484 164.952 188.671  0.00  0.00    -0.005 C 
ATOM     68  H   UNL     1     142.418 166.731 189.112  0.00  0.00    +0.059 HD
ATOM     69  H   UNL     1     144.476 164.528 188.491  0.00  0.00    +0.078 HD
BRANCH  67  70
ATOM     70  N   UNL     1     142.463 164.020 188.648  0.00  0.00    -0.284 N 
ATOM     71  C   UNL     1     142.550 162.715 189.119  0.00  0.00    +0.206 C 
ATOM     72  O   UNL     1     141.668 161.862 189.050  0.00  0.00    -0.279 OA
ATOM     73  H   UNL     1     143.519 162.465 189.583  0.00  0.00    +0.126 HD
BRANCH  70  74
ATOM     74  C   UNL     1     141.202 164.444 188.044  0.00  0.00    +0.007 C 
ATOM     75  H   UNL     1     140.945 163.744 187.237  0.00  0.00    +0.043 HD
ATOM     76  H   UNL     1     141.329 165.451 187.626  0.00  0.00    +0.043 HD
ATOM     77  H   UNL     1     140.384 164.475 188.768  0.00  0.00    +0.043 HD
ENDBRANCH  70  74
ENDBRANCH  67  70
ENDBRANCH  60  66
ENDBRANCH  58  60
BRANCH  58  78
ATOM     78  O   UNL     1     144.007 168.851 190.740  0.00  0.00    -0.379 OA
BRANCH  78  79
ATOM     79  C   UNL     1     142.829 169.569 191.093  0.00  0.00    +0.037 C 
ATOM     80  H   UNL     1     142.912 170.616 190.789  0.00  0.00    +0.052 HD
ATOM     81  H   UNL     1     141.943 169.116 190.640  0.00  0.00    +0.052 HD
ATOM     82  H   UNL     1     142.719 169.527 192.180  0.00  0.00    +0.052 HD
ENDBRANCH  78  79
ENDBRANCH  58  78
ENDBRANCH  52  58
ENDBRANCH  50  52
BRANCH  50  83
ATOM     83  O   UNL     1     146.919 171.339 189.877  0.00  0.00    -0.459 OA
BRANCH  83  85
ATOM     84  O   UNL     1     145.763 172.246 191.645  0.00  0.00    -0.248 OA
ATOM     85  C   UNL     1     146.805 172.062 191.027  0.00  0.00    +0.337 C 
BRANCH  85  86
ATOM     86  C   UNL     1     148.176 172.570 191.493  0.00  0.00    +0.155 C 
ATOM     87  O   UNL     1     149.285 171.677 191.260  0.00  0.00    -0.365 OA
ATOM     88  C   UNL     1     149.851 171.308 192.527  0.00  0.00    +0.049 C 
ATOM     89  C   UNL     1     149.521 172.458 193.456  0.00  0.00    -0.027 C 
ATOM     90  C   UNL     1     148.132 172.831 192.999  0.00  0.00    -0.014 C 
ATOM     91  H   UNL     1     148.393 173.487 190.930  0.00  0.00    +0.071 HD
ATOM     92  H   UNL     1     150.927 171.152 192.411  0.00  0.00    +0.056 HD
ATOM     93  H   UNL     1     149.389 170.372 192.860  0.00  0.00    +0.056 HD
ATOM     94  H   UNL     1     150.202 173.297 193.279  0.00  0.00    +0.029 HD
ATOM     95  H   UNL     1     149.576 172.175 194.512  0.00  0.00    +0.029 HD
ATOM     96  H   UNL     1     147.390 172.187 193.498  0.00  0.00    +0.030 HD
ATOM     97  H   UNL     1     147.871 173.871 193.232  0.00  0.00    +0.030 HD
ENDBRANCH  85  86
ENDBRANCH  83  85
ENDBRANCH  50  83
ENDBRANCH   1  50
TORSDOF 31
ENDMDL
MODEL 4
REMARK VINA RESULT:      -5.3      3.727      7.738
REMARK  Name = 2u_conf3
REMARK  31 active torsions:
REMARK  status: ('A' for Active; 'I' for Inactive)
REMARK    1  A    between atoms: C_2  and  C_3
REMARK    2  A    between atoms: C_2  and  O_8
REMARK    3  A    between atoms: O_8  and  C_9
REMARK    4  A    between atoms: C_9  and  C_10
REMARK    5  A    between atoms: C_9  and  C_29
REMARK    6  A    between atoms: C_10  and  C_11
REMARK    7  A    between atoms: C_11  and  C_12
REMARK    8  A    between atoms: C_12  and  C_13
REMARK    9  A    between atoms: C_12  and  C_14
REMARK   10  A    between atoms: C_14  and  O_15
REMARK   11  A    between atoms: C_14  and  C_17
REMARK   12  A    between atoms: O_15  and  C_16
REMARK   13  A    between atoms: C_17  and  C_18
REMARK   14  A    between atoms: C_18  and  O_19
REMARK   15  A    between atoms: C_18  and  C_26
REMARK   16  A    between atoms: O_19  and  C_20
REMARK   17  A    between atoms: C_20  and  C_21
REMARK   18  A    between atoms: C_21  and  C_22
REMARK   19  A    between atoms: C_22  and  C_23
REMARK   20  A    between atoms: C_23  and  N_24
REMARK   21  A    between atoms: C_26  and  C_27
REMARK   22  A    between atoms: C_26  and  C_28
REMARK   23  A    between atoms: C_29  and  C_30
REMARK   24  A    between atoms: C_29  and  C_31
REMARK   25  A    between atoms: C_31  and  O_32
REMARK   26  A    between atoms: C_31  and  C_34
REMARK   27  A    between atoms: O_32  and  C_33
REMARK   28  A    between atoms: C_34  and  C_35
REMARK   29  A    between atoms: C_34  and  C_36
REMARK   30  A    between atoms: C_37  and  N_38
REMARK   31  A    between atoms: N_38  and  C_39
REMARK                            x       y       z     vdW  Elec       q    Type
REMARK                         _______ _______ _______ _____ _____    ______ ____
ROOT
ATOM      1  C   UNL     1     147.729 168.202 189.281  0.00  0.00    -0.015 C 
ATOM      2  H   UNL     1     148.498 168.331 188.517  0.00  0.00    +0.030 HD
ATOM      3  H   UNL     1     146.807 168.666 188.926  0.00  0.00    +0.030 HD
ENDROOT
BRANCH   1   4
ATOM      4  C   UNL     1     147.474 166.697 189.482  0.00  0.00    -0.045 C 
ATOM      5  H   UNL     1     148.187 166.333 190.233  0.00  0.00    +0.027 HD
ATOM      6  H   UNL     1     147.707 166.141 188.570  0.00  0.00    +0.027 HD
BRANCH   4   7
ATOM      7  C   UNL     1     146.047 166.340 189.946  0.00  0.00    -0.017 C 
ATOM      8  H   UNL     1     145.721 167.127 190.639  0.00  0.00    +0.032 HD
BRANCH   7   9
ATOM      9  C   UNL     1     146.133 165.025 190.742  0.00  0.00    -0.060 C 
ATOM     10  H   UNL     1     147.170 164.686 190.837  0.00  0.00    +0.023 HD
ATOM     11  H   UNL     1     145.726 165.154 191.750  0.00  0.00    +0.023 HD
ATOM     12  H   UNL     1     145.553 164.228 190.268  0.00  0.00    +0.023 HD
ENDBRANCH   7   9
BRANCH   7  13
ATOM     13  C   UNL     1     145.002 166.249 188.798  0.00  0.00    +0.064 C 
ATOM     14  H   UNL     1     145.403 166.745 187.906  0.00  0.00    +0.060 HD
BRANCH  13  15
ATOM     15  C   UNL     1     143.683 166.955 189.200  0.00  0.00    +0.011 C 
ATOM     16  H   UNL     1     142.882 166.207 189.246  0.00  0.00    +0.033 HD
ATOM     17  H   UNL     1     143.409 167.672 188.417  0.00  0.00    +0.033 HD
BRANCH  15  18
ATOM     18  C   UNL     1     143.770 167.690 190.554  0.00  0.00    +0.108 C 
ATOM     19  H   UNL     1     144.707 167.448 191.069  0.00  0.00    +0.074 HD
BRANCH  18  20
ATOM     20  C   UNL     1     143.646 169.235 190.512  0.00  0.00    -0.009 C 
ATOM     21  H   UNL     1     144.586 169.630 190.929  0.00  0.00    +0.033 HD
BRANCH  20  22
ATOM     22  C   UNL     1     143.517 169.796 189.092  0.00  0.00    -0.059 C 
ATOM     23  H   UNL     1     142.765 170.590 189.034  0.00  0.00    +0.023 HD
ATOM     24  H   UNL     1     143.252 169.003 188.382  0.00  0.00    +0.023 HD
ATOM     25  H   UNL     1     144.473 170.220 188.763  0.00  0.00    +0.023 HD
ENDBRANCH  20  22
BRANCH  20  26
ATOM     26  C   UNL     1     142.520 169.785 191.401  0.00  0.00    -0.059 C 
ATOM     27  H   UNL     1     142.229 169.036 192.148  0.00  0.00    +0.023 HD
ATOM     28  H   UNL     1     141.624 170.028 190.816  0.00  0.00    +0.023 HD
ATOM     29  H   UNL     1     142.829 170.687 191.944  0.00  0.00    +0.023 HD
ENDBRANCH  20  26
ENDBRANCH  18  20
BRANCH  18  30
ATOM     30  O   UNL     1     142.652 167.237 191.363  0.00  0.00    -0.461 OA
BRANCH  30  31
ATOM     31  C   UNL     1     142.860 166.155 192.165  0.00  0.00    +0.307 C 
ATOM     32  O   UNL     1     142.661 164.990 191.852  0.00  0.00    -0.251 OA
BRANCH  31  33
ATOM     33  C   UNL     1     143.330 166.618 193.526  0.00  0.00    +0.046 C 
ATOM     34  H   UNL     1     143.089 167.682 193.662  0.00  0.00    +0.038 HD
ATOM     35  H   UNL     1     142.768 166.046 194.273  0.00  0.00    +0.038 HD
BRANCH  33  36
ATOM     36  C   UNL     1     144.831 166.404 193.722  0.00  0.00    -0.031 C 
ATOM     37  H   UNL     1     145.280 167.276 194.221  0.00  0.00    +0.028 HD
ATOM     38  H   UNL     1     145.300 166.323 192.728  0.00  0.00    +0.028 HD
BRANCH  36  39
ATOM     39  C   UNL     1     145.122 165.136 194.521  0.00  0.00    -0.006 C 
ATOM     40  H   UNL     1     144.782 164.254 193.966  0.00  0.00    +0.042 HD
ATOM     41  H   UNL     1     144.595 165.144 195.480  0.00  0.00    +0.042 HD
BRANCH  39  42
ATOM     42  N   UNL     1     146.555 165.013 194.761  0.00  0.00    -0.330 NA
ATOM     43  H   UNL     1     147.026 164.801 193.887  0.00  0.00    +0.118 HD
ATOM     44  H   UNL     1     146.739 164.234 195.397  0.00  0.00    +0.118 HD
ENDBRANCH  39  42
ENDBRANCH  36  39
ENDBRANCH  33  36
ENDBRANCH  31  33
ENDBRANCH  30  31
ENDBRANCH  18  30
ENDBRANCH  15  18
ENDBRANCH  13  15
BRANCH  13  45
ATOM     45  O   UNL     1     144.682 164.880 188.534  0.00  0.00    -0.379 OA
BRANCH  45  46
ATOM     46  C   UNL     1     144.919 164.473 187.195  0.00  0.00    +0.037 C 
ATOM     47  H   UNL     1     144.639 163.419 187.108  0.00  0.00    +0.052 HD
ATOM     48  H   UNL     1     145.978 164.568 186.941  0.00  0.00    +0.052 HD
ATOM     49  H   UNL     1     144.299 165.048 186.493  0.00  0.00    +0.052 HD
ENDBRANCH  45  46
ENDBRANCH  13  45
ENDBRANCH   7  13
ENDBRANCH   4   7
ENDBRANCH   1   4
BRANCH   1  50
ATOM     50  C   UNL     1     148.200 168.863 190.593  0.00  0.00    +0.108 C 
ATOM     51  H   UNL     1     149.011 169.561 190.335  0.00  0.00    +0.074 HD
BRANCH  50  52
ATOM     52  C   UNL     1     148.735 167.872 191.676  0.00  0.00    +0.020 C 
ATOM     53  H   UNL     1     148.664 166.875 191.222  0.00  0.00    +0.036 HD
BRANCH  52  54
ATOM     54  C   UNL     1     147.799 167.891 192.895  0.00  0.00    -0.057 C 
ATOM     55  H   UNL     1     147.451 166.880 193.146  0.00  0.00    +0.023 HD
ATOM     56  H   UNL     1     146.907 168.495 192.699  0.00  0.00    +0.023 HD
ATOM     57  H   UNL     1     148.300 168.297 193.778  0.00  0.00    +0.023 HD
ENDBRANCH  52  54
BRANCH  52  58
ATOM     58  C   UNL     1     150.232 168.076 192.068  0.00  0.00    +0.070 C 
ATOM     59  H   UNL     1     150.262 168.454 193.099  0.00  0.00    +0.061 HD
BRANCH  58  60
ATOM     60  C   UNL     1     151.078 166.756 192.038  0.00  0.00    +0.002 C 
ATOM     61  H   UNL     1     152.132 167.062 192.015  0.00  0.00    +0.037 HD
BRANCH  60  62
ATOM     62  C   UNL     1     150.858 165.948 190.754  0.00  0.00    -0.057 C 
ATOM     63  H   UNL     1     151.786 165.822 190.186  0.00  0.00    +0.024 HD
ATOM     64  H   UNL     1     150.457 164.956 190.984  0.00  0.00    +0.024 HD
ATOM     65  H   UNL     1     150.144 166.457 190.094  0.00  0.00    +0.024 HD
ENDBRANCH  60  62
BRANCH  60  66
ATOM     66  C   UNL     1     150.934 165.833 193.238  0.00  0.00    -0.065 C 
ATOM     67  C   UNL     1     150.595 166.227 194.476  0.00  0.00    -0.005 C 
ATOM     68  H   UNL     1     151.110 164.783 193.009  0.00  0.00    +0.059 HD
ATOM     69  H   UNL     1     150.417 167.290 194.656  0.00  0.00    +0.078 HD
BRANCH  67  70
ATOM     70  N   UNL     1     150.400 165.428 195.588  0.00  0.00    -0.284 N 
ATOM     71  C   UNL     1     150.985 164.184 195.801  0.00  0.00    +0.206 C 
ATOM     72  O   UNL     1     150.772 163.442 196.756  0.00  0.00    -0.279 OA
ATOM     73  H   UNL     1     151.691 163.876 195.012  0.00  0.00    +0.126 HD
BRANCH  70  74
ATOM     74  C   UNL     1     149.472 165.928 196.599  0.00  0.00    +0.007 C 
ATOM     75  H   UNL     1     149.557 165.300 197.496  0.00  0.00    +0.043 HD
ATOM     76  H   UNL     1     148.449 165.865 196.206  0.00  0.00    +0.043 HD
ATOM     77  H   UNL     1     149.671 166.968 196.869  0.00  0.00    +0.043 HD
ENDBRANCH  70  74
ENDBRANCH  67  70
ENDBRANCH  60  66
ENDBRANCH  58  60
BRANCH  58  78
ATOM     78  O   UNL     1     150.828 169.035 191.179  0.00  0.00    -0.379 OA
BRANCH  78  79
ATOM     79  C   UNL     1     151.699 169.958 191.826  0.00  0.00    +0.037 C 
ATOM     80  H   UNL     1     151.501 170.978 191.483  0.00  0.00    +0.052 HD
ATOM     81  H   UNL     1     151.593 169.901 192.913  0.00  0.00    +0.052 HD
ATOM     82  H   UNL     1     152.727 169.693 191.567  0.00  0.00    +0.052 HD
ENDBRANCH  78  79
ENDBRANCH  58  78
ENDBRANCH  52  58
ENDBRANCH  50  52
BRANCH  50  83
ATOM     83  O   UNL     1     147.080 169.626 191.078  0.00  0.00    -0.459 OA
BRANCH  83  85
ATOM     84  O   UNL     1     146.197 171.621 190.351  0.00  0.00    -0.248 OA
ATOM     85  C   UNL     1     147.102 170.972 190.863  0.00  0.00    +0.337 C 
BRANCH  85  86
ATOM     86  C   UNL     1     148.394 171.593 191.411  0.00  0.00    +0.155 C 
ATOM     87  O   UNL     1     148.624 171.411 192.823  0.00  0.00    -0.365 OA
ATOM     88  C   UNL     1     148.651 172.701 193.453  0.00  0.00    +0.049 C 
ATOM     89  C   UNL     1     149.086 173.663 192.366  0.00  0.00    -0.027 C 
ATOM     90  C   UNL     1     148.375 173.102 191.160  0.00  0.00    -0.014 C 
ATOM     91  H   UNL     1     149.233 171.108 190.895  0.00  0.00    +0.071 HD
ATOM     92  H   UNL     1     149.342 172.677 194.299  0.00  0.00    +0.056 HD
ATOM     93  H   UNL     1     147.645 172.934 193.821  0.00  0.00    +0.056 HD
ATOM     94  H   UNL     1     150.168 173.600 192.215  0.00  0.00    +0.029 HD
ATOM     95  H   UNL     1     148.820 174.701 192.591  0.00  0.00    +0.029 HD
ATOM     96  H   UNL     1     147.345 173.490 191.120  0.00  0.00    +0.030 HD
ATOM     97  H   UNL     1     148.862 173.370 190.214  0.00  0.00    +0.030 HD
ENDBRANCH  85  86
ENDBRANCH  83  85
ENDBRANCH  50  83
ENDBRANCH   1  50
TORSDOF 31
ENDMDL
MODEL 5
REMARK VINA RESULT:      -5.3      2.465      4.296
REMARK  Name = 2u_conf3
REMARK  31 active torsions:
REMARK  status: ('A' for Active; 'I' for Inactive)
REMARK    1  A    between atoms: C_2  and  C_3
REMARK    2  A    between atoms: C_2  and  O_8
REMARK    3  A    between atoms: O_8  and  C_9
REMARK    4  A    between atoms: C_9  and  C_10
REMARK    5  A    between atoms: C_9  and  C_29
REMARK    6  A    between atoms: C_10  and  C_11
REMARK    7  A    between atoms: C_11  and  C_12
REMARK    8  A    between atoms: C_12  and  C_13
REMARK    9  A    between atoms: C_12  and  C_14
REMARK   10  A    between atoms: C_14  and  O_15
REMARK   11  A    between atoms: C_14  and  C_17
REMARK   12  A    between atoms: O_15  and  C_16
REMARK   13  A    between atoms: C_17  and  C_18
REMARK   14  A    between atoms: C_18  and  O_19
REMARK   15  A    between atoms: C_18  and  C_26
REMARK   16  A    between atoms: O_19  and  C_20
REMARK   17  A    between atoms: C_20  and  C_21
REMARK   18  A    between atoms: C_21  and  C_22
REMARK   19  A    between atoms: C_22  and  C_23
REMARK   20  A    between atoms: C_23  and  N_24
REMARK   21  A    between atoms: C_26  and  C_27
REMARK   22  A    between atoms: C_26  and  C_28
REMARK   23  A    between atoms: C_29  and  C_30
REMARK   24  A    between atoms: C_29  and  C_31
REMARK   25  A    between atoms: C_31  and  O_32
REMARK   26  A    between atoms: C_31  and  C_34
REMARK   27  A    between atoms: O_32  and  C_33
REMARK   28  A    between atoms: C_34  and  C_35
REMARK   29  A    between atoms: C_34  and  C_36
REMARK   30  A    between atoms: C_37  and  N_38
REMARK   31  A    between atoms: N_38  and  C_39
REMARK                            x       y       z     vdW  Elec       q    Type
REMARK                         _______ _______ _______ _____ _____    ______ ____
ROOT
ATOM      1  C   UNL     1     148.147 168.335 190.640  0.00  0.00    -0.015 C 
ATOM      2  H   UNL     1     148.261 168.036 191.683  0.00  0.00    +0.030 HD
ATOM      3  H   UNL     1     149.010 168.942 190.358  0.00  0.00    +0.030 HD
ENDROOT
BRANCH   1   4
ATOM      4  C   UNL     1     148.128 167.073 189.758  0.00  0.00    -0.045 C 
ATOM      5  H   UNL     1     147.156 167.036 189.247  0.00  0.00    +0.027 HD
ATOM      6  H   UNL     1     148.163 166.171 190.375  0.00  0.00    +0.027 HD
BRANCH   4   7
ATOM      7  C   UNL     1     149.244 167.009 188.696  0.00  0.00    -0.017 C 
ATOM      8  H   UNL     1     149.991 167.769 188.959  0.00  0.00    +0.032 HD
BRANCH   7   9
ATOM      9  C   UNL     1     148.624 167.412 187.346  0.00  0.00    -0.060 C 
ATOM     10  H   UNL     1     147.769 168.083 187.486  0.00  0.00    +0.023 HD
ATOM     11  H   UNL     1     149.359 167.928 186.720  0.00  0.00    +0.023 HD
ATOM     12  H   UNL     1     148.286 166.539 186.781  0.00  0.00    +0.023 HD
ENDBRANCH   7   9
BRANCH   7  13
ATOM     13  C   UNL     1     149.968 165.636 188.608  0.00  0.00    +0.064 C 
ATOM     14  H   UNL     1     149.610 164.987 189.417  0.00  0.00    +0.060 HD
BRANCH  13  15
ATOM     15  C   UNL     1     151.500 165.813 188.765  0.00  0.00    +0.011 C 
ATOM     16  H   UNL     1     151.755 166.862 188.570  0.00  0.00    +0.033 HD
ATOM     17  H   UNL     1     152.008 165.211 188.004  0.00  0.00    +0.033 HD
BRANCH  15  18
ATOM     18  C   UNL     1     152.022 165.413 190.161  0.00  0.00    +0.108 C 
ATOM     19  H   UNL     1     151.190 165.199 190.841  0.00  0.00    +0.074 HD
BRANCH  18  20
ATOM     20  C   UNL     1     152.994 164.206 190.217  0.00  0.00    -0.009 C 
ATOM     21  H   UNL     1     152.783 163.685 191.164  0.00  0.00    +0.033 HD
BRANCH  20  22
ATOM     22  C   UNL     1     152.769 163.193 189.090  0.00  0.00    -0.059 C 
ATOM     23  H   UNL     1     152.426 162.227 189.473  0.00  0.00    +0.023 HD
ATOM     24  H   UNL     1     153.689 163.041 188.513  0.00  0.00    +0.023 HD
ATOM     25  H   UNL     1     152.007 163.563 188.394  0.00  0.00    +0.023 HD
ENDBRANCH  20  22
BRANCH  20  26
ATOM     26  C   UNL     1     154.474 164.613 190.274  0.00  0.00    -0.059 C 
ATOM     27  H   UNL     1     154.945 164.197 191.173  0.00  0.00    +0.023 HD
ATOM     28  H   UNL     1     154.593 165.704 190.318  0.00  0.00    +0.023 HD
ATOM     29  H   UNL     1     155.036 164.243 189.408  0.00  0.00    +0.023 HD
ENDBRANCH  20  26
ENDBRANCH  18  20
BRANCH  18  30
ATOM     30  O   UNL     1     152.779 166.540 190.677  0.00  0.00    -0.461 OA
BRANCH  30  31
ATOM     31  C   UNL     1     152.155 167.353 191.576  0.00  0.00    +0.307 C 
ATOM     32  O   UNL     1     151.617 168.418 191.316  0.00  0.00    -0.251 OA
BRANCH  31  33
ATOM     33  C   UNL     1     152.274 166.757 192.961  0.00  0.00    +0.046 C 
ATOM     34  H   UNL     1     152.881 165.841 192.923  0.00  0.00    +0.038 HD
ATOM     35  H   UNL     1     152.805 167.488 193.582  0.00  0.00    +0.038 HD
BRANCH  33  36
ATOM     36  C   UNL     1     150.910 166.440 193.573  0.00  0.00    -0.031 C 
ATOM     37  H   UNL     1     150.186 166.186 192.785  0.00  0.00    +0.028 HD
ATOM     38  H   UNL     1     150.538 167.350 194.073  0.00  0.00    +0.028 HD
BRANCH  36  39
ATOM     39  C   UNL     1     150.996 165.306 194.592  0.00  0.00    -0.006 C 
ATOM     40  H   UNL     1     152.011 164.893 194.612  0.00  0.00    +0.042 HD
ATOM     41  H   UNL     1     150.314 164.490 194.332  0.00  0.00    +0.042 HD
BRANCH  39  42
ATOM     42  N   UNL     1     150.667 165.802 195.923  0.00  0.00    -0.330 NA
ATOM     43  H   UNL     1     150.618 166.816 195.901  0.00  0.00    +0.118 HD
ATOM     44  H   UNL     1     151.407 165.553 196.583  0.00  0.00    +0.118 HD
ENDBRANCH  39  42
ENDBRANCH  36  39
ENDBRANCH  33  36
ENDBRANCH  31  33
ENDBRANCH  30  31
ENDBRANCH  18  30
ENDBRANCH  15  18
ENDBRANCH  13  15
BRANCH  13  45
ATOM     45  O   UNL     1     149.743 165.043 187.326  0.00  0.00    -0.379 OA
BRANCH  45  46
ATOM     46  C   UNL     1     149.361 163.677 187.372  0.00  0.00    +0.037 C 
ATOM     47  H   UNL     1     150.270 163.074 187.436  0.00  0.00    +0.052 HD
ATOM     48  H   UNL     1     148.824 163.393 186.464  0.00  0.00    +0.052 HD
ATOM     49  H   UNL     1     148.752 163.469 188.263  0.00  0.00    +0.052 HD
ENDBRANCH  45  46
ENDBRANCH  13  45
ENDBRANCH   7  13
ENDBRANCH   4   7
ENDBRANCH   1   4
BRANCH   1  50
ATOM     50  C   UNL     1     146.840 169.141 190.482  0.00  0.00    +0.108 C 
ATOM     51  H   UNL     1     146.377 169.211 191.478  0.00  0.00    +0.074 HD
BRANCH  50  52
ATOM     52  C   UNL     1     145.797 168.518 189.500  0.00  0.00    +0.020 C 
ATOM     53  H   UNL     1     146.260 167.597 189.124  0.00  0.00    +0.036 HD
BRANCH  52  54
ATOM     54  C   UNL     1     145.600 169.457 188.299  0.00  0.00    -0.057 C 
ATOM     55  H   UNL     1     146.439 170.157 188.199  0.00  0.00    +0.023 HD
ATOM     56  H   UNL     1     144.693 170.060 188.413  0.00  0.00    +0.023 HD
ATOM     57  H   UNL     1     145.522 168.898 187.362  0.00  0.00    +0.023 HD
ENDBRANCH  52  54
BRANCH  52  58
ATOM     58  C   UNL     1     144.446 168.099 190.160  0.00  0.00    +0.070 C 
ATOM     59  H   UNL     1     143.662 168.160 189.392  0.00  0.00    +0.061 HD
BRANCH  58  60
ATOM     60  C   UNL     1     144.439 166.630 190.706  0.00  0.00    +0.002 C 
ATOM     61  H   UNL     1     145.219 166.088 190.155  0.00  0.00    +0.037 HD
BRANCH  60  62
ATOM     62  C   UNL     1     143.130 165.894 190.392  0.00  0.00    -0.057 C 
ATOM     63  H   UNL     1     142.826 166.030 189.349  0.00  0.00    +0.024 HD
ATOM     64  H   UNL     1     143.234 164.821 190.584  0.00  0.00    +0.024 HD
ATOM     65  H   UNL     1     142.314 166.273 191.018  0.00  0.00    +0.024 HD
ENDBRANCH  60  62
BRANCH  60  66
ATOM     66  C   UNL     1     144.767 166.454 192.181  0.00  0.00    -0.065 C 
ATOM     67  C   UNL     1     145.980 166.149 192.668  0.00  0.00    -0.005 C 
ATOM     68  H   UNL     1     143.919 166.623 192.843  0.00  0.00    +0.059 HD
ATOM     69  H   UNL     1     146.804 166.000 191.965  0.00  0.00    +0.078 HD
BRANCH  67  70
ATOM     70  N   UNL     1     146.345 166.029 193.996  0.00  0.00    -0.284 N 
ATOM     71  C   UNL     1     147.377 166.725 194.616  0.00  0.00    +0.206 C 
ATOM     72  O   UNL     1     147.748 166.582 195.779  0.00  0.00    -0.279 OA
ATOM     73  H   UNL     1     147.884 167.456 193.964  0.00  0.00    +0.126 HD
BRANCH  70  74
ATOM     74  C   UNL     1     145.600 165.059 194.796  0.00  0.00    +0.007 C 
ATOM     75  H   UNL     1     146.237 164.724 195.626  0.00  0.00    +0.043 HD
ATOM     76  H   UNL     1     145.343 164.199 194.164  0.00  0.00    +0.043 HD
ATOM     77  H   UNL     1     144.674 165.477 195.199  0.00  0.00    +0.043 HD
ENDBRANCH  70  74
ENDBRANCH  67  70
ENDBRANCH  60  66
ENDBRANCH  58  60
BRANCH  58  78
ATOM     78  O   UNL     1     144.145 169.001 191.236  0.00  0.00    -0.379 OA
BRANCH  78  79
ATOM     79  C   UNL     1     142.855 169.598 191.146  0.00  0.00    +0.037 C 
ATOM     80  H   UNL     1     142.466 169.520 190.126  0.00  0.00    +0.052 HD
ATOM     81  H   UNL     1     142.158 169.134 191.849  0.00  0.00    +0.052 HD
ATOM     82  H   UNL     1     142.951 170.656 191.405  0.00  0.00    +0.052 HD
ENDBRANCH  78  79
ENDBRANCH  58  78
ENDBRANCH  52  58
ENDBRANCH  50  52
BRANCH  50  83
ATOM     83  O   UNL     1     147.236 170.462 190.070  0.00  0.00    -0.459 OA
BRANCH  83  85
ATOM     84  O   UNL     1     145.820 171.789 191.302  0.00  0.00    -0.248 OA
ATOM     85  C   UNL     1     146.943 171.493 190.913  0.00  0.00    +0.337 C 
BRANCH  85  86
ATOM     86  C   UNL     1     148.222 172.206 191.370  0.00  0.00    +0.155 C 
ATOM     87  O   UNL     1     149.435 171.430 191.283  0.00  0.00    -0.365 OA
ATOM     88  C   UNL     1     149.973 171.269 192.604  0.00  0.00    +0.049 C 
ATOM     89  C   UNL     1     149.468 172.465 193.385  0.00  0.00    -0.027 C 
ATOM     90  C   UNL     1     148.072 172.621 192.835  0.00  0.00    -0.014 C 
ATOM     91  H   UNL     1     148.363 173.076 190.717  0.00  0.00    +0.071 HD
ATOM     92  H   UNL     1     151.064 171.229 192.549  0.00  0.00    +0.056 HD
ATOM     93  H   UNL     1     149.603 170.327 193.023  0.00  0.00    +0.056 HD
ATOM     94  H   UNL     1     150.058 173.354 193.140  0.00  0.00    +0.029 HD
ATOM     95  H   UNL     1     149.500 172.305 194.467  0.00  0.00    +0.029 HD
ATOM     96  H   UNL     1     147.382 171.951 193.375  0.00  0.00    +0.030 HD
ATOM     97  H   UNL     1     147.683 173.642 192.939  0.00  0.00    +0.030 HD
ENDBRANCH  85  86
ENDBRANCH  83  85
ENDBRANCH  50  83
ENDBRANCH   1  50
TORSDOF 31
ENDMDL
MODEL 6
REMARK VINA RESULT:      -5.2      1.373      2.407
REMARK  Name = 2u_conf3
REMARK  31 active torsions:
REMARK  status: ('A' for Active; 'I' for Inactive)
REMARK    1  A    between atoms: C_2  and  C_3
REMARK    2  A    between atoms: C_2  and  O_8
REMARK    3  A    between atoms: O_8  and  C_9
REMARK    4  A    between atoms: C_9  and  C_10
REMARK    5  A    between atoms: C_9  and  C_29
REMARK    6  A    between atoms: C_10  and  C_11
REMARK    7  A    between atoms: C_11  and  C_12
REMARK    8  A    between atoms: C_12  and  C_13
REMARK    9  A    between atoms: C_12  and  C_14
REMARK   10  A    between atoms: C_14  and  O_15
REMARK   11  A    between atoms: C_14  and  C_17
REMARK   12  A    between atoms: O_15  and  C_16
REMARK   13  A    between atoms: C_17  and  C_18
REMARK   14  A    between atoms: C_18  and  O_19
REMARK   15  A    between atoms: C_18  and  C_26
REMARK   16  A    between atoms: O_19  and  C_20
REMARK   17  A    between atoms: C_20  and  C_21
REMARK   18  A    between atoms: C_21  and  C_22
REMARK   19  A    between atoms: C_22  and  C_23
REMARK   20  A    between atoms: C_23  and  N_24
REMARK   21  A    between atoms: C_26  and  C_27
REMARK   22  A    between atoms: C_26  and  C_28
REMARK   23  A    between atoms: C_29  and  C_30
REMARK   24  A    between atoms: C_29  and  C_31
REMARK   25  A    between atoms: C_31  and  O_32
REMARK   26  A    between atoms: C_31  and  C_34
REMARK   27  A    between atoms: O_32  and  C_33
REMARK   28  A    between atoms: C_34  and  C_35
REMARK   29  A    between atoms: C_34  and  C_36
REMARK   30  A    between atoms: C_37  and  N_38
REMARK   31  A    between atoms: N_38  and  C_39
REMARK                            x       y       z     vdW  Elec       q    Type
REMARK                         _______ _______ _______ _____ _____    ______ ____
ROOT
ATOM      1  C   UNL     1     149.680 167.998 192.301  0.00  0.00    -0.015 C 
ATOM      2  H   UNL     1     149.746 167.027 192.795  0.00  0.00    +0.030 HD
ATOM      3  H   UNL     1     149.857 168.777 193.045  0.00  0.00    +0.030 HD
ENDROOT
BRANCH   1   4
ATOM      4  C   UNL     1     150.780 168.087 191.228  0.00  0.00    -0.045 C 
ATOM      5  H   UNL     1     151.559 168.765 191.600  0.00  0.00    +0.027 HD
ATOM      6  H   UNL     1     150.396 168.562 190.320  0.00  0.00    +0.027 HD
BRANCH   4   7
ATOM      7  C   UNL     1     151.436 166.740 190.860  0.00  0.00    -0.017 C 
ATOM      8  H   UNL     1     150.814 166.273 190.086  0.00  0.00    +0.032 HD
BRANCH   7   9
ATOM      9  C   UNL     1     151.382 165.841 192.108  0.00  0.00    -0.060 C 
ATOM     10  H   UNL     1     150.419 165.933 192.622  0.00  0.00    +0.023 HD
ATOM     11  H   UNL     1     151.520 164.790 191.835  0.00  0.00    +0.023 HD
ATOM     12  H   UNL     1     152.175 166.089 192.818  0.00  0.00    +0.023 HD
ENDBRANCH   7   9
BRANCH   7  13
ATOM     13  C   UNL     1     152.883 166.863 190.303  0.00  0.00    +0.064 C 
ATOM     14  H   UNL     1     153.235 167.892 190.437  0.00  0.00    +0.060 HD
BRANCH  13  15
ATOM     15  C   UNL     1     152.917 166.528 188.790  0.00  0.00    +0.011 C 
ATOM     16  H   UNL     1     153.963 166.403 188.480  0.00  0.00    +0.033 HD
ATOM     17  H   UNL     1     152.515 167.378 188.227  0.00  0.00    +0.033 HD
BRANCH  15  18
ATOM     18  C   UNL     1     152.124 165.256 188.426  0.00  0.00    +0.108 C 
ATOM     19  H   UNL     1     151.644 164.830 189.315  0.00  0.00    +0.074 HD
BRANCH  18  20
ATOM     20  C   UNL     1     151.035 165.408 187.334  0.00  0.00    -0.009 C 
ATOM     21  H   UNL     1     151.486 165.045 186.396  0.00  0.00    +0.033 HD
BRANCH  20  22
ATOM     22  C   UNL     1     149.791 164.552 187.592  0.00  0.00    -0.059 C 
ATOM     23  H   UNL     1     148.941 164.875 186.982  0.00  0.00    +0.023 HD
ATOM     24  H   UNL     1     149.505 164.589 188.650  0.00  0.00    +0.023 HD
ATOM     25  H   UNL     1     149.995 163.503 187.347  0.00  0.00    +0.023 HD
ENDBRANCH  20  22
BRANCH  20  26
ATOM     26  C   UNL     1     150.628 166.867 187.073  0.00  0.00    -0.059 C 
ATOM     27  H   UNL     1     151.404 167.377 186.490  0.00  0.00    +0.023 HD
ATOM     28  H   UNL     1     150.503 167.426 188.010  0.00  0.00    +0.023 HD
ATOM     29  H   UNL     1     149.691 166.938 186.507  0.00  0.00    +0.023 HD
ENDBRANCH  20  26
ENDBRANCH  18  20
BRANCH  18  30
ATOM     30  O   UNL     1     153.072 164.294 187.892  0.00  0.00    -0.461 OA
BRANCH  30  31
ATOM     31  C   UNL     1     153.135 163.075 188.498  0.00  0.00    +0.307 C 
ATOM     32  O   UNL     1     153.612 162.854 189.602  0.00  0.00    -0.251 OA
BRANCH  31  33
ATOM     33  C   UNL     1     152.567 162.022 187.573  0.00  0.00    +0.046 C 
ATOM     34  H   UNL     1     152.022 162.503 186.748  0.00  0.00    +0.038 HD
ATOM     35  H   UNL     1     153.417 161.478 187.144  0.00  0.00    +0.038 HD
BRANCH  33  36
ATOM     36  C   UNL     1     151.638 161.052 188.303  0.00  0.00    -0.031 C 
ATOM     37  H   UNL     1     150.675 160.976 187.776  0.00  0.00    +0.028 HD
ATOM     38  H   UNL     1     151.428 161.464 189.304  0.00  0.00    +0.028 HD
BRANCH  36  39
ATOM     39  C   UNL     1     152.266 159.668 188.449  0.00  0.00    -0.006 C 
ATOM     40  H   UNL     1     152.852 159.423 187.556  0.00  0.00    +0.042 HD
ATOM     41  H   UNL     1     151.498 158.896 188.560  0.00  0.00    +0.042 HD
BRANCH  39  42
ATOM     42  N   UNL     1     153.148 159.639 189.609  0.00  0.00    -0.330 NA
ATOM     43  H   UNL     1     152.610 159.839 190.446  0.00  0.00    +0.118 HD
ATOM     44  H   UNL     1     153.859 160.371 189.529  0.00  0.00    +0.118 HD
ENDBRANCH  39  42
ENDBRANCH  36  39
ENDBRANCH  33  36
ENDBRANCH  31  33
ENDBRANCH  30  31
ENDBRANCH  18  30
ENDBRANCH  15  18
ENDBRANCH  13  15
BRANCH  13  45
ATOM     45  O   UNL     1     153.742 165.928 190.959  0.00  0.00    -0.379 OA
BRANCH  45  46
ATOM     46  C   UNL     1     155.088 165.952 190.507  0.00  0.00    +0.037 C 
ATOM     47  H   UNL     1     155.540 164.984 190.739  0.00  0.00    +0.052 HD
ATOM     48  H   UNL     1     155.657 166.729 191.023  0.00  0.00    +0.052 HD
ATOM     49  H   UNL     1     155.134 166.096 189.419  0.00  0.00    +0.052 HD
ENDBRANCH  45  46
ENDBRANCH  13  45
ENDBRANCH   7  13
ENDBRANCH   4   7
ENDBRANCH   1   4
BRANCH   1  50
ATOM     50  C   UNL     1     148.279 168.155 191.672  0.00  0.00    +0.108 C 
ATOM     51  H   UNL     1     147.602 168.506 192.465  0.00  0.00    +0.074 HD
BRANCH  50  52
ATOM     52  C   UNL     1     147.682 166.847 191.061  0.00  0.00    +0.020 C 
ATOM     53  H   UNL     1     148.347 166.039 191.388  0.00  0.00    +0.036 HD
BRANCH  52  54
ATOM     54  C   UNL     1     147.760 166.916 189.527  0.00  0.00    -0.057 C 
ATOM     55  H   UNL     1     147.045 166.226 189.061  0.00  0.00    +0.023 HD
ATOM     56  H   UNL     1     148.755 166.633 189.169  0.00  0.00    +0.023 HD
ATOM     57  H   UNL     1     147.538 167.921 189.160  0.00  0.00    +0.023 HD
ENDBRANCH  52  54
BRANCH  52  58
ATOM     58  C   UNL     1     146.252 166.481 191.571  0.00  0.00    +0.070 C 
ATOM     59  H   UNL     1     145.768 165.863 190.802  0.00  0.00    +0.061 HD
BRANCH  58  60
ATOM     60  C   UNL     1     146.250 165.646 192.898  0.00  0.00    +0.002 C 
ATOM     61  H   UNL     1     146.313 164.591 192.603  0.00  0.00    +0.037 HD
BRANCH  60  62
ATOM     62  C   UNL     1     144.931 165.777 193.670  0.00  0.00    -0.057 C 
ATOM     63  H   UNL     1     145.076 166.249 194.648  0.00  0.00    +0.024 HD
ATOM     64  H   UNL     1     144.208 166.372 193.103  0.00  0.00    +0.024 HD
ATOM     65  H   UNL     1     144.489 164.790 193.851  0.00  0.00    +0.024 HD
ENDBRANCH  60  62
BRANCH  60  66
ATOM     66  C   UNL     1     147.411 165.888 193.851  0.00  0.00    -0.065 C 
ATOM     67  C   UNL     1     147.321 165.884 195.190  0.00  0.00    -0.005 C 
ATOM     68  H   UNL     1     148.364 166.049 193.350  0.00  0.00    +0.059 HD
ATOM     69  H   UNL     1     146.344 165.706 195.648  0.00  0.00    +0.078 HD
BRANCH  67  70
ATOM     70  N   UNL     1     148.348 166.045 196.102  0.00  0.00    -0.284 N 
ATOM     71  C   UNL     1     149.635 165.537 195.965  0.00  0.00    +0.206 C 
ATOM     72  O   UNL     1     150.536 165.625 196.796  0.00  0.00    -0.279 OA
ATOM     73  H   UNL     1     149.815 165.012 195.013  0.00  0.00    +0.126 HD
BRANCH  70  74
ATOM     74  C   UNL     1     148.031 166.782 197.322  0.00  0.00    +0.007 C 
ATOM     75  H   UNL     1     148.154 166.110 198.182  0.00  0.00    +0.043 HD
ATOM     76  H   UNL     1     146.988 167.122 197.272  0.00  0.00    +0.043 HD
ATOM     77  H   UNL     1     148.670 167.659 197.457  0.00  0.00    +0.043 HD
ENDBRANCH  70  74
ENDBRANCH  67  70
ENDBRANCH  60  66
ENDBRANCH  58  60
BRANCH  58  78
ATOM     78  O   UNL     1     145.498 167.687 191.774  0.00  0.00    -0.379 OA
BRANCH  78  79
ATOM     79  C   UNL     1     144.470 167.894 190.810  0.00  0.00    +0.037 C 
ATOM     80  H   UNL     1     143.789 168.684 191.138  0.00  0.00    +0.052 HD
ATOM     81  H   UNL     1     144.893 168.145 189.834  0.00  0.00    +0.052 HD
ATOM     82  H   UNL     1     143.905 166.963 190.710  0.00  0.00    +0.052 HD
ENDBRANCH  78  79
ENDBRANCH  58  78
ENDBRANCH  52  58
ENDBRANCH  50  52
BRANCH  50  83
ATOM     83  O   UNL     1     148.402 169.195 190.685  0.00  0.00    -0.459 OA
BRANCH  83  85
ATOM     84  O   UNL     1     146.616 170.602 191.029  0.00  0.00    -0.248 OA
ATOM     85  C   UNL     1     147.822 170.397 190.969  0.00  0.00    +0.337 C 
BRANCH  85  86
ATOM     86  C   UNL     1     148.886 171.460 191.271  0.00  0.00    +0.155 C 
ATOM     87  O   UNL     1     149.495 171.380 192.576  0.00  0.00    -0.365 OA
ATOM     88  C   UNL     1     149.194 172.585 193.297  0.00  0.00    +0.049 C 
ATOM     89  C   UNL     1     148.974 173.639 192.231  0.00  0.00    -0.027 C 
ATOM     90  C   UNL     1     148.255 172.849 191.165  0.00  0.00    -0.014 C 
ATOM     91  H   UNL     1     149.696 171.328 190.542  0.00  0.00    +0.071 HD
ATOM     92  H   UNL     1     150.025 172.825 193.965  0.00  0.00    +0.056 HD
ATOM     93  H   UNL     1     148.292 172.421 193.897  0.00  0.00    +0.056 HD
ATOM     94  H   UNL     1     149.935 173.989 191.840  0.00  0.00    +0.029 HD
ATOM     95  H   UNL     1     148.407 174.499 192.601  0.00  0.00    +0.029 HD
ATOM     96  H   UNL     1     147.176 172.819 191.388  0.00  0.00    +0.030 HD
ATOM     97  H   UNL     1     148.369 173.281 190.163  0.00  0.00    +0.030 HD
ENDBRANCH  85  86
ENDBRANCH  83  85
ENDBRANCH  50  83
ENDBRANCH   1  50
TORSDOF 31
ENDMDL
MODEL 7
REMARK VINA RESULT:      -5.2      3.153      7.906
REMARK  Name = 2u_conf3
REMARK  31 active torsions:
REMARK  status: ('A' for Active; 'I' for Inactive)
REMARK    1  A    between atoms: C_2  and  C_3
REMARK    2  A    between atoms: C_2  and  O_8
REMARK    3  A    between atoms: O_8  and  C_9
REMARK    4  A    between atoms: C_9  and  C_10
REMARK    5  A    between atoms: C_9  and  C_29
REMARK    6  A    between atoms: C_10  and  C_11
REMARK    7  A    between atoms: C_11  and  C_12
REMARK    8  A    between atoms: C_12  and  C_13
REMARK    9  A    between atoms: C_12  and  C_14
REMARK   10  A    between atoms: C_14  and  O_15
REMARK   11  A    between atoms: C_14  and  C_17
REMARK   12  A    between atoms: O_15  and  C_16
REMARK   13  A    between atoms: C_17  and  C_18
REMARK   14  A    between atoms: C_18  and  O_19
REMARK   15  A    between atoms: C_18  and  C_26
REMARK   16  A    between atoms: O_19  and  C_20
REMARK   17  A    between atoms: C_20  and  C_21
REMARK   18  A    between atoms: C_21  and  C_22
REMARK   19  A    between atoms: C_22  and  C_23
REMARK   20  A    between atoms: C_23  and  N_24
REMARK   21  A    between atoms: C_26  and  C_27
REMARK   22  A    between atoms: C_26  and  C_28
REMARK   23  A    between atoms: C_29  and  C_30
REMARK   24  A    between atoms: C_29  and  C_31
REMARK   25  A    between atoms: C_31  and  O_32
REMARK   26  A    between atoms: C_31  and  C_34
REMARK   27  A    between atoms: O_32  and  C_33
REMARK   28  A    between atoms: C_34  and  C_35
REMARK   29  A    between atoms: C_34  and  C_36
REMARK   30  A    between atoms: C_37  and  N_38
REMARK   31  A    between atoms: N_38  and  C_39
REMARK                            x       y       z     vdW  Elec       q    Type
REMARK                         _______ _______ _______ _____ _____    ______ ____
ROOT
ATOM      1  C   UNL     1     148.258 167.889 193.127  0.00  0.00    -0.015 C 
ATOM      2  H   UNL     1     147.729 168.611 193.752  0.00  0.00    +0.030 HD
ATOM      3  H   UNL     1     148.911 167.291 193.767  0.00  0.00    +0.030 HD
ENDROOT
BRANCH   1   4
ATOM      4  C   UNL     1     147.231 166.953 192.465  0.00  0.00    -0.045 C 
ATOM      5  H   UNL     1     147.742 166.012 192.223  0.00  0.00    +0.027 HD
ATOM      6  H   UNL     1     146.904 167.358 191.504  0.00  0.00    +0.027 HD
BRANCH   4   7
ATOM      7  C   UNL     1     145.996 166.632 193.331  0.00  0.00    -0.017 C 
ATOM      8  H   UNL     1     145.930 167.405 194.107  0.00  0.00    +0.032 HD
BRANCH   7   9
ATOM      9  C   UNL     1     146.256 165.288 194.032  0.00  0.00    -0.060 C 
ATOM     10  H   UNL     1     147.006 164.697 193.494  0.00  0.00    +0.023 HD
ATOM     11  H   UNL     1     146.620 165.446 195.053  0.00  0.00    +0.023 HD
ATOM     12  H   UNL     1     145.343 164.691 194.112  0.00  0.00    +0.023 HD
ENDBRANCH   7   9
BRANCH   7  13
ATOM     13  C   UNL     1     144.651 166.622 192.550  0.00  0.00    +0.064 C 
ATOM     14  H   UNL     1     144.320 165.585 192.415  0.00  0.00    +0.060 HD
BRANCH  13  15
ATOM     15  C   UNL     1     144.824 167.267 191.152  0.00  0.00    +0.011 C 
ATOM     16  H   UNL     1     145.460 166.615 190.539  0.00  0.00    +0.033 HD
ATOM     17  H   UNL     1     145.352 168.221 191.262  0.00  0.00    +0.033 HD
BRANCH  15  18
ATOM     18  C   UNL     1     143.488 167.508 190.419  0.00  0.00    +0.108 C 
ATOM     19  H   UNL     1     142.653 167.069 190.978  0.00  0.00    +0.074 HD
BRANCH  18  20
ATOM     20  C   UNL     1     143.122 168.983 190.114  0.00  0.00    -0.009 C 
ATOM     21  H   UNL     1     142.955 169.041 189.027  0.00  0.00    +0.033 HD
BRANCH  20  22
ATOM     22  C   UNL     1     141.826 169.440 190.791  0.00  0.00    -0.059 C 
ATOM     23  H   UNL     1     141.849 170.507 191.036  0.00  0.00    +0.023 HD
ATOM     24  H   UNL     1     141.642 168.867 191.707  0.00  0.00    +0.023 HD
ATOM     25  H   UNL     1     140.971 169.271 190.126  0.00  0.00    +0.023 HD
ENDBRANCH  20  22
BRANCH  20  26
ATOM     26  C   UNL     1     144.257 169.973 190.423  0.00  0.00    -0.059 C 
ATOM     27  H   UNL     1     145.185 169.643 189.942  0.00  0.00    +0.023 HD
ATOM     28  H   UNL     1     144.453 170.040 191.501  0.00  0.00    +0.023 HD
ATOM     29  H   UNL     1     144.035 170.981 190.053  0.00  0.00    +0.023 HD
ENDBRANCH  20  26
ENDBRANCH  18  20
BRANCH  18  30
ATOM     30  O   UNL     1     143.584 166.860 189.123  0.00  0.00    -0.461 OA
BRANCH  30  31
ATOM     31  C   UNL     1     142.710 165.847 188.864  0.00  0.00    +0.307 C 
ATOM     32  O   UNL     1     141.491 165.937 188.888  0.00  0.00    -0.251 OA
BRANCH  31  33
ATOM     33  C   UNL     1     143.479 164.574 188.590  0.00  0.00    +0.046 C 
ATOM     34  H   UNL     1     143.293 164.239 187.560  0.00  0.00    +0.038 HD
ATOM     35  H   UNL     1     144.545 164.816 188.677  0.00  0.00    +0.038 HD
BRANCH  33  36
ATOM     36  C   UNL     1     143.113 163.456 189.566  0.00  0.00    -0.031 C 
ATOM     37  H   UNL     1     142.596 163.869 190.445  0.00  0.00    +0.028 HD
ATOM     38  H   UNL     1     144.048 162.995 189.927  0.00  0.00    +0.028 HD
BRANCH  36  39
ATOM     39  C   UNL     1     142.248 162.387 188.902  0.00  0.00    -0.006 C 
ATOM     40  H   UNL     1     142.862 161.757 188.249  0.00  0.00    +0.042 HD
ATOM     41  H   UNL     1     141.467 162.841 188.283  0.00  0.00    +0.042 HD
BRANCH  39  42
ATOM     42  N   UNL     1     141.628 161.544 189.917  0.00  0.00    -0.330 NA
ATOM     43  H   UNL     1     140.843 161.048 189.509  0.00  0.00    +0.118 HD
ATOM     44  H   UNL     1     141.256 162.122 190.675  0.00  0.00    +0.118 HD
ENDBRANCH  39  42
ENDBRANCH  36  39
ENDBRANCH  33  36
ENDBRANCH  31  33
ENDBRANCH  30  31
ENDBRANCH  18  30
ENDBRANCH  15  18
ENDBRANCH  13  15
BRANCH  13  45
ATOM     45  O   UNL     1     143.671 167.394 193.250  0.00  0.00    -0.379 OA
BRANCH  45  46
ATOM     46  C   UNL     1     142.595 166.633 193.777  0.00  0.00    +0.037 C 
ATOM     47  H   UNL     1     142.534 165.698 193.214  0.00  0.00    +0.052 HD
ATOM     48  H   UNL     1     141.648 167.166 193.658  0.00  0.00    +0.052 HD
ATOM     49  H   UNL     1     142.769 166.383 194.832  0.00  0.00    +0.052 HD
ENDBRANCH  45  46
ENDBRANCH  13  45
ENDBRANCH   7  13
ENDBRANCH   4   7
ENDBRANCH   1   4
BRANCH   1  50
ATOM     50  C   UNL     1     149.083 168.646 192.065  0.00  0.00    +0.108 C 
ATOM     51  H   UNL     1     148.889 168.162 191.095  0.00  0.00    +0.074 HD
BRANCH  50  52
ATOM     52  C   UNL     1     150.626 168.651 192.309  0.00  0.00    +0.020 C 
ATOM     53  H   UNL     1     150.753 168.500 193.388  0.00  0.00    +0.036 HD
BRANCH  52  54
ATOM     54  C   UNL     1     151.195 170.037 191.967  0.00  0.00    -0.057 C 
ATOM     55  H   UNL     1     151.135 170.716 192.827  0.00  0.00    +0.023 HD
ATOM     56  H   UNL     1     150.632 170.505 191.152  0.00  0.00    +0.023 HD
ATOM     57  H   UNL     1     152.244 169.976 191.666  0.00  0.00    +0.023 HD
ENDBRANCH  52  54
BRANCH  52  58
ATOM     58  C   UNL     1     151.404 167.494 191.604  0.00  0.00    +0.070 C 
ATOM     59  H   UNL     1     152.027 167.939 190.816  0.00  0.00    +0.061 HD
BRANCH  58  60
ATOM     60  C   UNL     1     152.365 166.706 192.560  0.00  0.00    +0.002 C 
ATOM     61  H   UNL     1     152.867 167.456 193.184  0.00  0.00    +0.037 HD
BRANCH  60  62
ATOM     62  C   UNL     1     153.487 165.988 191.800  0.00  0.00    -0.057 C 
ATOM     63  H   UNL     1     154.325 166.658 191.581  0.00  0.00    +0.024 HD
ATOM     64  H   UNL     1     153.866 165.140 192.380  0.00  0.00    +0.024 HD
ATOM     65  H   UNL     1     153.121 165.605 190.840  0.00  0.00    +0.024 HD
ENDBRANCH  60  62
BRANCH  60  66
ATOM     66  C   UNL     1     151.709 165.728 193.522  0.00  0.00    -0.065 C 
ATOM     67  C   UNL     1     151.353 166.012 194.784  0.00  0.00    -0.005 C 
ATOM     68  H   UNL     1     151.520 164.746 193.090  0.00  0.00    +0.059 HD
ATOM     69  H   UNL     1     151.553 167.014 195.171  0.00  0.00    +0.078 HD
BRANCH  67  70
ATOM     70  N   UNL     1     150.710 165.180 195.683  0.00  0.00    -0.284 N 
ATOM     71  C   UNL     1     151.137 163.910 196.055  0.00  0.00    +0.206 C 
ATOM     72  O   UNL     1     150.542 163.141 196.806  0.00  0.00    -0.279 OA
ATOM     73  H   UNL     1     152.097 163.606 195.606  0.00  0.00    +0.126 HD
BRANCH  70  74
ATOM     74  C   UNL     1     149.461 165.675 196.255  0.00  0.00    +0.007 C 
ATOM     75  H   UNL     1     148.797 164.820 196.446  0.00  0.00    +0.043 HD
ATOM     76  H   UNL     1     148.983 166.352 195.535  0.00  0.00    +0.043 HD
ATOM     77  H   UNL     1     149.618 166.223 197.188  0.00  0.00    +0.043 HD
ENDBRANCH  70  74
ENDBRANCH  67  70
ENDBRANCH  60  66
ENDBRANCH  58  60
BRANCH  58  78
ATOM     78  O   UNL     1     150.464 166.577 191.022  0.00  0.00    -0.379 OA
BRANCH  78  79
ATOM     79  C   UNL     1     150.594 166.434 189.612  0.00  0.00    +0.037 C 
ATOM     80  H   UNL     1     151.501 166.933 189.257  0.00  0.00    +0.052 HD
ATOM     81  H   UNL     1     150.610 165.380 189.324  0.00  0.00    +0.052 HD
ATOM     82  H   UNL     1     149.727 166.905 189.141  0.00  0.00    +0.052 HD
ENDBRANCH  78  79
ENDBRANCH  58  78
ENDBRANCH  52  58
ENDBRANCH  50  52
BRANCH  50  83
ATOM     83  O   UNL     1     148.547 169.981 192.023  0.00  0.00    -0.459 OA
BRANCH  83  85
ATOM     84  O   UNL     1     147.687 169.672 189.913  0.00  0.00    -0.248 OA
ATOM     85  C   UNL     1     148.013 170.402 190.841  0.00  0.00    +0.337 C 
BRANCH  85  86
ATOM     86  C   UNL     1     147.809 171.923 190.844  0.00  0.00    +0.155 C 
ATOM     87  O   UNL     1     149.006 172.714 190.986  0.00  0.00    -0.365 OA
ATOM     88  C   UNL     1     148.914 173.474 192.200  0.00  0.00    +0.049 C 
ATOM     89  C   UNL     1     147.428 173.645 192.447  0.00  0.00    -0.027 C 
ATOM     90  C   UNL     1     146.890 172.306 192.006  0.00  0.00    -0.014 C 
ATOM     91  H   UNL     1     147.369 172.195 189.876  0.00  0.00    +0.071 HD
ATOM     92  H   UNL     1     149.434 174.426 192.073  0.00  0.00    +0.056 HD
ATOM     93  H   UNL     1     149.396 172.910 193.007  0.00  0.00    +0.056 HD
ATOM     94  H   UNL     1     147.025 174.431 191.802  0.00  0.00    +0.029 HD
ATOM     95  H   UNL     1     147.200 173.889 193.489  0.00  0.00    +0.029 HD
ATOM     96  H   UNL     1     146.965 171.583 192.834  0.00  0.00    +0.030 HD
ATOM     97  H   UNL     1     145.836 172.348 191.704  0.00  0.00    +0.030 HD
ENDBRANCH  85  86
ENDBRANCH  83  85
ENDBRANCH  50  83
ENDBRANCH   1  50
TORSDOF 31
ENDMDL
MODEL 8
REMARK VINA RESULT:      -5.2      2.227      3.795
REMARK  Name = 2u_conf3
REMARK  31 active torsions:
REMARK  status: ('A' for Active; 'I' for Inactive)
REMARK    1  A    between atoms: C_2  and  C_3
REMARK    2  A    between atoms: C_2  and  O_8
REMARK    3  A    between atoms: O_8  and  C_9
REMARK    4  A    between atoms: C_9  and  C_10
REMARK    5  A    between atoms: C_9  and  C_29
REMARK    6  A    between atoms: C_10  and  C_11
REMARK    7  A    between atoms: C_11  and  C_12
REMARK    8  A    between atoms: C_12  and  C_13
REMARK    9  A    between atoms: C_12  and  C_14
REMARK   10  A    between atoms: C_14  and  O_15
REMARK   11  A    between atoms: C_14  and  C_17
REMARK   12  A    between atoms: O_15  and  C_16
REMARK   13  A    between atoms: C_17  and  C_18
REMARK   14  A    between atoms: C_18  and  O_19
REMARK   15  A    between atoms: C_18  and  C_26
REMARK   16  A    between atoms: O_19  and  C_20
REMARK   17  A    between atoms: C_20  and  C_21
REMARK   18  A    between atoms: C_21  and  C_22
REMARK   19  A    between atoms: C_22  and  C_23
REMARK   20  A    between atoms: C_23  and  N_24
REMARK   21  A    between atoms: C_26  and  C_27
REMARK   22  A    between atoms: C_26  and  C_28
REMARK   23  A    between atoms: C_29  and  C_30
REMARK   24  A    between atoms: C_29  and  C_31
REMARK   25  A    between atoms: C_31  and  O_32
REMARK   26  A    between atoms: C_31  and  C_34
REMARK   27  A    between atoms: O_32  and  C_33
REMARK   28  A    between atoms: C_34  and  C_35
REMARK   29  A    between atoms: C_34  and  C_36
REMARK   30  A    between atoms: C_37  and  N_38
REMARK   31  A    between atoms: N_38  and  C_39
REMARK                            x       y       z     vdW  Elec       q    Type
REMARK                         _______ _______ _______ _____ _____    ______ ____
ROOT
ATOM      1  C   UNL     1     147.632 168.328 189.189  0.00  0.00    -0.015 C 
ATOM      2  H   UNL     1     148.084 169.248 188.817  0.00  0.00    +0.030 HD
ATOM      3  H   UNL     1     147.116 167.836 188.362  0.00  0.00    +0.030 HD
ENDROOT
BRANCH   1   4
ATOM      4  C   UNL     1     148.744 167.394 189.698  0.00  0.00    -0.045 C 
ATOM      5  H   UNL     1     148.348 166.836 190.556  0.00  0.00    +0.027 HD
ATOM      6  H   UNL     1     149.583 167.973 190.094  0.00  0.00    +0.027 HD
BRANCH   4   7
ATOM      7  C   UNL     1     149.269 166.386 188.655  0.00  0.00    -0.017 C 
ATOM      8  H   UNL     1     149.361 166.919 187.701  0.00  0.00    +0.032 HD
BRANCH   7   9
ATOM      9  C   UNL     1     148.195 165.298 188.480  0.00  0.00    -0.060 C 
ATOM     10  H   UNL     1     148.629 164.371 188.089  0.00  0.00    +0.023 HD
ATOM     11  H   UNL     1     147.715 165.068 189.437  0.00  0.00    +0.023 HD
ATOM     12  H   UNL     1     147.403 165.620 187.799  0.00  0.00    +0.023 HD
ENDBRANCH   7   9
BRANCH   7  13
ATOM     13  C   UNL     1     150.657 165.773 188.998  0.00  0.00    +0.064 C 
ATOM     14  H   UNL     1     150.546 165.076 189.836  0.00  0.00    +0.060 HD
BRANCH  13  15
ATOM     15  C   UNL     1     151.658 166.881 189.412  0.00  0.00    +0.011 C 
ATOM     16  H   UNL     1     151.100 167.807 189.604  0.00  0.00    +0.033 HD
ATOM     17  H   UNL     1     152.335 167.082 188.574  0.00  0.00    +0.033 HD
BRANCH  15  18
ATOM     18  C   UNL     1     152.489 166.520 190.661  0.00  0.00    +0.108 C 
ATOM     19  H   UNL     1     153.505 166.925 190.582  0.00  0.00    +0.074 HD
BRANCH  18  20
ATOM     20  C   UNL     1     151.912 166.968 192.029  0.00  0.00    -0.009 C 
ATOM     21  H   UNL     1     152.742 166.896 192.751  0.00  0.00    +0.033 HD
BRANCH  20  22
ATOM     22  C   UNL     1     151.435 168.423 192.040  0.00  0.00    -0.059 C 
ATOM     23  H   UNL     1     150.375 168.507 191.777  0.00  0.00    +0.023 HD
ATOM     24  H   UNL     1     152.023 169.032 191.343  0.00  0.00    +0.023 HD
ATOM     25  H   UNL     1     151.564 168.857 193.038  0.00  0.00    +0.023 HD
ENDBRANCH  20  22
BRANCH  20  26
ATOM     26  C   UNL     1     150.805 166.045 192.559  0.00  0.00    -0.059 C 
ATOM     27  H   UNL     1     149.894 166.623 192.757  0.00  0.00    +0.023 HD
ATOM     28  H   UNL     1     151.097 165.561 193.501  0.00  0.00    +0.023 HD
ATOM     29  H   UNL     1     150.544 165.259 191.839  0.00  0.00    +0.023 HD
ENDBRANCH  20  26
ENDBRANCH  18  20
BRANCH  18  30
ATOM     30  O   UNL     1     152.558 165.072 190.729  0.00  0.00    -0.461 OA
BRANCH  30  31
ATOM     31  C   UNL     1     153.726 164.483 190.342  0.00  0.00    +0.307 C 
ATOM     32  O   UNL     1     153.850 163.324 189.976  0.00  0.00    -0.251 OA
BRANCH  31  33
ATOM     33  C   UNL     1     154.860 165.473 190.485  0.00  0.00    +0.046 C 
ATOM     34  H   UNL     1     154.511 166.483 190.221  0.00  0.00    +0.038 HD
ATOM     35  H   UNL     1     155.150 165.482 191.542  0.00  0.00    +0.038 HD
BRANCH  33  36
ATOM     36  C   UNL     1     156.062 165.105 189.614  0.00  0.00    -0.031 C 
ATOM     37  H   UNL     1     156.116 164.015 189.478  0.00  0.00    +0.028 HD
ATOM     38  H   UNL     1     156.978 165.411 190.146  0.00  0.00    +0.028 HD
BRANCH  36  39
ATOM     39  C   UNL     1     156.011 165.801 188.256  0.00  0.00    -0.006 C 
ATOM     40  H   UNL     1     155.614 165.118 187.496  0.00  0.00    +0.042 HD
ATOM     41  H   UNL     1     157.012 166.107 187.933  0.00  0.00    +0.042 HD
BRANCH  39  42
ATOM     42  N   UNL     1     155.150 166.975 188.327  0.00  0.00    -0.330 NA
ATOM     43  H   UNL     1     155.324 167.468 189.197  0.00  0.00    +0.118 HD
ATOM     44  H   UNL     1     154.168 166.689 188.336  0.00  0.00    +0.118 HD
ENDBRANCH  39  42
ENDBRANCH  36  39
ENDBRANCH  33  36
ENDBRANCH  31  33
ENDBRANCH  30  31
ENDBRANCH  18  30
ENDBRANCH  15  18
ENDBRANCH  13  15
BRANCH  13  45
ATOM     45  O   UNL     1     151.204 165.123 187.847  0.00  0.00    -0.379 OA
BRANCH  45  46
ATOM     46  C   UNL     1     151.895 165.988 186.960  0.00  0.00    +0.037 C 
ATOM     47  H   UNL     1     151.565 167.011 187.159  0.00  0.00    +0.052 HD
ATOM     48  H   UNL     1     151.658 165.749 185.920  0.00  0.00    +0.052 HD
ATOM     49  H   UNL     1     152.979 165.942 187.130  0.00  0.00    +0.052 HD
ENDBRANCH  45  46
ENDBRANCH  13  45
ENDBRANCH   7  13
ENDBRANCH   4   7
ENDBRANCH   1   4
BRANCH   1  50
ATOM     50  C   UNL     1     146.639 168.672 190.320  0.00  0.00    +0.108 C 
ATOM     51  H   UNL     1     146.801 167.944 191.130  0.00  0.00    +0.074 HD
BRANCH  50  52
ATOM     52  C   UNL     1     145.132 168.622 189.911  0.00  0.00    +0.020 C 
ATOM     53  H   UNL     1     145.126 168.421 188.833  0.00  0.00    +0.036 HD
BRANCH  52  54
ATOM     54  C   UNL     1     144.496 170.005 190.126  0.00  0.00    -0.057 C 
ATOM     55  H   UNL     1     144.272 170.180 191.186  0.00  0.00    +0.023 HD
ATOM     56  H   UNL     1     143.551 170.094 189.581  0.00  0.00    +0.023 HD
ATOM     57  H   UNL     1     145.160 170.807 189.791  0.00  0.00    +0.023 HD
ENDBRANCH  52  54
BRANCH  52  58
ATOM     58  C   UNL     1     144.310 167.475 190.581  0.00  0.00    +0.070 C 
ATOM     59  H   UNL     1     143.516 167.177 189.882  0.00  0.00    +0.061 HD
BRANCH  58  60
ATOM     60  C   UNL     1     145.154 166.192 190.893  0.00  0.00    +0.002 C 
ATOM     61  H   UNL     1     146.154 166.367 190.474  0.00  0.00    +0.037 HD
BRANCH  60  62
ATOM     62  C   UNL     1     144.620 164.949 190.170  0.00  0.00    -0.057 C 
ATOM     63  H   UNL     1     145.146 164.040 190.479  0.00  0.00    +0.024 HD
ATOM     64  H   UNL     1     143.551 164.815 190.369  0.00  0.00    +0.024 HD
ATOM     65  H   UNL     1     144.752 165.046 189.085  0.00  0.00    +0.024 HD
ENDBRANCH  60  62
BRANCH  60  66
ATOM     66  C   UNL     1     145.365 165.861 192.363  0.00  0.00    -0.065 C 
ATOM     67  C   UNL     1     146.560 165.768 192.966  0.00  0.00    -0.005 C 
ATOM     68  H   UNL     1     144.439 165.720 192.919  0.00  0.00    +0.059 HD
ATOM     69  H   UNL     1     147.461 165.928 192.370  0.00  0.00    +0.078 HD
BRANCH  67  70
ATOM     70  N   UNL     1     146.808 165.522 194.304  0.00  0.00    -0.284 N 
ATOM     71  C   UNL     1     148.016 165.745 194.956  0.00  0.00    +0.206 C 
ATOM     72  O   UNL     1     148.263 165.475 196.128  0.00  0.00    -0.279 OA
ATOM     73  H   UNL     1     148.793 166.202 194.322  0.00  0.00    +0.126 HD
BRANCH  70  74
ATOM     74  C   UNL     1     145.711 164.946 195.079  0.00  0.00    +0.007 C 
ATOM     75  H   UNL     1     144.912 165.694 195.168  0.00  0.00    +0.043 HD
ATOM     76  H   UNL     1     146.080 164.686 196.079  0.00  0.00    +0.043 HD
ATOM     77  H   UNL     1     145.306 164.041 194.617  0.00  0.00    +0.043 HD
ENDBRANCH  70  74
ENDBRANCH  67  70
ENDBRANCH  60  66
ENDBRANCH  58  60
BRANCH  58  78
ATOM     78  O   UNL     1     143.727 167.962 191.801  0.00  0.00    -0.379 OA
BRANCH  78  79
ATOM     79  C   UNL     1     142.332 167.699 191.919  0.00  0.00    +0.037 C 
ATOM     80  H   UNL     1     142.088 166.722 191.491  0.00  0.00    +0.052 HD
ATOM     81  H   UNL     1     142.012 167.740 192.964  0.00  0.00    +0.052 HD
ATOM     82  H   UNL     1     141.793 168.471 191.364  0.00  0.00    +0.052 HD
ENDBRANCH  78  79
ENDBRANCH  58  78
ENDBRANCH  52  58
ENDBRANCH  50  52
BRANCH  50  83
ATOM     83  O   UNL     1     147.017 169.976 190.798  0.00  0.00    -0.459 OA
BRANCH  83  85
ATOM     84  O   UNL     1     148.012 169.194 192.718  0.00  0.00    -0.248 OA
ATOM     85  C   UNL     1     147.910 170.029 191.827  0.00  0.00    +0.337 C 
BRANCH  85  86
ATOM     86  C   UNL     1     148.829 171.250 191.691  0.00  0.00    +0.155 C 
ATOM     87  O   UNL     1     149.799 171.422 192.745  0.00  0.00    -0.365 OA
ATOM     88  C   UNL     1     149.532 172.663 193.416  0.00  0.00    +0.049 C 
ATOM     89  C   UNL     1     148.841 173.530 192.383  0.00  0.00    -0.027 C 
ATOM     90  C   UNL     1     147.978 172.521 191.666  0.00  0.00    -0.014 C 
ATOM     91  H   UNL     1     149.399 171.128 190.761  0.00  0.00    +0.071 HD
ATOM     92  H   UNL     1     150.473 173.093 193.769  0.00  0.00    +0.056 HD
ATOM     93  H   UNL     1     148.885 172.465 194.278  0.00  0.00    +0.056 HD
ATOM     94  H   UNL     1     149.574 173.946 191.685  0.00  0.00    +0.029 HD
ATOM     95  H   UNL     1     148.275 174.352 192.835  0.00  0.00    +0.029 HD
ATOM     96  H   UNL     1     147.032 172.383 192.214  0.00  0.00    +0.030 HD
ATOM     97  H   UNL     1     147.722 172.828 190.645  0.00  0.00    +0.030 HD
ENDBRANCH  85  86
ENDBRANCH  83  85
ENDBRANCH  50  83
ENDBRANCH   1  50
TORSDOF 31
ENDMDL
MODEL 9
REMARK VINA RESULT:      -5.1      2.534      8.745
REMARK  Name = 2u_conf3
REMARK  31 active torsions:
REMARK  status: ('A' for Active; 'I' for Inactive)
REMARK    1  A    between atoms: C_2  and  C_3
REMARK    2  A    between atoms: C_2  and  O_8
REMARK    3  A    between atoms: O_8  and  C_9
REMARK    4  A    between atoms: C_9  and  C_10
REMARK    5  A    between atoms: C_9  and  C_29
REMARK    6  A    between atoms: C_10  and  C_11
REMARK    7  A    between atoms: C_11  and  C_12
REMARK    8  A    between atoms: C_12  and  C_13
REMARK    9  A    between atoms: C_12  and  C_14
REMARK   10  A    between atoms: C_14  and  O_15
REMARK   11  A    between atoms: C_14  and  C_17
REMARK   12  A    between atoms: O_15  and  C_16
REMARK   13  A    between atoms: C_17  and  C_18
REMARK   14  A    between atoms: C_18  and  O_19
REMARK   15  A    between atoms: C_18  and  C_26
REMARK   16  A    between atoms: O_19  and  C_20
REMARK   17  A    between atoms: C_20  and  C_21
REMARK   18  A    between atoms: C_21  and  C_22
REMARK   19  A    between atoms: C_22  and  C_23
REMARK   20  A    between atoms: C_23  and  N_24
REMARK   21  A    between atoms: C_26  and  C_27
REMARK   22  A    between atoms: C_26  and  C_28
REMARK   23  A    between atoms: C_29  and  C_30
REMARK   24  A    between atoms: C_29  and  C_31
REMARK   25  A    between atoms: C_31  and  O_32
REMARK   26  A    between atoms: C_31  and  C_34
REMARK   27  A    between atoms: O_32  and  C_33
REMARK   28  A    between atoms: C_34  and  C_35
REMARK   29  A    between atoms: C_34  and  C_36
REMARK   30  A    between atoms: C_37  and  N_38
REMARK   31  A    between atoms: N_38  and  C_39
REMARK                            x       y       z     vdW  Elec       q    Type
REMARK                         _______ _______ _______ _____ _____    ______ ____
ROOT
ATOM      1  C   UNL     1     149.725 167.116 191.036  0.00  0.00    -0.015 C 
ATOM      2  H   UNL     1     149.614 166.673 190.045  0.00  0.00    +0.030 HD
ATOM      3  H   UNL     1     148.937 167.860 191.174  0.00  0.00    +0.030 HD
ENDROOT
BRANCH   1   4
ATOM      4  C   UNL     1     149.551 166.016 192.098  0.00  0.00    -0.045 C 
ATOM      5  H   UNL     1     150.532 165.832 192.555  0.00  0.00    +0.027 HD
ATOM      6  H   UNL     1     149.270 165.068 191.629  0.00  0.00    +0.027 HD
BRANCH   4   7
ATOM      7  C   UNL     1     148.543 166.349 193.216  0.00  0.00    -0.017 C 
ATOM      8  H   UNL     1     148.300 167.416 193.130  0.00  0.00    +0.032 HD
BRANCH   7   9
ATOM      9  C   UNL     1     149.257 166.141 194.563  0.00  0.00    -0.060 C 
ATOM     10  H   UNL     1     149.239 167.054 195.168  0.00  0.00    +0.023 HD
ATOM     11  H   UNL     1     148.775 165.344 195.139  0.00  0.00    +0.023 HD
ATOM     12  H   UNL     1     150.300 165.842 194.424  0.00  0.00    +0.023 HD
ENDBRANCH   7   9
BRANCH   7  13
ATOM     13  C   UNL     1     147.212 165.547 193.141  0.00  0.00    +0.064 C 
ATOM     14  H   UNL     1     147.233 164.897 192.259  0.00  0.00    +0.060 HD
BRANCH  13  15
ATOM     15  C   UNL     1     146.001 166.506 193.013  0.00  0.00    +0.011 C 
ATOM     16  H   UNL     1     146.316 167.514 193.311  0.00  0.00    +0.033 HD
ATOM     17  H   UNL     1     145.222 166.191 193.717  0.00  0.00    +0.033 HD
BRANCH  15  18
ATOM     18  C   UNL     1     145.409 166.558 191.590  0.00  0.00    +0.108 C 
ATOM     19  H   UNL     1     145.268 167.596 191.265  0.00  0.00    +0.074 HD
BRANCH  18  20
ATOM     20  C   UNL     1     146.207 165.826 190.481  0.00  0.00    -0.009 C 
ATOM     21  H   UNL     1     147.166 165.531 190.936  0.00  0.00    +0.033 HD
BRANCH  20  22
ATOM     22  C   UNL     1     145.531 164.542 189.991  0.00  0.00    -0.059 C 
ATOM     23  H   UNL     1     144.804 164.742 189.197  0.00  0.00    +0.023 HD
ATOM     24  H   UNL     1     145.024 164.029 190.817  0.00  0.00    +0.023 HD
ATOM     25  H   UNL     1     146.279 163.849 189.589  0.00  0.00    +0.023 HD
ENDBRANCH  20  22
BRANCH  20  26
ATOM     26  C   UNL     1     146.563 166.725 189.286  0.00  0.00    -0.059 C 
ATOM     27  H   UNL     1     147.609 167.047 189.355  0.00  0.00    +0.023 HD
ATOM     28  H   UNL     1     145.943 167.631 189.262  0.00  0.00    +0.023 HD
ATOM     29  H   UNL     1     146.442 166.203 188.329  0.00  0.00    +0.023 HD
ENDBRANCH  20  26
ENDBRANCH  18  20
BRANCH  18  30
ATOM     30  O   UNL     1     144.118 165.895 191.635  0.00  0.00    -0.461 OA
BRANCH  30  31
ATOM     31  C   UNL     1     143.053 166.564 191.110  0.00  0.00    +0.307 C 
ATOM     32  O   UNL     1     141.997 166.057 190.760  0.00  0.00    -0.251 OA
BRANCH  31  33
ATOM     33  C   UNL     1     143.395 168.032 190.977  0.00  0.00    +0.046 C 
ATOM     34  H   UNL     1     144.449 168.195 191.245  0.00  0.00    +0.038 HD
ATOM     35  H   UNL     1     143.270 168.298 189.922  0.00  0.00    +0.038 HD
BRANCH  33  36
ATOM     36  C   UNL     1     142.503 168.914 191.850  0.00  0.00    -0.031 C 
ATOM     37  H   UNL     1     142.863 168.914 192.890  0.00  0.00    +0.028 HD
ATOM     38  H   UNL     1     141.490 168.478 191.858  0.00  0.00    +0.028 HD
BRANCH  36  39
ATOM     39  C   UNL     1     142.432 170.345 191.321  0.00  0.00    -0.006 C 
ATOM     40  H   UNL     1     141.943 170.995 192.056  0.00  0.00    +0.042 HD
ATOM     41  H   UNL     1     141.846 170.394 190.397  0.00  0.00    +0.042 HD
BRANCH  39  42
ATOM     42  N   UNL     1     143.774 170.852 191.067  0.00  0.00    -0.330 NA
ATOM     43  H   UNL     1     144.078 170.554 190.146  0.00  0.00    +0.118 HD
ATOM     44  H   UNL     1     144.433 170.457 191.742  0.00  0.00    +0.118 HD
ENDBRANCH  39  42
ENDBRANCH  36  39
ENDBRANCH  33  36
ENDBRANCH  31  33
ENDBRANCH  30  31
ENDBRANCH  18  30
ENDBRANCH  15  18
ENDBRANCH  13  15
BRANCH  13  45
ATOM     45  O   UNL     1     147.026 164.792 194.341  0.00  0.00    -0.379 OA
BRANCH  45  46
ATOM     46  C   UNL     1     145.768 164.992 194.968  0.00  0.00    +0.037 C 
ATOM     47  H   UNL     1     145.585 164.145 195.634  0.00  0.00    +0.052 HD
ATOM     48  H   UNL     1     144.965 165.023 194.226  0.00  0.00    +0.052 HD
ATOM     49  H   UNL     1     145.771 165.907 195.575  0.00  0.00    +0.052 HD
ENDBRANCH  45  46
ENDBRANCH  13  45
ENDBRANCH   7  13
ENDBRANCH   4   7
ENDBRANCH   1   4
BRANCH   1  50
ATOM     50  C   UNL     1     151.117 167.774 191.145  0.00  0.00    +0.108 C 
ATOM     51  H   UNL     1     151.309 168.293 190.193  0.00  0.00    +0.074 HD
BRANCH  50  52
ATOM     52  C   UNL     1     152.296 166.783 191.407  0.00  0.00    +0.020 C 
ATOM     53  H   UNL     1     151.834 165.791 191.486  0.00  0.00    +0.036 HD
BRANCH  52  54
ATOM     54  C   UNL     1     152.939 167.100 192.767  0.00  0.00    -0.057 C 
ATOM     55  H   UNL     1     153.938 167.538 192.642  0.00  0.00    +0.023 HD
ATOM     56  H   UNL     1     153.061 166.193 193.368  0.00  0.00    +0.023 HD
ATOM     57  H   UNL     1     152.336 167.810 193.339  0.00  0.00    +0.023 HD
ENDBRANCH  52  54
BRANCH  52  58
ATOM     58  C   UNL     1     153.346 166.694 190.255  0.00  0.00    +0.070 C 
ATOM     59  H   UNL     1     154.315 167.018 190.656  0.00  0.00    +0.061 HD
BRANCH  58  60
ATOM     60  C   UNL     1     153.543 165.245 189.691  0.00  0.00    +0.002 C 
ATOM     61  H   UNL     1     153.459 165.321 188.599  0.00  0.00    +0.037 HD
BRANCH  60  62
ATOM     62  C   UNL     1     152.422 164.291 190.122  0.00  0.00    -0.057 C 
ATOM     63  H   UNL     1     151.472 164.817 190.266  0.00  0.00    +0.024 HD
ATOM     64  H   UNL     1     152.272 163.506 189.373  0.00  0.00    +0.024 HD
ATOM     65  H   UNL     1     152.670 163.808 191.074  0.00  0.00    +0.024 HD
ENDBRANCH  60  62
BRANCH  60  66
ATOM     66  C   UNL     1     154.888 164.589 189.965  0.00  0.00    -0.065 C 
ATOM     67  C   UNL     1     155.486 163.696 189.162  0.00  0.00    -0.005 C 
ATOM     68  H   UNL     1     155.361 164.925 190.887  0.00  0.00    +0.059 HD
ATOM     69  H   UNL     1     154.978 163.397 188.241  0.00  0.00    +0.078 HD
BRANCH  67  70
ATOM     70  N   UNL     1     156.726 163.109 189.335  0.00  0.00    -0.284 N 
ATOM     71  C   UNL     1     157.782 163.652 190.060  0.00  0.00    +0.206 C 
ATOM     72  O   UNL     1     158.905 163.167 190.170  0.00  0.00    -0.279 OA
ATOM     73  H   UNL     1     157.545 164.607 190.557  0.00  0.00    +0.126 HD
BRANCH  70  74
ATOM     74  C   UNL     1     156.944 161.829 188.667  0.00  0.00    +0.007 C 
ATOM     75  H   UNL     1     157.813 161.922 188.001  0.00  0.00    +0.043 HD
ATOM     76  H   UNL     1     156.055 161.581 188.073  0.00  0.00    +0.043 HD
ATOM     77  H   UNL     1     157.121 161.015 189.375  0.00  0.00    +0.043 HD
ENDBRANCH  70  74
ENDBRANCH  67  70
ENDBRANCH  60  66
ENDBRANCH  58  60
BRANCH  58  78
ATOM     78  O   UNL     1     152.947 167.564 189.183  0.00  0.00    -0.379 OA
BRANCH  78  79
ATOM     79  C   UNL     1     153.070 166.981 187.890  0.00  0.00    +0.037 C 
ATOM     80  H   UNL     1     154.035 166.477 187.786  0.00  0.00    +0.052 HD
ATOM     81  H   UNL     1     152.256 166.276 187.699  0.00  0.00    +0.052 HD
ATOM     82  H   UNL     1     153.010 167.782 187.149  0.00  0.00    +0.052 HD
ENDBRANCH  78  79
ENDBRANCH  58  78
ENDBRANCH  52  58
ENDBRANCH  50  52
BRANCH  50  83
ATOM     83  O   UNL     1     151.010 168.760 192.188  0.00  0.00    -0.459 OA
BRANCH  83  85
ATOM     84  O   UNL     1     151.935 170.640 191.241  0.00  0.00    -0.248 OA
ATOM     85  C   UNL     1     151.012 170.071 191.810  0.00  0.00    +0.337 C 
BRANCH  85  86
ATOM     86  C   UNL     1     149.668 170.736 192.136  0.00  0.00    +0.155 C 
ATOM     87  O   UNL     1     148.963 171.302 191.012  0.00  0.00    -0.365 OA
ATOM     88  C   UNL     1     148.836 172.717 191.216  0.00  0.00    +0.049 C 
ATOM     89  C   UNL     1     148.873 172.905 192.719  0.00  0.00    -0.027 C 
ATOM     90  C   UNL     1     149.898 171.877 193.129  0.00  0.00    -0.014 C 
ATOM     91  H   UNL     1     149.014 169.961 192.555  0.00  0.00    +0.071 HD
ATOM     92  H   UNL     1     147.901 173.066 190.769  0.00  0.00    +0.056 HD
ATOM     93  H   UNL     1     149.675 173.221 190.724  0.00  0.00    +0.056 HD
ATOM     94  H   UNL     1     147.903 172.651 193.157  0.00  0.00    +0.029 HD
ATOM     95  H   UNL     1     149.135 173.928 193.009  0.00  0.00    +0.029 HD
ATOM     96  H   UNL     1     150.911 172.299 193.030  0.00  0.00    +0.030 HD
ATOM     97  H   UNL     1     149.781 171.550 194.170  0.00  0.00    +0.030 HD
ENDBRANCH  85  86
ENDBRANCH  83  85
ENDBRANCH  50  83
ENDBRANCH   1  50
TORSDOF 31
ENDMDL
MODEL 10
REMARK VINA RESULT:      -5.0      2.337      8.893
REMARK  Name = 2u_conf3
REMARK  31 active torsions:
REMARK  status: ('A' for Active; 'I' for Inactive)
REMARK    1  A    between atoms: C_2  and  C_3
REMARK    2  A    between atoms: C_2  and  O_8
REMARK    3  A    between atoms: O_8  and  C_9
REMARK    4  A    between atoms: C_9  and  C_10
REMARK    5  A    between atoms: C_9  and  C_29
REMARK    6  A    between atoms: C_10  and  C_11
REMARK    7  A    between atoms: C_11  and  C_12
REMARK    8  A    between atoms: C_12  and  C_13
REMARK    9  A    between atoms: C_12  and  C_14
REMARK   10  A    between atoms: C_14  and  O_15
REMARK   11  A    between atoms: C_14  and  C_17
REMARK   12  A    between atoms: O_15  and  C_16
REMARK   13  A    between atoms: C_17  and  C_18
REMARK   14  A    between atoms: C_18  and  O_19
REMARK   15  A    between atoms: C_18  and  C_26
REMARK   16  A    between atoms: O_19  and  C_20
REMARK   17  A    between atoms: C_20  and  C_21
REMARK   18  A    between atoms: C_21  and  C_22
REMARK   19  A    between atoms: C_22  and  C_23
REMARK   20  A    between atoms: C_23  and  N_24
REMARK   21  A    between atoms: C_26  and  C_27
REMARK   22  A    between atoms: C_26  and  C_28
REMARK   23  A    between atoms: C_29  and  C_30
REMARK   24  A    between atoms: C_29  and  C_31
REMARK   25  A    between atoms: C_31  and  O_32
REMARK   26  A    between atoms: C_31  and  C_34
REMARK   27  A    between atoms: O_32  and  C_33
REMARK   28  A    between atoms: C_34  and  C_35
REMARK   29  A    between atoms: C_34  and  C_36
REMARK   30  A    between atoms: C_37  and  N_38
REMARK   31  A    between atoms: N_38  and  C_39
REMARK                            x       y       z     vdW  Elec       q    Type
REMARK                         _______ _______ _______ _____ _____    ______ ____
ROOT
ATOM      1  C   UNL     1     150.805 168.241 192.352  0.00  0.00    -0.015 C 
ATOM      2  H   UNL     1     151.510 168.193 191.521  0.00  0.00    +0.030 HD
ATOM      3  H   UNL     1     151.076 169.088 192.987  0.00  0.00    +0.030 HD
ENDROOT
BRANCH   1   4
ATOM      4  C   UNL     1     149.391 168.480 191.795  0.00  0.00    -0.045 C 
ATOM      5  H   UNL     1     148.670 168.185 192.570  0.00  0.00    +0.027 HD
ATOM      6  H   UNL     1     149.192 167.816 190.950  0.00  0.00    +0.027 HD
BRANCH   4   7
ATOM      7  C   UNL     1     149.096 169.936 191.380  0.00  0.00    -0.017 C 
ATOM      8  H   UNL     1     149.492 170.074 190.366  0.00  0.00    +0.032 HD
BRANCH   7   9
ATOM      9  C   UNL     1     149.891 170.858 192.322  0.00  0.00    -0.060 C 
ATOM     10  H   UNL     1     150.945 170.911 192.029  0.00  0.00    +0.023 HD
ATOM     11  H   UNL     1     149.484 171.874 192.305  0.00  0.00    +0.023 HD
ATOM     12  H   UNL     1     149.840 170.515 193.359  0.00  0.00    +0.023 HD
ENDBRANCH   7   9
BRANCH   7  13
ATOM     13  C   UNL     1     147.585 170.303 191.358  0.00  0.00    +0.064 C 
ATOM     14  H   UNL     1     147.002 169.454 191.736  0.00  0.00    +0.060 HD
BRANCH  13  15
ATOM     15  C   UNL     1     147.117 170.614 189.914  0.00  0.00    +0.011 C 
ATOM     16  H   UNL     1     147.983 170.551 189.242  0.00  0.00    +0.033 HD
ATOM     17  H   UNL     1     146.751 171.646 189.872  0.00  0.00    +0.033 HD
BRANCH  15  18
ATOM     18  C   UNL     1     146.012 169.662 189.410  0.00  0.00    +0.108 C 
ATOM     19  H   UNL     1     145.341 170.179 188.714  0.00  0.00    +0.074 HD
BRANCH  18  20
ATOM     20  C   UNL     1     146.485 168.356 188.720  0.00  0.00    -0.009 C 
ATOM     21  H   UNL     1     147.463 168.585 188.266  0.00  0.00    +0.033 HD
BRANCH  20  22
ATOM     22  C   UNL     1     146.707 167.199 189.698  0.00  0.00    -0.059 C 
ATOM     23  H   UNL     1     147.439 167.453 190.472  0.00  0.00    +0.023 HD
ATOM     24  H   UNL     1     147.045 166.300 189.169  0.00  0.00    +0.023 HD
ATOM     25  H   UNL     1     145.767 166.943 190.202  0.00  0.00    +0.023 HD
ENDBRANCH  20  22
BRANCH  20  26
ATOM     26  C   UNL     1     145.574 167.907 187.567  0.00  0.00    -0.059 C 
ATOM     27  H   UNL     1     145.902 168.366 186.627  0.00  0.00    +0.023 HD
ATOM     28  H   UNL     1     144.532 168.210 187.733  0.00  0.00    +0.023 HD
ATOM     29  H   UNL     1     145.596 166.820 187.426  0.00  0.00    +0.023 HD
ENDBRANCH  20  26
ENDBRANCH  18  20
BRANCH  18  30
ATOM     30  O   UNL     1     145.252 169.231 190.570  0.00  0.00    -0.461 OA
BRANCH  30  31
ATOM     31  C   UNL     1     143.976 169.694 190.688  0.00  0.00    +0.307 C 
ATOM     32  O   UNL     1     143.655 170.790 191.122  0.00  0.00    -0.251 OA
BRANCH  31  33
ATOM     33  C   UNL     1     143.007 168.620 190.245  0.00  0.00    +0.046 C 
ATOM     34  H   UNL     1     141.973 168.967 190.388  0.00  0.00    +0.038 HD
ATOM     35  H   UNL     1     143.165 168.466 189.171  0.00  0.00    +0.038 HD
BRANCH  33  36
ATOM     36  C   UNL     1     143.214 167.307 191.000  0.00  0.00    -0.031 C 
ATOM     37  H   UNL     1     144.271 167.190 191.281  0.00  0.00    +0.028 HD
ATOM     38  H   UNL     1     142.966 166.477 190.318  0.00  0.00    +0.028 HD
BRANCH  36  39
ATOM     39  C   UNL     1     142.329 167.222 192.241  0.00  0.00    -0.006 C 
ATOM     40  H   UNL     1     141.599 168.040 192.240  0.00  0.00    +0.042 HD
ATOM     41  H   UNL     1     142.923 167.312 193.156  0.00  0.00    +0.042 HD
BRANCH  39  42
ATOM     42  N   UNL     1     141.610 165.954 192.257  0.00  0.00    -0.330 NA
ATOM     43  H   UNL     1     141.573 165.576 191.316  0.00  0.00    +0.118 HD
ATOM     44  H   UNL     1     140.644 166.102 192.558  0.00  0.00    +0.118 HD
ENDBRANCH  39  42
ENDBRANCH  36  39
ENDBRANCH  33  36
ENDBRANCH  31  33
ENDBRANCH  30  31
ENDBRANCH  18  30
ENDBRANCH  15  18
ENDBRANCH  13  15
BRANCH  13  45
ATOM     45  O   UNL     1     147.354 171.481 192.137  0.00  0.00    -0.379 OA
BRANCH  45  46
ATOM     46  C   UNL     1     146.823 172.573 191.401  0.00  0.00    +0.037 C 
ATOM     47  H   UNL     1     145.959 172.212 190.837  0.00  0.00    +0.052 HD
ATOM     48  H   UNL     1     147.560 172.957 190.691  0.00  0.00    +0.052 HD
ATOM     49  H   UNL     1     146.481 173.371 192.074  0.00  0.00    +0.052 HD
ENDBRANCH  45  46
ENDBRANCH  13  45
ENDBRANCH   7  13
ENDBRANCH   4   7
ENDBRANCH   1   4
BRANCH   1  50
ATOM     50  C   UNL     1     150.870 166.922 193.151  0.00  0.00    +0.108 C 
ATOM     51  H   UNL     1     151.016 167.187 194.209  0.00  0.00    +0.074 HD
BRANCH  50  52
ATOM     52  C   UNL     1     152.018 165.951 192.726  0.00  0.00    +0.020 C 
ATOM     53  H   UNL     1     151.651 164.943 192.956  0.00  0.00    +0.036 HD
BRANCH  52  54
ATOM     54  C   UNL     1     153.253 166.202 193.606  0.00  0.00    -0.057 C 
ATOM     55  H   UNL     1     152.972 166.339 194.658  0.00  0.00    +0.023 HD
ATOM     56  H   UNL     1     153.781 167.110 193.296  0.00  0.00    +0.023 HD
ATOM     57  H   UNL     1     153.956 165.366 193.557  0.00  0.00    +0.023 HD
ENDBRANCH  52  54
BRANCH  52  58
ATOM     58  C   UNL     1     152.356 165.964 191.202  0.00  0.00    +0.070 C 
ATOM     59  H   UNL     1     152.367 167.010 190.868  0.00  0.00    +0.061 HD
BRANCH  58  60
ATOM     60  C   UNL     1     153.761 165.358 190.862  0.00  0.00    +0.002 C 
ATOM     61  H   UNL     1     154.297 165.259 191.815  0.00  0.00    +0.037 HD
BRANCH  60  62
ATOM     62  C   UNL     1     154.615 166.303 190.008  0.00  0.00    -0.057 C 
ATOM     63  H   UNL     1     155.257 166.942 190.624  0.00  0.00    +0.024 HD
ATOM     64  H   UNL     1     155.252 165.735 189.321  0.00  0.00    +0.024 HD
ATOM     65  H   UNL     1     153.979 166.966 189.410  0.00  0.00    +0.024 HD
ENDBRANCH  60  62
BRANCH  60  66
ATOM     66  C   UNL     1     153.767 163.974 190.230  0.00  0.00    -0.065 C 
ATOM     67  C   UNL     1     154.286 163.679 189.028  0.00  0.00    -0.005 C 
ATOM     68  H   UNL     1     153.322 163.203 190.857  0.00  0.00    +0.059 HD
ATOM     69  H   UNL     1     154.732 164.485 188.439  0.00  0.00    +0.078 HD
BRANCH  67  70
ATOM     70  N   UNL     1     154.364 162.435 188.429  0.00  0.00    -0.284 N 
ATOM     71  C   UNL     1     154.392 161.217 189.100  0.00  0.00    +0.206 C 
ATOM     72  O   UNL     1     154.521 160.111 188.580  0.00  0.00    -0.279 OA
ATOM     73  H   UNL     1     154.292 161.301 190.195  0.00  0.00    +0.126 HD
BRANCH  70  74
ATOM     74  C   UNL     1     154.461 162.414 186.972  0.00  0.00    +0.007 C 
ATOM     75  H   UNL     1     153.547 162.855 186.551  0.00  0.00    +0.043 HD
ATOM     76  H   UNL     1     154.552 161.373 186.636  0.00  0.00    +0.043 HD
ATOM     77  H   UNL     1     155.329 162.969 186.605  0.00  0.00    +0.043 HD
ENDBRANCH  70  74
ENDBRANCH  67  70
ENDBRANCH  60  66
ENDBRANCH  58  60
BRANCH  58  78
ATOM     78  O   UNL     1     151.345 165.235 190.486  0.00  0.00    -0.379 OA
BRANCH  78  79
ATOM     79  C   UNL     1     150.761 165.963 189.411  0.00  0.00    +0.037 C 
ATOM     80  H   UNL     1     150.209 165.291 188.747  0.00  0.00    +0.052 HD
ATOM     81  H   UNL     1     150.098 166.748 189.784  0.00  0.00    +0.052 HD
ATOM     82  H   UNL     1     151.567 166.435 188.843  0.00  0.00    +0.052 HD
ENDBRANCH  78  79
ENDBRANCH  58  78
ENDBRANCH  52  58
ENDBRANCH  50  52
BRANCH  50  83
ATOM     83  O   UNL     1     149.575 166.309 193.010  0.00  0.00    -0.459 OA
BRANCH  83  85
ATOM     84  O   UNL     1     149.668 164.715 194.665  0.00  0.00    -0.248 OA
ATOM     85  C   UNL     1     149.088 165.625 194.084  0.00  0.00    +0.337 C 
BRANCH  85  86
ATOM     86  C   UNL     1     147.730 166.189 194.522  0.00  0.00    +0.155 C 
ATOM     87  O   UNL     1     147.021 165.415 195.511  0.00  0.00    -0.365 OA
ATOM     88  C   UNL     1     145.783 164.965 194.941  0.00  0.00    +0.049 C 
ATOM     89  C   UNL     1     145.447 165.985 193.872  0.00  0.00    -0.027 C 
ATOM     90  C   UNL     1     146.811 166.292 193.303  0.00  0.00    -0.014 C 
ATOM     91  H   UNL     1     147.915 167.173 194.972  0.00  0.00    +0.071 HD
ATOM     92  H   UNL     1     145.023 164.907 195.724  0.00  0.00    +0.056 HD
ATOM     93  H   UNL     1     145.933 163.967 194.515  0.00  0.00    +0.056 HD
ATOM     94  H   UNL     1     145.029 166.888 194.327  0.00  0.00    +0.029 HD
ATOM     95  H   UNL     1     144.738 165.601 193.131  0.00  0.00    +0.029 HD
ATOM     96  H   UNL     1     147.072 165.544 192.537  0.00  0.00    +0.030 HD
ATOM     97  H   UNL     1     146.863 167.279 192.827  0.00  0.00    +0.030 HD
ENDBRANCH  85  86
ENDBRANCH  83  85
ENDBRANCH  50  83
ENDBRANCH   1  50
TORSDOF 31
ENDMDL
