MODEL 1
REMARK VINA RESULT:      -4.7      0.000      0.000
REMARK  Name = Aplyronine A_conf1
REMARK  45 active torsions:
REMARK  status: ('A' for Active; 'I' for Inactive)
REMARK    1  A    between atoms: C_1  and  C_2
REMARK    2  A    between atoms: C_5  and  O_75
REMARK    3  A    between atoms: C_6  and  C_74
REMARK    4  A    between atoms: C_9  and  C_73
REMARK    5  A    between atoms: C_11  and  O_71
REMARK    6  A    between atoms: C_15  and  C_39
REMARK    7  A    between atoms: C_24  and  O_29
REMARK    8  A    between atoms: C_25  and  C_28
REMARK    9  A    between atoms: C_26  and  O_27
REMARK   10  A    between atoms: O_29  and  C_30
REMARK   11  A    between atoms: C_30  and  C_32
REMARK   12  A    between atoms: C_32  and  C_33
REMARK   13  A    between atoms: C_32  and  N_36
REMARK   14  A    between atoms: C_33  and  O_34
REMARK   15  A    between atoms: O_34  and  C_35
REMARK   16  A    between atoms: N_36  and  C_37
REMARK   17  A    between atoms: N_36  and  C_38
REMARK   18  A    between atoms: C_39  and  C_40
REMARK   19  A    between atoms: C_39  and  C_41
REMARK   20  A    between atoms: C_41  and  C_42
REMARK   21  A    between atoms: C_41  and  O_70
REMARK   22  A    between atoms: C_42  and  C_43
REMARK   23  A    between atoms: C_42  and  C_44
REMARK   24  A    between atoms: C_44  and  C_45
REMARK   25  A    between atoms: C_45  and  C_46
REMARK   26  A    between atoms: C_46  and  C_47
REMARK   27  A    between atoms: C_46  and  O_62
REMARK   28  A    between atoms: C_47  and  C_48
REMARK   29  A    between atoms: C_47  and  C_49
REMARK   30  A    between atoms: C_49  and  C_50
REMARK   31  A    between atoms: C_49  and  O_58
REMARK   32  A    between atoms: C_50  and  C_51
REMARK   33  A    between atoms: C_50  and  C_52
REMARK   34  A    between atoms: C_53  and  N_54
REMARK   35  A    between atoms: N_54  and  C_55
REMARK   36  A    between atoms: O_58  and  C_59
REMARK   37  A    between atoms: C_59  and  C_61
REMARK   38  A    between atoms: O_62  and  C_63
REMARK   39  A    between atoms: C_63  and  C_65
REMARK   40  A    between atoms: C_65  and  C_66
REMARK   41  A    between atoms: C_65  and  N_67
REMARK   42  A    between atoms: N_67  and  C_68
REMARK   43  A    between atoms: N_67  and  C_69
REMARK   44  A    between atoms: O_71  and  C_72
REMARK   45  A    between atoms: O_75  and  C_76
REMARK                            x       y       z     vdW  Elec       q    Type
REMARK                         _______ _______ _______ _____ _____    ______ ____
ROOT
ATOM      1  C   UNL     1     157.905 157.413 189.267  0.00  0.00    -0.017 C 
ATOM      2  C   UNL     1     156.487 157.864 189.673  0.00  0.00    -0.045 C 
ATOM      3  C   UNL     1     155.449 156.753 189.939  0.00  0.00    -0.022 C 
ATOM      4  C   UNL     1     155.163 155.703 188.843  0.00  0.00    +0.079 C 
ATOM      5  C   UNL     1     154.729 156.198 187.459  0.00  0.00    -0.048 C 
ATOM      6  C   UNL     1     154.150 157.401 187.255  0.00  0.00    -0.082 C 
ATOM      7  C   UNL     1     153.645 157.978 185.958  0.00  0.00    -0.032 C 
ATOM      8  C   UNL     1     154.648 158.938 185.292  0.00  0.00    -0.038 C 
ATOM      9  C   UNL     1     154.951 160.241 186.075  0.00  0.00    -0.020 C 
ATOM     10  C   UNL     1     153.728 161.111 186.434  0.00  0.00    +0.077 C 
ATOM     11  C   UNL     1     154.178 162.513 186.770  0.00  0.00    -0.059 C 
ATOM     12  C   UNL     1     153.752 163.622 186.139  0.00  0.00    -0.082 C 
ATOM     13  C   UNL     1     154.174 165.036 186.476  0.00  0.00    +0.003 C 
ATOM     14  C   UNL     1     153.788 165.569 187.885  0.00  0.00    +0.112 C 
ATOM     15  O   UNL     1     154.695 164.897 188.794  0.00  0.00    -0.458 OA
ATOM     16  C   UNL     1     155.336 165.652 189.720  0.00  0.00    +0.332 C 
ATOM     17  O   UNL     1     155.046 166.783 190.072  0.00  0.00    -0.246 OA
ATOM     18  C   UNL     1     156.520 164.932 190.234  0.00  0.00    +0.022 C 
ATOM     19  C   UNL     1     157.271 164.205 189.393  0.00  0.00    -0.055 C 
ATOM     20  C   UNL     1     158.522 163.564 189.708  0.00  0.00    -0.065 C 
ATOM     21  C   UNL     1     158.730 162.713 190.721  0.00  0.00    -0.081 C 
ATOM     22  C   UNL     1     160.043 161.980 190.883  0.00  0.00    +0.003 C 
ATOM     23  C   UNL     1     159.920 160.434 190.908  0.00  0.00    +0.111 C 
ATOM     24  C   UNL     1     158.992 159.792 189.828  0.00  0.00    +0.020 C 
ATOM     25  C   UNL     1     159.001 158.246 189.994  0.00  0.00    +0.064 C 
ATOM     26  H   UNL     1     158.063 156.385 189.621  0.00  0.00    +0.032 HD
ATOM     27  H   UNL     1     156.097 158.577 188.942  0.00  0.00    +0.027 HD
ATOM     28  H   UNL     1     156.548 158.426 190.614  0.00  0.00    +0.027 HD
ATOM     29  H   UNL     1     155.783 156.222 190.840  0.00  0.00    +0.029 HD
ATOM     30  H   UNL     1     154.504 157.241 190.213  0.00  0.00    +0.029 HD
ATOM     31  H   UNL     1     154.330 155.079 189.200  0.00  0.00    +0.064 HD
ATOM     32  H   UNL     1     153.982 158.061 188.103  0.00  0.00    +0.057 HD
ATOM     33  H   UNL     1     152.690 158.481 186.146  0.00  0.00    +0.031 HD
ATOM     34  H   UNL     1     153.387 157.176 185.261  0.00  0.00    +0.031 HD
ATOM     35  H   UNL     1     155.606 158.405 185.196  0.00  0.00    +0.030 HD
ATOM     36  H   UNL     1     155.656 160.829 185.474  0.00  0.00    +0.030 HD
ATOM     37  H   UNL     1     155.486 159.974 186.996  0.00  0.00    +0.030 HD
ATOM     38  H   UNL     1     153.020 161.121 185.599  0.00  0.00    +0.064 HD
ATOM     39  H   UNL     1     154.881 162.593 187.597  0.00  0.00    +0.059 HD
ATOM     40  H   UNL     1     153.038 163.529 185.323  0.00  0.00    +0.057 HD
ATOM     41  H   UNL     1     153.772 165.694 185.697  0.00  0.00    +0.034 HD
ATOM     42  H   UNL     1     155.265 165.090 186.359  0.00  0.00    +0.034 HD
ATOM     43  H   UNL     1     154.008 166.646 187.898  0.00  0.00    +0.074 HD
ATOM     44  H   UNL     1     156.798 165.125 191.263  0.00  0.00    +0.069 HD
ATOM     45  H   UNL     1     156.992 164.135 188.342  0.00  0.00    +0.062 HD
ATOM     46  H   UNL     1     159.315 163.740 188.980  0.00  0.00    +0.061 HD
ATOM     47  H   UNL     1     157.949 162.491 191.445  0.00  0.00    +0.057 HD
ATOM     48  H   UNL     1     160.492 162.325 191.824  0.00  0.00    +0.034 HD
ATOM     49  H   UNL     1     160.738 162.264 190.086  0.00  0.00    +0.034 HD
ATOM     50  H   UNL     1     160.929 160.026 190.759  0.00  0.00    +0.074 HD
ATOM     51  H   UNL     1     157.972 160.147 190.011  0.00  0.00    +0.036 HD
ATOM     52  H   UNL     1     158.874 158.014 191.058  0.00  0.00    +0.060 HD
ENDROOT
BRANCH   1  53
ATOM     53  C   UNL     1     158.084 157.366 187.742  0.00  0.00    -0.060 C 
ATOM     54  H   UNL     1     158.005 156.344 187.369  0.00  0.00    +0.023 HD
ATOM     55  H   UNL     1     159.064 157.733 187.430  0.00  0.00    +0.023 HD
ATOM     56  H   UNL     1     157.320 157.947 187.223  0.00  0.00    +0.023 HD
ENDBRANCH   1  53
BRANCH   5  57
ATOM     57  C   UNL     1     154.959 155.195 186.351  0.00  0.00    -0.041 C 
ATOM     58  H   UNL     1     155.953 154.743 186.363  0.00  0.00    +0.028 HD
ATOM     59  H   UNL     1     154.244 154.369 186.422  0.00  0.00    +0.028 HD
ATOM     60  H   UNL     1     154.838 155.679 185.375  0.00  0.00    +0.028 HD
ENDBRANCH   5  57
BRANCH  24  61
ATOM     61  C   UNL     1     159.414 160.229 188.417  0.00  0.00    -0.057 C 
ATOM     62  H   UNL     1     159.023 161.220 188.177  0.00  0.00    +0.023 HD
ATOM     63  H   UNL     1     159.071 159.526 187.649  0.00  0.00    +0.023 HD
ATOM     64  H   UNL     1     160.497 160.313 188.312  0.00  0.00    +0.023 HD
ENDBRANCH  24  61
BRANCH   8  65
ATOM     65  C   UNL     1     154.192 159.257 183.863  0.00  0.00    -0.062 C 
ATOM     66  H   UNL     1     153.151 159.594 183.838  0.00  0.00    +0.023 HD
ATOM     67  H   UNL     1     154.815 160.042 183.420  0.00  0.00    +0.023 HD
ATOM     68  H   UNL     1     154.271 158.371 183.225  0.00  0.00    +0.023 HD
ENDBRANCH   8  65
BRANCH  14  69
ATOM     69  C   UNL     1     152.303 165.338 188.272  0.00  0.00    +0.020 C 
ATOM     70  H   UNL     1     151.765 165.036 187.369  0.00  0.00    +0.036 HD
BRANCH  69  71
ATOM     71  C   UNL     1     152.125 164.160 189.243  0.00  0.00    -0.057 C 
ATOM     72  H   UNL     1     152.262 163.200 188.733  0.00  0.00    +0.023 HD
ATOM     73  H   UNL     1     152.864 164.194 190.050  0.00  0.00    +0.023 HD
ATOM     74  H   UNL     1     151.125 164.159 189.687  0.00  0.00    +0.023 HD
ENDBRANCH  69  71
BRANCH  69  75
ATOM     75  C   UNL     1     151.611 166.598 188.874  0.00  0.00    +0.064 C 
ATOM     76  H   UNL     1     151.389 166.374 189.925  0.00  0.00    +0.060 HD
BRANCH  75  77
ATOM     77  C   UNL     1     150.276 166.966 188.163  0.00  0.00    -0.017 C 
ATOM     78  H   UNL     1     150.338 168.027 187.890  0.00  0.00    +0.032 HD
BRANCH  77  79
ATOM     79  C   UNL     1     150.137 166.205 186.838  0.00  0.00    -0.060 C 
ATOM     80  H   UNL     1     149.359 166.626 186.195  0.00  0.00    +0.023 HD
ATOM     81  H   UNL     1     149.878 165.157 187.026  0.00  0.00    +0.023 HD
ATOM     82  H   UNL     1     151.080 166.214 186.282  0.00  0.00    +0.023 HD
ENDBRANCH  77  79
BRANCH  77  83
ATOM     83  C   UNL     1     148.985 166.824 189.017  0.00  0.00    -0.045 C 
ATOM     84  H   UNL     1     148.222 166.363 188.378  0.00  0.00    +0.027 HD
ATOM     85  H   UNL     1     148.601 167.818 189.265  0.00  0.00    +0.027 HD
BRANCH  83  86
ATOM     86  C   UNL     1     149.095 166.006 190.315  0.00  0.00    -0.015 C 
ATOM     87  H   UNL     1     148.310 165.243 190.320  0.00  0.00    +0.030 HD
ATOM     88  H   UNL     1     150.067 165.506 190.342  0.00  0.00    +0.030 HD
BRANCH  86  89
ATOM     89  C   UNL     1     148.972 166.876 191.587  0.00  0.00    +0.109 C 
ATOM     90  H   UNL     1     149.020 167.930 191.288  0.00  0.00    +0.074 HD
BRANCH  89  91
ATOM     91  C   UNL     1     150.130 166.607 192.595  0.00  0.00    +0.031 C 
ATOM     92  H   UNL     1     150.626 165.690 192.246  0.00  0.00    +0.037 HD
BRANCH  91  93
ATOM     93  C   UNL     1     149.607 166.355 194.016  0.00  0.00    -0.056 C 
ATOM     94  H   UNL     1     148.684 166.910 194.211  0.00  0.00    +0.023 HD
ATOM     95  H   UNL     1     150.345 166.648 194.772  0.00  0.00    +0.023 HD
ATOM     96  H   UNL     1     149.361 165.302 194.176  0.00  0.00    +0.023 HD
ENDBRANCH  91  93
BRANCH  91  97
ATOM     97  C   UNL     1     151.177 167.770 192.586  0.00  0.00    +0.115 C 
ATOM     98  H   UNL     1     151.087 168.306 193.540  0.00  0.00    +0.074 HD
BRANCH  97  99
ATOM     99  C   UNL     1     152.654 167.289 192.435  0.00  0.00    +0.013 C 
ATOM    100  H   UNL     1     152.983 167.533 191.418  0.00  0.00    +0.038 HD
BRANCH  99 101
ATOM    101  C   UNL     1     152.798 165.767 192.570  0.00  0.00    -0.056 C 
ATOM    102  H   UNL     1     152.342 165.261 191.712  0.00  0.00    +0.024 HD
ATOM    103  H   UNL     1     153.848 165.453 192.613  0.00  0.00    +0.024 HD
ATOM    104  H   UNL     1     152.291 165.409 193.472  0.00  0.00    +0.024 HD
ENDBRANCH  99 101
BRANCH  99 105
ATOM    105  C   UNL     1     153.579 167.952 193.435  0.00  0.00    -0.064 C 
ATOM    106  C   UNL     1     154.892 167.689 193.507  0.00  0.00    -0.005 C 
ATOM    107  H   UNL     1     153.115 168.682 194.092  0.00  0.00    +0.059 HD
ATOM    108  H   UNL     1     155.330 166.950 192.837  0.00  0.00    +0.078 HD
BRANCH 106 109
ATOM    109  N   UNL     1     155.790 168.283 194.383  0.00  0.00    -0.284 N 
ATOM    110  C   UNL     1     157.105 168.507 193.978  0.00  0.00    +0.206 C 
ATOM    111  O   UNL     1     157.589 168.242 192.883  0.00  0.00    -0.279 OA
ATOM    112  H   UNL     1     157.717 168.974 194.767  0.00  0.00    +0.126 HD
BRANCH 109 113
ATOM    113  C   UNL     1     155.386 168.689 195.721  0.00  0.00    +0.007 C 
ATOM    114  H   UNL     1     155.851 169.649 195.963  0.00  0.00    +0.043 HD
ATOM    115  H   UNL     1     154.300 168.805 195.790  0.00  0.00    +0.043 HD
ATOM    116  H   UNL     1     155.695 167.925 196.444  0.00  0.00    +0.043 HD
ENDBRANCH 109 113
ENDBRANCH 106 109
ENDBRANCH  99 105
ENDBRANCH  97  99
BRANCH  97 117
ATOM    117  O   UNL     1     150.844 168.655 191.483  0.00  0.00    -0.461 OA
BRANCH 117 118
ATOM    118  C   UNL     1     151.166 169.971 191.631  0.00  0.00    +0.304 C 
ATOM    119  O   UNL     1     152.144 170.525 191.152  0.00  0.00    -0.251 OA
BRANCH 118 120
ATOM    120  C   UNL     1     150.114 170.674 192.432  0.00  0.00    +0.033 C 
ATOM    121  H   UNL     1     149.313 171.026 191.776  0.00  0.00    +0.034 HD
ATOM    122  H   UNL     1     149.680 169.972 193.149  0.00  0.00    +0.034 HD
ATOM    123  H   UNL     1     150.565 171.506 192.977  0.00  0.00    +0.034 HD
ENDBRANCH 118 120
ENDBRANCH 117 118
ENDBRANCH  97 117
ENDBRANCH  91  97
ENDBRANCH  89  91
BRANCH  89 124
ATOM    124  O   UNL     1     147.723 166.571 192.242  0.00  0.00    -0.460 OA
BRANCH 124 125
ATOM    125  C   UNL     1     146.603 167.225 191.824  0.00  0.00    +0.324 C 
ATOM    126  O   UNL     1     146.596 168.374 191.391  0.00  0.00    -0.249 OA
BRANCH 125 127
ATOM    127  C   UNL     1     145.320 166.392 192.015  0.00  0.00    +0.105 C 
ATOM    128  H   UNL     1     145.562 165.598 192.735  0.00  0.00    +0.058 HD
BRANCH 127 129
ATOM    129  C   UNL     1     145.024 165.743 190.659  0.00  0.00    -0.039 C 
ATOM    130  H   UNL     1     145.214 166.440 189.837  0.00  0.00    +0.025 HD
ATOM    131  H   UNL     1     145.662 164.865 190.508  0.00  0.00    +0.025 HD
ATOM    132  H   UNL     1     143.990 165.393 190.587  0.00  0.00    +0.025 HD
ENDBRANCH 127 129
BRANCH 127 133
ATOM    133  N   UNL     1     144.184 167.198 192.561  0.00  0.00    -0.296 NA
BRANCH 133 134
ATOM    134  C   UNL     1     143.513 166.488 193.659  0.00  0.00    -0.012 C 
ATOM    135  H   UNL     1     144.086 166.549 194.589  0.00  0.00    +0.039 HD
ATOM    136  H   UNL     1     143.352 165.430 193.420  0.00  0.00    +0.039 HD
ATOM    137  H   UNL     1     142.539 166.946 193.870  0.00  0.00    +0.039 HD
ENDBRANCH 133 134
BRANCH 133 138
ATOM    138  C   UNL     1     143.192 167.525 191.532  0.00  0.00    -0.012 C 
ATOM    139  H   UNL     1     143.684 167.787 190.587  0.00  0.00    +0.039 HD
ATOM    140  H   UNL     1     142.555 166.663 191.305  0.00  0.00    +0.039 HD
ATOM    141  H   UNL     1     142.556 168.367 191.831  0.00  0.00    +0.039 HD
ENDBRANCH 133 138
ENDBRANCH 127 133
ENDBRANCH 125 127
ENDBRANCH 124 125
ENDBRANCH  89 124
ENDBRANCH  86  89
ENDBRANCH  83  86
ENDBRANCH  77  83
ENDBRANCH  75  77
BRANCH  75 142
ATOM    142  O   UNL     1     152.491 167.712 188.911  0.00  0.00    -0.391 OA
ATOM    143  H   UNL     1     153.060 167.621 189.694  0.00  0.00    +0.210 HD
ENDBRANCH  75 142
ENDBRANCH  69  75
ENDBRANCH  14  69
BRANCH  25 144
ATOM    144  O   UNL     1     160.301 157.745 189.654  0.00  0.00    -0.391 OA
ATOM    145  H   UNL     1     160.508 158.044 188.753  0.00  0.00    +0.210 HD
ENDBRANCH  25 144
BRANCH  23 146
ATOM    146  O   UNL     1     159.427 160.066 192.226  0.00  0.00    -0.460 OA
BRANCH 146 147
ATOM    147  C   UNL     1     160.388 159.916 193.190  0.00  0.00    +0.327 C 
ATOM    148  O   UNL     1     160.404 160.523 194.258  0.00  0.00    -0.249 OA
BRANCH 147 149
ATOM    149  C   UNL     1     161.460 158.912 192.740  0.00  0.00    +0.131 C 
ATOM    150  H   UNL     1     161.485 158.924 191.643  0.00  0.00    +0.060 HD
BRANCH 149 151
ATOM    151  C   UNL     1     160.993 157.506 193.155  0.00  0.00    +0.073 C 
ATOM    152  H   UNL     1     161.096 156.815 192.310  0.00  0.00    +0.058 HD
ATOM    153  H   UNL     1     161.577 157.116 193.995  0.00  0.00    +0.058 HD
BRANCH 151 154
ATOM    154  O   UNL     1     159.603 157.560 193.507  0.00  0.00    -0.381 OA
BRANCH 154 155
ATOM    155  C   UNL     1     158.994 156.278 193.433  0.00  0.00    +0.037 C 
ATOM    156  H   UNL     1     158.863 155.854 194.432  0.00  0.00    +0.052 HD
ATOM    157  H   UNL     1     159.650 155.618 192.857  0.00  0.00    +0.052 HD
ATOM    158  H   UNL     1     158.030 156.340 192.920  0.00  0.00    +0.052 HD
ENDBRANCH 154 155
ENDBRANCH 151 154
ENDBRANCH 149 151
BRANCH 149 159
ATOM    159  N   UNL     1     162.823 159.212 193.279  0.00  0.00    -0.294 NA
BRANCH 159 160
ATOM    160  C   UNL     1     163.255 158.200 194.240  0.00  0.00    -0.012 C 
ATOM    161  H   UNL     1     164.152 157.663 193.918  0.00  0.00    +0.039 HD
ATOM    162  H   UNL     1     162.454 157.477 194.405  0.00  0.00    +0.039 HD
ATOM    163  H   UNL     1     163.462 158.650 195.217  0.00  0.00    +0.039 HD
ENDBRANCH 159 160
BRANCH 159 164
ATOM    164  C   UNL     1     163.836 159.417 192.243  0.00  0.00    -0.012 C 
ATOM    165  H   UNL     1     163.922 160.466 191.940  0.00  0.00    +0.039 HD
ATOM    166  H   UNL     1     163.585 158.835 191.349  0.00  0.00    +0.039 HD
ATOM    167  H   UNL     1     164.819 159.065 192.571  0.00  0.00    +0.039 HD
ENDBRANCH 159 164
ENDBRANCH 149 159
ENDBRANCH 147 149
ENDBRANCH 146 147
ENDBRANCH  23 146
BRANCH   4 168
ATOM    168  O   UNL     1     156.326 154.871 188.704  0.00  0.00    -0.376 OA
BRANCH 168 169
ATOM    169  C   UNL     1     156.495 153.955 189.778  0.00  0.00    +0.037 C 
ATOM    170  H   UNL     1     157.124 153.133 189.427  0.00  0.00    +0.052 HD
ATOM    171  H   UNL     1     155.525 153.549 190.078  0.00  0.00    +0.052 HD
ATOM    172  H   UNL     1     156.988 154.432 190.630  0.00  0.00    +0.052 HD
ENDBRANCH 168 169
ENDBRANCH   4 168
BRANCH  10 173
ATOM    173  O   UNL     1     153.107 160.542 187.591  0.00  0.00    -0.376 OA
BRANCH 173 174
ATOM    174  C   UNL     1     151.698 160.744 187.634  0.00  0.00    +0.037 C 
ATOM    175  H   UNL     1     151.483 161.735 187.225  0.00  0.00    +0.052 HD
ATOM    176  H   UNL     1     151.184 160.003 187.017  0.00  0.00    +0.052 HD
ATOM    177  H   UNL     1     151.329 160.707 188.664  0.00  0.00    +0.052 HD
ENDBRANCH 173 174
ENDBRANCH  10 173
TORSDOF 45
ENDMDL
MODEL 2
REMARK VINA RESULT:      -4.7     11.714     19.971
REMARK  Name = Aplyronine A_conf1
REMARK  45 active torsions:
REMARK  status: ('A' for Active; 'I' for Inactive)
REMARK    1  A    between atoms: C_1  and  C_2
REMARK    2  A    between atoms: C_5  and  O_75
REMARK    3  A    between atoms: C_6  and  C_74
REMARK    4  A    between atoms: C_9  and  C_73
REMARK    5  A    between atoms: C_11  and  O_71
REMARK    6  A    between atoms: C_15  and  C_39
REMARK    7  A    between atoms: C_24  and  O_29
REMARK    8  A    between atoms: C_25  and  C_28
REMARK    9  A    between atoms: C_26  and  O_27
REMARK   10  A    between atoms: O_29  and  C_30
REMARK   11  A    between atoms: C_30  and  C_32
REMARK   12  A    between atoms: C_32  and  C_33
REMARK   13  A    between atoms: C_32  and  N_36
REMARK   14  A    between atoms: C_33  and  O_34
REMARK   15  A    between atoms: O_34  and  C_35
REMARK   16  A    between atoms: N_36  and  C_37
REMARK   17  A    between atoms: N_36  and  C_38
REMARK   18  A    between atoms: C_39  and  C_40
REMARK   19  A    between atoms: C_39  and  C_41
REMARK   20  A    between atoms: C_41  and  C_42
REMARK   21  A    between atoms: C_41  and  O_70
REMARK   22  A    between atoms: C_42  and  C_43
REMARK   23  A    between atoms: C_42  and  C_44
REMARK   24  A    between atoms: C_44  and  C_45
REMARK   25  A    between atoms: C_45  and  C_46
REMARK   26  A    between atoms: C_46  and  C_47
REMARK   27  A    between atoms: C_46  and  O_62
REMARK   28  A    between atoms: C_47  and  C_48
REMARK   29  A    between atoms: C_47  and  C_49
REMARK   30  A    between atoms: C_49  and  C_50
REMARK   31  A    between atoms: C_49  and  O_58
REMARK   32  A    between atoms: C_50  and  C_51
REMARK   33  A    between atoms: C_50  and  C_52
REMARK   34  A    between atoms: C_53  and  N_54
REMARK   35  A    between atoms: N_54  and  C_55
REMARK   36  A    between atoms: O_58  and  C_59
REMARK   37  A    between atoms: C_59  and  C_61
REMARK   38  A    between atoms: O_62  and  C_63
REMARK   39  A    between atoms: C_63  and  C_65
REMARK   40  A    between atoms: C_65  and  C_66
REMARK   41  A    between atoms: C_65  and  N_67
REMARK   42  A    between atoms: N_67  and  C_68
REMARK   43  A    between atoms: N_67  and  C_69
REMARK   44  A    between atoms: O_71  and  C_72
REMARK   45  A    between atoms: O_75  and  C_76
REMARK                            x       y       z     vdW  Elec       q    Type
REMARK                         _______ _______ _______ _____ _____    ______ ____
ROOT
ATOM      1  C   UNL     1     141.620 174.280 192.083  0.00  0.00    -0.017 C 
ATOM      2  C   UNL     1     142.579 175.481 191.960  0.00  0.00    -0.045 C 
ATOM      3  C   UNL     1     142.755 176.367 193.212  0.00  0.00    -0.022 C 
ATOM      4  C   UNL     1     141.513 177.001 193.874  0.00  0.00    +0.079 C 
ATOM      5  C   UNL     1     140.596 177.875 193.012  0.00  0.00    -0.048 C 
ATOM      6  C   UNL     1     141.015 178.493 191.885  0.00  0.00    -0.082 C 
ATOM      7  C   UNL     1     140.226 179.405 190.982  0.00  0.00    -0.032 C 
ATOM      8  C   UNL     1     139.654 178.686 189.745  0.00  0.00    -0.038 C 
ATOM      9  C   UNL     1     140.703 178.141 188.742  0.00  0.00    -0.020 C 
ATOM     10  C   UNL     1     141.706 179.176 188.188  0.00  0.00    +0.077 C 
ATOM     11  C   UNL     1     142.347 178.644 186.928  0.00  0.00    -0.059 C 
ATOM     12  C   UNL     1     142.307 179.260 185.733  0.00  0.00    -0.082 C 
ATOM     13  C   UNL     1     142.963 178.754 184.466  0.00  0.00    +0.003 C 
ATOM     14  C   UNL     1     144.514 178.647 184.471  0.00  0.00    +0.112 C 
ATOM     15  O   UNL     1     144.801 177.486 185.289  0.00  0.00    -0.458 OA
ATOM     16  C   UNL     1     145.680 176.573 184.806  0.00  0.00    +0.332 C 
ATOM     17  O   UNL     1     146.474 176.732 183.894  0.00  0.00    -0.246 OA
ATOM     18  C   UNL     1     145.514 175.283 185.508  0.00  0.00    +0.022 C 
ATOM     19  C   UNL     1     144.284 174.856 185.828  0.00  0.00    -0.055 C 
ATOM     20  C   UNL     1     143.947 173.570 186.383  0.00  0.00    -0.065 C 
ATOM     21  C   UNL     1     144.483 173.031 187.486  0.00  0.00    -0.081 C 
ATOM     22  C   UNL     1     143.962 171.738 188.072  0.00  0.00    +0.003 C 
ATOM     23  C   UNL     1     143.486 171.841 189.544  0.00  0.00    +0.111 C 
ATOM     24  C   UNL     1     142.599 173.075 189.905  0.00  0.00    +0.020 C 
ATOM     25  C   UNL     1     142.208 173.007 191.408  0.00  0.00    +0.064 C 
ATOM     26  H   UNL     1     141.527 174.010 193.144  0.00  0.00    +0.032 HD
ATOM     27  H   UNL     1     142.303 176.096 191.099  0.00  0.00    +0.027 HD
ATOM     28  H   UNL     1     143.587 175.110 191.732  0.00  0.00    +0.027 HD
ATOM     29  H   UNL     1     143.263 175.749 193.964  0.00  0.00    +0.029 HD
ATOM     30  H   UNL     1     143.464 177.167 192.956  0.00  0.00    +0.029 HD
ATOM     31  H   UNL     1     141.872 177.664 194.674  0.00  0.00    +0.064 HD
ATOM     32  H   UNL     1     142.045 178.368 191.561  0.00  0.00    +0.057 HD
ATOM     33  H   UNL     1     140.865 180.242 190.684  0.00  0.00    +0.031 HD
ATOM     34  H   UNL     1     139.412 179.879 191.537  0.00  0.00    +0.031 HD
ATOM     35  H   UNL     1     139.086 177.814 190.100  0.00  0.00    +0.030 HD
ATOM     36  H   UNL     1     140.155 177.680 187.910  0.00  0.00    +0.030 HD
ATOM     37  H   UNL     1     141.258 177.328 189.229  0.00  0.00    +0.030 HD
ATOM     38  H   UNL     1     141.193 180.123 187.991  0.00  0.00    +0.064 HD
ATOM     39  H   UNL     1     142.886 177.704 187.039  0.00  0.00    +0.059 HD
ATOM     40  H   UNL     1     141.777 180.206 185.640  0.00  0.00    +0.057 HD
ATOM     41  H   UNL     1     142.629 179.395 183.643  0.00  0.00    +0.034 HD
ATOM     42  H   UNL     1     142.536 177.765 184.248  0.00  0.00    +0.034 HD
ATOM     43  H   UNL     1     144.830 178.439 183.439  0.00  0.00    +0.074 HD
ATOM     44  H   UNL     1     146.404 174.677 185.630  0.00  0.00    +0.069 HD
ATOM     45  H   UNL     1     143.417 175.470 185.585  0.00  0.00    +0.062 HD
ATOM     46  H   UNL     1     143.116 173.067 185.887  0.00  0.00    +0.061 HD
ATOM     47  H   UNL     1     145.292 173.524 188.024  0.00  0.00    +0.057 HD
ATOM     48  H   UNL     1     144.772 171.000 188.000  0.00  0.00    +0.034 HD
ATOM     49  H   UNL     1     143.137 171.351 187.463  0.00  0.00    +0.034 HD
ATOM     50  H   UNL     1     142.897 170.939 189.759  0.00  0.00    +0.074 HD
ATOM     51  H   UNL     1     143.204 173.976 189.753  0.00  0.00    +0.036 HD
ATOM     52  H   UNL     1     143.108 172.769 191.987  0.00  0.00    +0.060 HD
ENDROOT
BRANCH   1  53
ATOM     53  C   UNL     1     140.200 174.623 191.610  0.00  0.00    -0.060 C 
ATOM     54  H   UNL     1     139.659 173.724 191.309  0.00  0.00    +0.023 HD
ATOM     55  H   UNL     1     140.202 175.286 190.742  0.00  0.00    +0.023 HD
ATOM     56  H   UNL     1     139.609 175.093 192.397  0.00  0.00    +0.023 HD
ENDBRANCH   1  53
BRANCH   5  57
ATOM     57  C   UNL     1     139.197 178.027 193.564  0.00  0.00    -0.041 C 
ATOM     58  H   UNL     1     139.078 177.641 194.579  0.00  0.00    +0.028 HD
ATOM     59  H   UNL     1     138.908 179.083 193.600  0.00  0.00    +0.028 HD
ATOM     60  H   UNL     1     138.482 177.490 192.931  0.00  0.00    +0.028 HD
ENDBRANCH   5  57
BRANCH  24  61
ATOM     61  C   UNL     1     141.372 173.152 188.986  0.00  0.00    -0.057 C 
ATOM     62  H   UNL     1     141.610 172.806 187.977  0.00  0.00    +0.023 HD
ATOM     63  H   UNL     1     140.972 174.170 188.917  0.00  0.00    +0.023 HD
ATOM     64  H   UNL     1     140.555 172.512 189.325  0.00  0.00    +0.023 HD
ENDBRANCH  24  61
BRANCH   8  65
ATOM     65  C   UNL     1     138.645 179.595 189.035  0.00  0.00    -0.062 C 
ATOM     66  H   UNL     1     139.033 180.611 188.914  0.00  0.00    +0.023 HD
ATOM     67  H   UNL     1     138.397 179.204 188.042  0.00  0.00    +0.023 HD
ATOM     68  H   UNL     1     137.714 179.660 189.607  0.00  0.00    +0.023 HD
ENDBRANCH   8  65
BRANCH  14  69
ATOM     69  C   UNL     1     145.242 179.915 184.989  0.00  0.00    +0.020 C 
ATOM     70  H   UNL     1     144.480 180.656 185.248  0.00  0.00    +0.036 HD
BRANCH  69  71
ATOM     71  C   UNL     1     145.999 179.662 186.303  0.00  0.00    -0.057 C 
ATOM     72  H   UNL     1     147.083 179.720 186.155  0.00  0.00    +0.023 HD
ATOM     73  H   UNL     1     145.746 180.411 187.060  0.00  0.00    +0.023 HD
ATOM     74  H   UNL     1     145.773 178.671 186.706  0.00  0.00    +0.023 HD
ENDBRANCH  69  71
BRANCH  69  75
ATOM     75  C   UNL     1     146.223 180.541 183.953  0.00  0.00    +0.064 C 
ATOM     76  H   UNL     1     147.197 180.641 184.449  0.00  0.00    +0.060 HD
BRANCH  75  77
ATOM     77  C   UNL     1     145.781 181.950 183.459  0.00  0.00    -0.017 C 
ATOM     78  H   UNL     1     146.124 182.051 182.422  0.00  0.00    +0.032 HD
BRANCH  77  79
ATOM     79  C   UNL     1     144.251 182.051 183.401  0.00  0.00    -0.060 C 
ATOM     80  H   UNL     1     143.806 182.216 184.386  0.00  0.00    +0.023 HD
ATOM     81  H   UNL     1     143.823 181.126 182.997  0.00  0.00    +0.023 HD
ATOM     82  H   UNL     1     143.939 182.870 182.745  0.00  0.00    +0.023 HD
ENDBRANCH  77  79
BRANCH  77  83
ATOM     83  C   UNL     1     146.383 183.162 184.224  0.00  0.00    -0.045 C 
ATOM     84  H   UNL     1     145.730 183.361 185.082  0.00  0.00    +0.027 HD
ATOM     85  H   UNL     1     146.324 184.055 183.593  0.00  0.00    +0.027 HD
BRANCH  83  86
ATOM     86  C   UNL     1     147.828 183.018 184.730  0.00  0.00    -0.015 C 
ATOM     87  H   UNL     1     148.167 181.993 184.546  0.00  0.00    +0.030 HD
ATOM     88  H   UNL     1     148.472 183.703 184.174  0.00  0.00    +0.030 HD
BRANCH  86  89
ATOM     89  C   UNL     1     147.974 183.342 186.235  0.00  0.00    +0.109 C 
ATOM     90  H   UNL     1     148.361 182.450 186.742  0.00  0.00    +0.074 HD
BRANCH  89  91
ATOM     91  C   UNL     1     146.609 183.716 186.889  0.00  0.00    +0.031 C 
ATOM     92  H   UNL     1     145.838 183.438 186.155  0.00  0.00    +0.037 HD
BRANCH  91  93
ATOM     93  C   UNL     1     146.494 185.224 187.154  0.00  0.00    -0.056 C 
ATOM     94  H   UNL     1     145.517 185.486 187.573  0.00  0.00    +0.023 HD
ATOM     95  H   UNL     1     146.637 185.804 186.236  0.00  0.00    +0.023 HD
ATOM     96  H   UNL     1     147.232 185.562 187.885  0.00  0.00    +0.023 HD
ENDBRANCH  91  93
BRANCH  91  97
ATOM     97  C   UNL     1     146.362 182.900 188.200  0.00  0.00    +0.115 C 
ATOM     98  H   UNL     1     146.498 183.584 189.048  0.00  0.00    +0.074 HD
BRANCH  97  99
ATOM     99  C   UNL     1     144.933 182.280 188.299  0.00  0.00    +0.013 C 
ATOM    100  H   UNL     1     145.034 181.191 188.221  0.00  0.00    +0.038 HD
BRANCH  99 101
ATOM    101  C   UNL     1     144.022 182.702 187.137  0.00  0.00    -0.056 C 
ATOM    102  H   UNL     1     144.580 183.309 186.414  0.00  0.00    +0.024 HD
ATOM    103  H   UNL     1     143.618 181.840 186.594  0.00  0.00    +0.024 HD
ATOM    104  H   UNL     1     143.186 183.308 187.501  0.00  0.00    +0.024 HD
ENDBRANCH  99 101
BRANCH  99 105
ATOM    105  C   UNL     1     144.244 182.629 189.602  0.00  0.00    -0.064 C 
ATOM    106  C   UNL     1     144.779 183.448 190.520  0.00  0.00    -0.005 C 
ATOM    107  H   UNL     1     143.264 182.184 189.749  0.00  0.00    +0.059 HD
ATOM    108  H   UNL     1     145.765 183.877 190.347  0.00  0.00    +0.078 HD
BRANCH 106 109
ATOM    109  N   UNL     1     144.184 183.821 191.717  0.00  0.00    -0.284 N 
ATOM    110  C   UNL     1     144.902 184.583 192.637  0.00  0.00    +0.206 C 
ATOM    111  O   UNL     1     146.050 184.995 192.510  0.00  0.00    -0.279 OA
ATOM    112  H   UNL     1     144.322 184.804 193.549  0.00  0.00    +0.126 HD
BRANCH 109 113
ATOM    113  C   UNL     1     142.815 183.443 192.032  0.00  0.00    +0.007 C 
ATOM    114  H   UNL     1     142.311 183.114 191.118  0.00  0.00    +0.043 HD
ATOM    115  H   UNL     1     142.785 182.622 192.756  0.00  0.00    +0.043 HD
ATOM    116  H   UNL     1     142.289 184.300 192.466  0.00  0.00    +0.043 HD
ENDBRANCH 109 113
ENDBRANCH 106 109
ENDBRANCH  99 105
ENDBRANCH  97  99
BRANCH  97 117
ATOM    117  O   UNL     1     147.351 181.837 188.253  0.00  0.00    -0.461 OA
BRANCH 117 118
ATOM    118  C   UNL     1     147.800 181.474 189.487  0.00  0.00    +0.304 C 
ATOM    119  O   UNL     1     147.819 180.336 189.933  0.00  0.00    -0.251 OA
BRANCH 118 120
ATOM    120  C   UNL     1     148.323 182.669 190.220  0.00  0.00    +0.033 C 
ATOM    121  H   UNL     1     148.477 183.501 189.526  0.00  0.00    +0.034 HD
ATOM    122  H   UNL     1     147.588 182.983 190.966  0.00  0.00    +0.034 HD
ATOM    123  H   UNL     1     149.255 182.408 190.727  0.00  0.00    +0.034 HD
ENDBRANCH 118 120
ENDBRANCH 117 118
ENDBRANCH  97 117
ENDBRANCH  91  97
ENDBRANCH  89  91
BRANCH  89 124
ATOM    124  O   UNL     1     148.869 184.464 186.386  0.00  0.00    -0.460 OA
BRANCH 124 125
ATOM    125  C   UNL     1     149.983 184.297 187.153  0.00  0.00    +0.324 C 
ATOM    126  O   UNL     1     150.471 183.205 187.433  0.00  0.00    -0.249 OA
BRANCH 125 127
ATOM    127  C   UNL     1     150.536 185.628 187.698  0.00  0.00    +0.105 C 
ATOM    128  H   UNL     1     151.554 185.425 188.058  0.00  0.00    +0.058 HD
BRANCH 127 129
ATOM    129  C   UNL     1     149.661 185.995 188.901  0.00  0.00    -0.039 C 
ATOM    130  H   UNL     1     150.231 186.551 189.651  0.00  0.00    +0.025 HD
ATOM    131  H   UNL     1     148.821 186.624 188.586  0.00  0.00    +0.025 HD
ATOM    132  H   UNL     1     149.226 185.112 189.379  0.00  0.00    +0.025 HD
ENDBRANCH 127 129
BRANCH 127 133
ATOM    133  N   UNL     1     150.606 186.696 186.653  0.00  0.00    -0.296 NA
BRANCH 133 134
ATOM    134  C   UNL     1     151.974 187.216 186.521  0.00  0.00    -0.012 C 
ATOM    135  H   UNL     1     152.258 187.826 187.384  0.00  0.00    +0.039 HD
ATOM    136  H   UNL     1     152.094 187.821 185.615  0.00  0.00    +0.039 HD
ATOM    137  H   UNL     1     152.695 186.389 186.482  0.00  0.00    +0.039 HD
ENDBRANCH 133 134
BRANCH 133 138
ATOM    138  C   UNL     1     149.700 187.812 186.939  0.00  0.00    -0.012 C 
ATOM    139  H   UNL     1     150.264 188.732 187.136  0.00  0.00    +0.039 HD
ATOM    140  H   UNL     1     149.061 188.037 186.077  0.00  0.00    +0.039 HD
ATOM    141  H   UNL     1     149.063 187.609 187.809  0.00  0.00    +0.039 HD
ENDBRANCH 133 138
ENDBRANCH 127 133
ENDBRANCH 125 127
ENDBRANCH 124 125
ENDBRANCH  89 124
ENDBRANCH  86  89
ENDBRANCH  83  86
ENDBRANCH  77  83
ENDBRANCH  75  77
BRANCH  75 142
ATOM    142  O   UNL     1     146.453 179.668 182.856  0.00  0.00    -0.391 OA
ATOM    143  H   UNL     1     147.322 179.250 182.982  0.00  0.00    +0.210 HD
ENDBRANCH  75 142
ENDBRANCH  69  75
ENDBRANCH  14  69
BRANCH  25 144
ATOM    144  O   UNL     1     141.326 171.894 191.613  0.00  0.00    -0.391 OA
ATOM    145  H   UNL     1     141.161 171.818 192.567  0.00  0.00    +0.210 HD
ENDBRANCH  25 144
BRANCH  23 146
ATOM    146  O   UNL     1     144.678 171.863 190.377  0.00  0.00    -0.460 OA
BRANCH 146 147
ATOM    147  C   UNL     1     145.379 170.687 190.428  0.00  0.00    +0.327 C 
ATOM    148  O   UNL     1     144.877 169.585 190.636  0.00  0.00    -0.249 OA
BRANCH 147 149
ATOM    149  C   UNL     1     146.881 170.937 190.222  0.00  0.00    +0.131 C 
ATOM    150  H   UNL     1     146.999 171.475 189.272  0.00  0.00    +0.060 HD
BRANCH 149 151
ATOM    151  C   UNL     1     147.566 169.571 190.043  0.00  0.00    +0.073 C 
ATOM    152  H   UNL     1     148.622 169.645 190.328  0.00  0.00    +0.058 HD
ATOM    153  H   UNL     1     147.093 168.797 190.657  0.00  0.00    +0.058 HD
BRANCH 151 154
ATOM    154  O   UNL     1     147.512 169.200 188.658  0.00  0.00    -0.381 OA
BRANCH 154 155
ATOM    155  C   UNL     1     147.229 167.816 188.498  0.00  0.00    +0.037 C 
ATOM    156  H   UNL     1     146.247 167.573 188.914  0.00  0.00    +0.052 HD
ATOM    157  H   UNL     1     147.988 167.245 189.040  0.00  0.00    +0.052 HD
ATOM    158  H   UNL     1     147.273 167.534 187.442  0.00  0.00    +0.052 HD
ENDBRANCH 154 155
ENDBRANCH 151 154
ENDBRANCH 149 151
BRANCH 149 159
ATOM    159  N   UNL     1     147.513 171.722 191.328  0.00  0.00    -0.294 NA
BRANCH 159 160
ATOM    160  C   UNL     1     148.338 170.873 192.184  0.00  0.00    -0.012 C 
ATOM    161  H   UNL     1     148.300 169.818 191.901  0.00  0.00    +0.039 HD
ATOM    162  H   UNL     1     148.018 170.968 193.224  0.00  0.00    +0.039 HD
ATOM    163  H   UNL     1     149.385 171.192 192.161  0.00  0.00    +0.039 HD
ENDBRANCH 159 160
BRANCH 159 164
ATOM    164  C   UNL     1     148.265 172.890 190.869  0.00  0.00    -0.012 C 
ATOM    165  H   UNL     1     149.333 172.821 191.104  0.00  0.00    +0.039 HD
ATOM    166  H   UNL     1     147.881 173.798 191.345  0.00  0.00    +0.039 HD
ATOM    167  H   UNL     1     148.152 173.038 189.791  0.00  0.00    +0.039 HD
ENDBRANCH 159 164
ENDBRANCH 149 159
ENDBRANCH 147 149
ENDBRANCH 146 147
ENDBRANCH  23 146
BRANCH   4 168
ATOM    168  O   UNL     1     140.737 175.950 194.471  0.00  0.00    -0.376 OA
BRANCH 168 169
ATOM    169  C   UNL     1     141.367 175.355 195.599  0.00  0.00    +0.037 C 
ATOM    170  H   UNL     1     140.599 174.847 196.188  0.00  0.00    +0.052 HD
ATOM    171  H   UNL     1     141.827 176.129 196.219  0.00  0.00    +0.052 HD
ATOM    172  H   UNL     1     142.115 174.619 195.292  0.00  0.00    +0.052 HD
ENDBRANCH 168 169
ENDBRANCH   4 168
BRANCH  10 173
ATOM    173  O   UNL     1     142.726 179.372 189.171  0.00  0.00    -0.376 OA
BRANCH 173 174
ATOM    174  C   UNL     1     143.667 178.304 189.230  0.00  0.00    +0.037 C 
ATOM    175  H   UNL     1     143.458 177.714 190.126  0.00  0.00    +0.052 HD
ATOM    176  H   UNL     1     143.564 177.651 188.360  0.00  0.00    +0.052 HD
ATOM    177  H   UNL     1     144.690 178.688 189.299  0.00  0.00    +0.052 HD
ENDBRANCH 173 174
ENDBRANCH  10 173
TORSDOF 45
ENDMDL
MODEL 3
REMARK VINA RESULT:      -4.6      1.629      2.342
REMARK  Name = Aplyronine A_conf1
REMARK  45 active torsions:
REMARK  status: ('A' for Active; 'I' for Inactive)
REMARK    1  A    between atoms: C_1  and  C_2
REMARK    2  A    between atoms: C_5  and  O_75
REMARK    3  A    between atoms: C_6  and  C_74
REMARK    4  A    between atoms: C_9  and  C_73
REMARK    5  A    between atoms: C_11  and  O_71
REMARK    6  A    between atoms: C_15  and  C_39
REMARK    7  A    between atoms: C_24  and  O_29
REMARK    8  A    between atoms: C_25  and  C_28
REMARK    9  A    between atoms: C_26  and  O_27
REMARK   10  A    between atoms: O_29  and  C_30
REMARK   11  A    between atoms: C_30  and  C_32
REMARK   12  A    between atoms: C_32  and  C_33
REMARK   13  A    between atoms: C_32  and  N_36
REMARK   14  A    between atoms: C_33  and  O_34
REMARK   15  A    between atoms: O_34  and  C_35
REMARK   16  A    between atoms: N_36  and  C_37
REMARK   17  A    between atoms: N_36  and  C_38
REMARK   18  A    between atoms: C_39  and  C_40
REMARK   19  A    between atoms: C_39  and  C_41
REMARK   20  A    between atoms: C_41  and  C_42
REMARK   21  A    between atoms: C_41  and  O_70
REMARK   22  A    between atoms: C_42  and  C_43
REMARK   23  A    between atoms: C_42  and  C_44
REMARK   24  A    between atoms: C_44  and  C_45
REMARK   25  A    between atoms: C_45  and  C_46
REMARK   26  A    between atoms: C_46  and  C_47
REMARK   27  A    between atoms: C_46  and  O_62
REMARK   28  A    between atoms: C_47  and  C_48
REMARK   29  A    between atoms: C_47  and  C_49
REMARK   30  A    between atoms: C_49  and  C_50
REMARK   31  A    between atoms: C_49  and  O_58
REMARK   32  A    between atoms: C_50  and  C_51
REMARK   33  A    between atoms: C_50  and  C_52
REMARK   34  A    between atoms: C_53  and  N_54
REMARK   35  A    between atoms: N_54  and  C_55
REMARK   36  A    between atoms: O_58  and  C_59
REMARK   37  A    between atoms: C_59  and  C_61
REMARK   38  A    between atoms: O_62  and  C_63
REMARK   39  A    between atoms: C_63  and  C_65
REMARK   40  A    between atoms: C_65  and  C_66
REMARK   41  A    between atoms: C_65  and  N_67
REMARK   42  A    between atoms: N_67  and  C_68
REMARK   43  A    between atoms: N_67  and  C_69
REMARK   44  A    between atoms: O_71  and  C_72
REMARK   45  A    between atoms: O_75  and  C_76
REMARK                            x       y       z     vdW  Elec       q    Type
REMARK                         _______ _______ _______ _____ _____    ______ ____
ROOT
ATOM      1  C   UNL     1     157.731 157.550 188.518  0.00  0.00    -0.017 C 
ATOM      2  C   UNL     1     156.416 158.027 189.167  0.00  0.00    -0.045 C 
ATOM      3  C   UNL     1     155.474 156.937 189.721  0.00  0.00    -0.022 C 
ATOM      4  C   UNL     1     154.993 155.803 188.789  0.00  0.00    +0.079 C 
ATOM      5  C   UNL     1     154.280 156.186 187.488  0.00  0.00    -0.048 C 
ATOM      6  C   UNL     1     153.648 157.368 187.314  0.00  0.00    -0.082 C 
ATOM      7  C   UNL     1     152.882 157.839 186.106  0.00  0.00    -0.032 C 
ATOM      8  C   UNL     1     153.712 158.747 185.179  0.00  0.00    -0.038 C 
ATOM      9  C   UNL     1     154.141 160.108 185.783  0.00  0.00    -0.020 C 
ATOM     10  C   UNL     1     152.999 161.000 186.315  0.00  0.00    +0.077 C 
ATOM     11  C   UNL     1     153.480 162.426 186.444  0.00  0.00    -0.059 C 
ATOM     12  C   UNL     1     152.915 163.480 185.830  0.00  0.00    -0.082 C 
ATOM     13  C   UNL     1     153.369 164.918 185.966  0.00  0.00    +0.003 C 
ATOM     14  C   UNL     1     153.264 165.559 187.379  0.00  0.00    +0.112 C 
ATOM     15  O   UNL     1     154.348 164.963 188.135  0.00  0.00    -0.458 OA
ATOM     16  C   UNL     1     155.148 165.791 188.852  0.00  0.00    +0.332 C 
ATOM     17  O   UNL     1     154.913 166.945 189.167  0.00  0.00    -0.246 OA
ATOM     18  C   UNL     1     156.425 165.117 189.168  0.00  0.00    +0.022 C 
ATOM     19  C   UNL     1     157.005 164.329 188.251  0.00  0.00    -0.055 C 
ATOM     20  C   UNL     1     158.305 163.719 188.355  0.00  0.00    -0.065 C 
ATOM     21  C   UNL     1     158.730 162.951 189.366  0.00  0.00    -0.081 C 
ATOM     22  C   UNL     1     160.062 162.237 189.316  0.00  0.00    +0.003 C 
ATOM     23  C   UNL     1     159.977 160.698 189.483  0.00  0.00    +0.111 C 
ATOM     24  C   UNL     1     158.863 159.969 188.664  0.00  0.00    +0.020 C 
ATOM     25  C   UNL     1     158.935 158.442 188.943  0.00  0.00    +0.064 C 
ATOM     26  H   UNL     1     157.976 156.554 188.910  0.00  0.00    +0.032 HD
ATOM     27  H   UNL     1     155.873 158.679 188.478  0.00  0.00    +0.027 HD
ATOM     28  H   UNL     1     156.654 158.661 190.031  0.00  0.00    +0.027 HD
ATOM     29  H   UNL     1     155.992 156.480 190.574  0.00  0.00    +0.029 HD
ATOM     30  H   UNL     1     154.594 157.442 190.143  0.00  0.00    +0.029 HD
ATOM     31  H   UNL     1     154.261 155.206 189.353  0.00  0.00    +0.064 HD
ATOM     32  H   UNL     1     153.643 158.091 188.125  0.00  0.00    +0.057 HD
ATOM     33  H   UNL     1     151.975 158.352 186.444  0.00  0.00    +0.031 HD
ATOM     34  H   UNL     1     152.505 156.984 185.538  0.00  0.00    +0.031 HD
ATOM     35  H   UNL     1     154.641 158.212 184.933  0.00  0.00    +0.030 HD
ATOM     36  H   UNL     1     154.700 160.650 185.009  0.00  0.00    +0.030 HD
ATOM     37  H   UNL     1     154.855 159.917 186.595  0.00  0.00    +0.030 HD
ATOM     38  H   UNL     1     152.138 160.941 185.642  0.00  0.00    +0.064 HD
ATOM     39  H   UNL     1     154.334 162.573 187.103  0.00  0.00    +0.059 HD
ATOM     40  H   UNL     1     152.053 163.320 185.185  0.00  0.00    +0.057 HD
ATOM     41  H   UNL     1     152.805 165.511 185.237  0.00  0.00    +0.034 HD
ATOM     42  H   UNL     1     154.413 164.966 185.627  0.00  0.00    +0.034 HD
ATOM     43  H   UNL     1     153.461 166.633 187.265  0.00  0.00    +0.074 HD
ATOM     44  H   UNL     1     156.900 165.391 190.103  0.00  0.00    +0.069 HD
ATOM     45  H   UNL     1     156.522 164.175 187.287  0.00  0.00    +0.062 HD
ATOM     46  H   UNL     1     158.932 163.840 187.470  0.00  0.00    +0.061 HD
ATOM     47  H   UNL     1     158.115 162.783 190.249  0.00  0.00    +0.057 HD
ATOM     48  H   UNL     1     160.685 162.657 190.118  0.00  0.00    +0.034 HD
ATOM     49  H   UNL     1     160.577 162.460 188.376  0.00  0.00    +0.034 HD
ATOM     50  H   UNL     1     160.943 160.282 189.164  0.00  0.00    +0.074 HD
ATOM     51  H   UNL     1     157.894 160.334 189.023  0.00  0.00    +0.036 HD
ATOM     52  H   UNL     1     159.029 158.294 190.025  0.00  0.00    +0.060 HD
ENDROOT
BRANCH   1  53
ATOM     53  C   UNL     1     157.600 157.384 186.997  0.00  0.00    -0.060 C 
ATOM     54  H   UNL     1     156.662 157.805 186.635  0.00  0.00    +0.023 HD
ATOM     55  H   UNL     1     157.604 156.334 186.695  0.00  0.00    +0.023 HD
ATOM     56  H   UNL     1     158.400 157.897 186.459  0.00  0.00    +0.023 HD
ENDBRANCH   1  53
BRANCH   5  57
ATOM     57  C   UNL     1     154.301 155.100 186.436  0.00  0.00    -0.041 C 
ATOM     58  H   UNL     1     154.623 154.126 186.812  0.00  0.00    +0.028 HD
ATOM     59  H   UNL     1     153.302 154.952 186.012  0.00  0.00    +0.028 HD
ATOM     60  H   UNL     1     154.987 155.374 185.626  0.00  0.00    +0.028 HD
ENDBRANCH   5  57
BRANCH  24  61
ATOM     61  C   UNL     1     158.984 160.296 187.169  0.00  0.00    -0.057 C 
ATOM     62  H   UNL     1     160.027 160.284 186.844  0.00  0.00    +0.023 HD
ATOM     63  H   UNL     1     158.557 161.276 186.926  0.00  0.00    +0.023 HD
ATOM     64  H   UNL     1     158.477 159.563 186.539  0.00  0.00    +0.023 HD
ENDBRANCH  24  61
BRANCH   8  65
ATOM     65  C   UNL     1     152.972 158.951 183.852  0.00  0.00    -0.062 C 
ATOM     66  H   UNL     1     152.349 159.851 183.872  0.00  0.00    +0.023 HD
ATOM     67  H   UNL     1     153.678 159.043 183.020  0.00  0.00    +0.023 HD
ATOM     68  H   UNL     1     152.318 158.099 183.638  0.00  0.00    +0.023 HD
ENDBRANCH   8  65
BRANCH  14  69
ATOM     69  C   UNL     1     151.892 165.354 188.074  0.00  0.00    +0.020 C 
ATOM     70  H   UNL     1     151.149 165.156 187.297  0.00  0.00    +0.036 HD
BRANCH  69  71
ATOM     71  C   UNL     1     151.866 164.100 188.965  0.00  0.00    -0.057 C 
ATOM     72  H   UNL     1     152.182 163.211 188.409  0.00  0.00    +0.023 HD
ATOM     73  H   UNL     1     152.550 164.200 189.812  0.00  0.00    +0.023 HD
ATOM     74  H   UNL     1     150.860 163.909 189.350  0.00  0.00    +0.023 HD
ENDBRANCH  69  71
BRANCH  69  75
ATOM     75  C   UNL     1     151.428 166.580 188.916  0.00  0.00    +0.064 C 
ATOM     76  H   UNL     1     151.655 166.357 189.966  0.00  0.00    +0.060 HD
BRANCH  75  77
ATOM     77  C   UNL     1     149.903 166.867 188.798  0.00  0.00    -0.017 C 
ATOM     78  H   UNL     1     149.756 167.932 189.020  0.00  0.00    +0.032 HD
BRANCH  77  79
ATOM     79  C   UNL     1     149.424 166.677 187.352  0.00  0.00    -0.060 C 
ATOM     80  H   UNL     1     149.469 165.632 187.032  0.00  0.00    +0.023 HD
ATOM     81  H   UNL     1     150.047 167.260 186.664  0.00  0.00    +0.023 HD
ATOM     82  H   UNL     1     148.392 167.025 187.234  0.00  0.00    +0.023 HD
ENDBRANCH  77  79
BRANCH  77  83
ATOM     83  C   UNL     1     148.983 166.097 189.786  0.00  0.00    -0.045 C 
ATOM     84  H   UNL     1     149.181 165.028 189.648  0.00  0.00    +0.027 HD
ATOM     85  H   UNL     1     147.937 166.245 189.501  0.00  0.00    +0.027 HD
BRANCH  83  86
ATOM     86  C   UNL     1     149.132 166.434 191.280  0.00  0.00    -0.015 C 
ATOM     87  H   UNL     1     148.216 166.137 191.802  0.00  0.00    +0.030 HD
ATOM     88  H   UNL     1     149.968 165.865 191.694  0.00  0.00    +0.030 HD
BRANCH  86  89
ATOM     89  C   UNL     1     149.403 167.934 191.536  0.00  0.00    +0.109 C 
ATOM     90  H   UNL     1     149.734 168.388 190.594  0.00  0.00    +0.074 HD
BRANCH  89  91
ATOM     91  C   UNL     1     150.523 168.154 192.598  0.00  0.00    +0.031 C 
ATOM     92  H   UNL     1     150.013 168.510 193.504  0.00  0.00    +0.037 HD
BRANCH  91  93
ATOM     93  C   UNL     1     151.526 169.230 192.158  0.00  0.00    -0.056 C 
ATOM     94  H   UNL     1     151.217 170.228 192.486  0.00  0.00    +0.023 HD
ATOM     95  H   UNL     1     151.639 169.250 191.069  0.00  0.00    +0.023 HD
ATOM     96  H   UNL     1     152.514 169.064 192.596  0.00  0.00    +0.023 HD
ENDBRANCH  91  93
BRANCH  91  97
ATOM     97  C   UNL     1     151.258 166.815 192.938  0.00  0.00    +0.115 C 
ATOM     98  H   UNL     1     150.721 166.003 192.430  0.00  0.00    +0.074 HD
BRANCH  97  99
ATOM     99  C   UNL     1     152.748 166.777 192.477  0.00  0.00    +0.013 C 
ATOM    100  H   UNL     1     152.859 167.484 191.645  0.00  0.00    +0.038 HD
BRANCH  99 101
ATOM    101  C   UNL     1     153.160 165.407 191.920  0.00  0.00    -0.056 C 
ATOM    102  H   UNL     1     153.714 164.837 192.676  0.00  0.00    +0.024 HD
ATOM    103  H   UNL     1     152.295 164.801 191.626  0.00  0.00    +0.024 HD
ATOM    104  H   UNL     1     153.815 165.524 191.051  0.00  0.00    +0.024 HD
ENDBRANCH  99 101
BRANCH  99 105
ATOM    105  C   UNL     1     153.705 167.154 193.588  0.00  0.00    -0.064 C 
ATOM    106  C   UNL     1     154.752 167.973 193.410  0.00  0.00    -0.005 C 
ATOM    107  H   UNL     1     153.482 166.730 194.563  0.00  0.00    +0.059 HD
ATOM    108  H   UNL     1     154.953 168.381 192.419  0.00  0.00    +0.078 HD
BRANCH 106 109
ATOM    109  N   UNL     1     155.645 168.372 194.395  0.00  0.00    -0.284 N 
ATOM    110  C   UNL     1     157.001 168.487 194.092  0.00  0.00    +0.206 C 
ATOM    111  O   UNL     1     157.529 168.279 193.005  0.00  0.00    -0.279 OA
ATOM    112  H   UNL     1     157.603 168.802 194.961  0.00  0.00    +0.126 HD
BRANCH 109 113
ATOM    113  C   UNL     1     155.194 168.686 195.742  0.00  0.00    +0.007 C 
ATOM    114  H   UNL     1     156.063 168.895 196.375  0.00  0.00    +0.043 HD
ATOM    115  H   UNL     1     154.543 169.566 195.749  0.00  0.00    +0.043 HD
ATOM    116  H   UNL     1     154.628 167.839 196.144  0.00  0.00    +0.043 HD
ENDBRANCH 109 113
ENDBRANCH 106 109
ENDBRANCH  99 105
ENDBRANCH  97  99
BRANCH  97 117
ATOM    117  O   UNL     1     151.195 166.630 194.378  0.00  0.00    -0.461 OA
BRANCH 117 118
ATOM    118  C   UNL     1     150.267 165.748 194.846  0.00  0.00    +0.304 C 
ATOM    119  O   UNL     1     149.678 164.910 194.179  0.00  0.00    -0.251 OA
BRANCH 118 120
ATOM    120  C   UNL     1     150.097 165.912 196.324  0.00  0.00    +0.033 C 
ATOM    121  H   UNL     1     150.723 166.732 196.687  0.00  0.00    +0.034 HD
ATOM    122  H   UNL     1     149.055 166.161 196.540  0.00  0.00    +0.034 HD
ATOM    123  H   UNL     1     150.352 164.977 196.827  0.00  0.00    +0.034 HD
ENDBRANCH 118 120
ENDBRANCH 117 118
ENDBRANCH  97 117
ENDBRANCH  91  97
ENDBRANCH  89  91
BRANCH  89 124
ATOM    124  O   UNL     1     148.192 168.551 192.022  0.00  0.00    -0.460 OA
BRANCH 124 125
ATOM    125  C   UNL     1     147.178 168.759 191.136  0.00  0.00    +0.324 C 
ATOM    126  O   UNL     1     146.105 168.161 191.162  0.00  0.00    -0.249 OA
BRANCH 125 127
ATOM    127  C   UNL     1     147.542 169.784 190.044  0.00  0.00    +0.105 C 
ATOM    128  H   UNL     1     148.439 169.402 189.537  0.00  0.00    +0.058 HD
BRANCH 127 129
ATOM    129  C   UNL     1     147.913 171.078 190.777  0.00  0.00    -0.039 C 
ATOM    130  H   UNL     1     147.337 171.189 191.700  0.00  0.00    +0.025 HD
ATOM    131  H   UNL     1     148.975 171.076 191.043  0.00  0.00    +0.025 HD
ATOM    132  H   UNL     1     147.748 171.964 190.156  0.00  0.00    +0.025 HD
ENDBRANCH 127 129
BRANCH 127 133
ATOM    133  N   UNL     1     146.458 169.954 189.027  0.00  0.00    -0.296 NA
BRANCH 133 134
ATOM    134  C   UNL     1     146.875 169.429 187.719  0.00  0.00    -0.012 C 
ATOM    135  H   UNL     1     146.019 169.266 187.058  0.00  0.00    +0.039 HD
ATOM    136  H   UNL     1     147.423 168.485 187.816  0.00  0.00    +0.039 HD
ATOM    137  H   UNL     1     147.522 170.153 187.207  0.00  0.00    +0.039 HD
ENDBRANCH 133 134
BRANCH 133 138
ATOM    138  C   UNL     1     146.060 171.356 188.871  0.00  0.00    -0.012 C 
ATOM    139  H   UNL     1     145.789 171.794 189.839  0.00  0.00    +0.039 HD
ATOM    140  H   UNL     1     146.888 171.965 188.492  0.00  0.00    +0.039 HD
ATOM    141  H   UNL     1     145.203 171.465 188.194  0.00  0.00    +0.039 HD
ENDBRANCH 133 138
ENDBRANCH 127 133
ENDBRANCH 125 127
ENDBRANCH 124 125
ENDBRANCH  89 124
ENDBRANCH  86  89
ENDBRANCH  83  86
ENDBRANCH  77  83
ENDBRANCH  75  77
BRANCH  75 142
ATOM    142  O   UNL     1     152.188 167.742 188.612  0.00  0.00    -0.391 OA
ATOM    143  H   UNL     1     152.246 167.818 187.644  0.00  0.00    +0.210 HD
ENDBRANCH  75 142
ENDBRANCH  69  75
ENDBRANCH  14  69
BRANCH  25 144
ATOM    144  O   UNL     1     160.149 157.920 188.386  0.00  0.00    -0.391 OA
ATOM    145  H   UNL     1     160.004 156.981 188.183  0.00  0.00    +0.210 HD
ENDBRANCH  25 144
BRANCH  23 146
ATOM    146  O   UNL     1     159.766 160.432 190.897  0.00  0.00    -0.460 OA
BRANCH 146 147
ATOM    147  C   UNL     1     160.839 159.898 191.559  0.00  0.00    +0.327 C 
ATOM    148  O   UNL     1     161.972 159.808 191.091  0.00  0.00    -0.249 OA
BRANCH 147 149
ATOM    149  C   UNL     1     160.428 159.396 192.951  0.00  0.00    +0.131 C 
ATOM    150  H   UNL     1     160.745 158.348 193.031  0.00  0.00    +0.060 HD
BRANCH 149 151
ATOM    151  C   UNL     1     158.890 159.397 193.018  0.00  0.00    +0.073 C 
ATOM    152  H   UNL     1     158.549 160.166 193.720  0.00  0.00    +0.058 HD
ATOM    153  H   UNL     1     158.442 159.597 192.039  0.00  0.00    +0.058 HD
BRANCH 151 154
ATOM    154  O   UNL     1     158.444 158.125 193.510  0.00  0.00    -0.381 OA
BRANCH 154 155
ATOM    155  C   UNL     1     158.177 157.218 192.449  0.00  0.00    +0.037 C 
ATOM    156  H   UNL     1     157.328 157.563 191.850  0.00  0.00    +0.052 HD
ATOM    157  H   UNL     1     157.925 156.246 192.882  0.00  0.00    +0.052 HD
ATOM    158  H   UNL     1     159.060 157.096 191.816  0.00  0.00    +0.052 HD
ENDBRANCH 154 155
ENDBRANCH 151 154
ENDBRANCH 149 151
BRANCH 149 159
ATOM    159  N   UNL     1     161.021 160.191 194.072  0.00  0.00    -0.294 NA
BRANCH 159 160
ATOM    160  C   UNL     1     162.343 159.692 194.442  0.00  0.00    -0.012 C 
ATOM    161  H   UNL     1     162.700 160.096 195.392  0.00  0.00    +0.039 HD
ATOM    162  H   UNL     1     163.066 159.938 193.662  0.00  0.00    +0.039 HD
ATOM    163  H   UNL     1     162.342 158.599 194.518  0.00  0.00    +0.039 HD
ENDBRANCH 159 160
BRANCH 159 164
ATOM    164  C   UNL     1     161.056 161.632 193.820  0.00  0.00    -0.012 C 
ATOM    165  H   UNL     1     161.924 161.933 193.224  0.00  0.00    +0.039 HD
ATOM    166  H   UNL     1     161.100 162.180 194.768  0.00  0.00    +0.039 HD
ATOM    167  H   UNL     1     160.148 161.970 193.313  0.00  0.00    +0.039 HD
ENDBRANCH 159 164
ENDBRANCH 149 159
ENDBRANCH 147 149
ENDBRANCH 146 147
ENDBRANCH  23 146
BRANCH   4 168
ATOM    168  O   UNL     1     156.120 154.967 188.482  0.00  0.00    -0.376 OA
BRANCH 168 169
ATOM    169  C   UNL     1     156.527 154.147 189.570  0.00  0.00    +0.037 C 
ATOM    170  H   UNL     1     157.097 153.306 189.167  0.00  0.00    +0.052 HD
ATOM    171  H   UNL     1     155.649 153.757 190.092  0.00  0.00    +0.052 HD
ATOM    172  H   UNL     1     157.167 154.701 190.263  0.00  0.00    +0.052 HD
ENDBRANCH 168 169
ENDBRANCH   4 168
BRANCH  10 173
ATOM    173  O   UNL     1     152.635 160.522 187.613  0.00  0.00    -0.376 OA
BRANCH 173 174
ATOM    174  C   UNL     1     153.603 160.814 188.616  0.00  0.00    +0.037 C 
ATOM    175  H   UNL     1     153.075 161.159 189.509  0.00  0.00    +0.052 HD
ATOM    176  H   UNL     1     154.168 159.917 188.879  0.00  0.00    +0.052 HD
ATOM    177  H   UNL     1     154.280 161.609 188.286  0.00  0.00    +0.052 HD
ENDBRANCH 173 174
ENDBRANCH  10 173
TORSDOF 45
ENDMDL
MODEL 4
REMARK VINA RESULT:      -4.6      8.800     20.417
REMARK  Name = Aplyronine A_conf1
REMARK  45 active torsions:
REMARK  status: ('A' for Active; 'I' for Inactive)
REMARK    1  A    between atoms: C_1  and  C_2
REMARK    2  A    between atoms: C_5  and  O_75
REMARK    3  A    between atoms: C_6  and  C_74
REMARK    4  A    between atoms: C_9  and  C_73
REMARK    5  A    between atoms: C_11  and  O_71
REMARK    6  A    between atoms: C_15  and  C_39
REMARK    7  A    between atoms: C_24  and  O_29
REMARK    8  A    between atoms: C_25  and  C_28
REMARK    9  A    between atoms: C_26  and  O_27
REMARK   10  A    between atoms: O_29  and  C_30
REMARK   11  A    between atoms: C_30  and  C_32
REMARK   12  A    between atoms: C_32  and  C_33
REMARK   13  A    between atoms: C_32  and  N_36
REMARK   14  A    between atoms: C_33  and  O_34
REMARK   15  A    between atoms: O_34  and  C_35
REMARK   16  A    between atoms: N_36  and  C_37
REMARK   17  A    between atoms: N_36  and  C_38
REMARK   18  A    between atoms: C_39  and  C_40
REMARK   19  A    between atoms: C_39  and  C_41
REMARK   20  A    between atoms: C_41  and  C_42
REMARK   21  A    between atoms: C_41  and  O_70
REMARK   22  A    between atoms: C_42  and  C_43
REMARK   23  A    between atoms: C_42  and  C_44
REMARK   24  A    between atoms: C_44  and  C_45
REMARK   25  A    between atoms: C_45  and  C_46
REMARK   26  A    between atoms: C_46  and  C_47
REMARK   27  A    between atoms: C_46  and  O_62
REMARK   28  A    between atoms: C_47  and  C_48
REMARK   29  A    between atoms: C_47  and  C_49
REMARK   30  A    between atoms: C_49  and  C_50
REMARK   31  A    between atoms: C_49  and  O_58
REMARK   32  A    between atoms: C_50  and  C_51
REMARK   33  A    between atoms: C_50  and  C_52
REMARK   34  A    between atoms: C_53  and  N_54
REMARK   35  A    between atoms: N_54  and  C_55
REMARK   36  A    between atoms: O_58  and  C_59
REMARK   37  A    between atoms: C_59  and  C_61
REMARK   38  A    between atoms: O_62  and  C_63
REMARK   39  A    between atoms: C_63  and  C_65
REMARK   40  A    between atoms: C_65  and  C_66
REMARK   41  A    between atoms: C_65  and  N_67
REMARK   42  A    between atoms: N_67  and  C_68
REMARK   43  A    between atoms: N_67  and  C_69
REMARK   44  A    between atoms: O_71  and  C_72
REMARK   45  A    between atoms: O_75  and  C_76
REMARK                            x       y       z     vdW  Elec       q    Type
REMARK                         _______ _______ _______ _____ _____    ______ ____
ROOT
ATOM      1  C   UNL     1     135.054 174.739 195.451  0.00  0.00    -0.017 C 
ATOM      2  C   UNL     1     136.354 173.992 195.813  0.00  0.00    -0.045 C 
ATOM      3  C   UNL     1     136.899 174.190 197.244  0.00  0.00    -0.022 C 
ATOM      4  C   UNL     1     137.183 175.617 197.758  0.00  0.00    +0.079 C 
ATOM      5  C   UNL     1     138.132 176.507 196.948  0.00  0.00    -0.048 C 
ATOM      6  C   UNL     1     139.067 176.011 196.108  0.00  0.00    -0.082 C 
ATOM      7  C   UNL     1     140.079 176.775 195.295  0.00  0.00    -0.032 C 
ATOM      8  C   UNL     1     139.642 176.993 193.834  0.00  0.00    -0.038 C 
ATOM      9  C   UNL     1     139.509 175.709 192.975  0.00  0.00    -0.020 C 
ATOM     10  C   UNL     1     140.766 174.816 192.898  0.00  0.00    +0.077 C 
ATOM     11  C   UNL     1     140.662 173.885 191.714  0.00  0.00    -0.059 C 
ATOM     12  C   UNL     1     141.558 173.822 190.712  0.00  0.00    -0.082 C 
ATOM     13  C   UNL     1     141.482 172.880 189.530  0.00  0.00    +0.003 C 
ATOM     14  C   UNL     1     141.567 171.358 189.835  0.00  0.00    +0.112 C 
ATOM     15  O   UNL     1     140.278 171.024 190.405  0.00  0.00    -0.458 OA
ATOM     16  C   UNL     1     139.636 169.932 189.920  0.00  0.00    +0.332 C 
ATOM     17  O   UNL     1     140.122 169.031 189.257  0.00  0.00    -0.246 OA
ATOM     18  C   UNL     1     138.198 169.995 190.254  0.00  0.00    +0.022 C 
ATOM     19  C   UNL     1     137.555 171.171 190.201  0.00  0.00    -0.055 C 
ATOM     20  C   UNL     1     136.138 171.374 190.361  0.00  0.00    -0.065 C 
ATOM     21  C   UNL     1     135.401 170.953 191.397  0.00  0.00    -0.081 C 
ATOM     22  C   UNL     1     133.947 171.340 191.545  0.00  0.00    +0.003 C 
ATOM     23  C   UNL     1     133.605 172.074 192.867  0.00  0.00    +0.111 C 
ATOM     24  C   UNL     1     134.585 173.207 193.309  0.00  0.00    +0.020 C 
ATOM     25  C   UNL     1     134.081 173.835 194.639  0.00  0.00    +0.064 C 
ATOM     26  H   UNL     1     134.509 174.967 196.377  0.00  0.00    +0.032 HD
ATOM     27  H   UNL     1     137.133 174.216 195.079  0.00  0.00    +0.027 HD
ATOM     28  H   UNL     1     136.181 172.912 195.723  0.00  0.00    +0.027 HD
ATOM     29  H   UNL     1     136.173 173.721 197.922  0.00  0.00    +0.029 HD
ATOM     30  H   UNL     1     137.818 173.594 197.334  0.00  0.00    +0.029 HD
ATOM     31  H   UNL     1     137.654 175.520 198.747  0.00  0.00    +0.064 HD
ATOM     32  H   UNL     1     139.158 174.934 195.988  0.00  0.00    +0.057 HD
ATOM     33  H   UNL     1     141.037 176.246 195.340  0.00  0.00    +0.031 HD
ATOM     34  H   UNL     1     140.290 177.741 195.761  0.00  0.00    +0.031 HD
ATOM     35  H   UNL     1     138.645 177.457 193.850  0.00  0.00    +0.030 HD
ATOM     36  H   UNL     1     139.217 176.018 191.964  0.00  0.00    +0.030 HD
ATOM     37  H   UNL     1     138.672 175.116 193.367  0.00  0.00    +0.030 HD
ATOM     38  H   UNL     1     141.662 175.442 192.822  0.00  0.00    +0.064 HD
ATOM     39  H   UNL     1     139.799 173.222 191.715  0.00  0.00    +0.059 HD
ATOM     40  H   UNL     1     142.423 174.482 190.731  0.00  0.00    +0.057 HD
ATOM     41  H   UNL     1     142.270 173.172 188.826  0.00  0.00    +0.034 HD
ATOM     42  H   UNL     1     140.539 173.088 189.005  0.00  0.00    +0.034 HD
ATOM     43  H   UNL     1     141.675 170.838 188.873  0.00  0.00    +0.074 HD
ATOM     44  H   UNL     1     137.695 169.050 190.417  0.00  0.00    +0.069 HD
ATOM     45  H   UNL     1     138.101 172.074 189.929  0.00  0.00    +0.062 HD
ATOM     46  H   UNL     1     135.684 172.008 189.599  0.00  0.00    +0.061 HD
ATOM     47  H   UNL     1     135.832 170.346 192.191  0.00  0.00    +0.057 HD
ATOM     48  H   UNL     1     133.358 170.416 191.477  0.00  0.00    +0.034 HD
ATOM     49  H   UNL     1     133.633 171.968 190.704  0.00  0.00    +0.034 HD
ATOM     50  H   UNL     1     132.613 172.529 192.740  0.00  0.00    +0.074 HD
ATOM     51  H   UNL     1     135.561 172.748 193.500  0.00  0.00    +0.036 HD
ATOM     52  H   UNL     1     133.814 173.022 195.323  0.00  0.00    +0.060 HD
ENDROOT
BRANCH   1  53
ATOM     53  C   UNL     1     135.332 176.094 194.782  0.00  0.00    -0.060 C 
ATOM     54  H   UNL     1     136.243 176.057 194.184  0.00  0.00    +0.023 HD
ATOM     55  H   UNL     1     135.475 176.893 195.512  0.00  0.00    +0.023 HD
ATOM     56  H   UNL     1     134.527 176.388 194.106  0.00  0.00    +0.023 HD
ENDBRANCH   1  53
BRANCH   5  57
ATOM     57  C   UNL     1     137.964 177.985 197.213  0.00  0.00    -0.041 C 
ATOM     58  H   UNL     1     137.013 178.392 196.861  0.00  0.00    +0.028 HD
ATOM     59  H   UNL     1     138.008 178.193 198.288  0.00  0.00    +0.028 HD
ATOM     60  H   UNL     1     138.759 178.550 196.715  0.00  0.00    +0.028 HD
ENDBRANCH   5  57
BRANCH  24  61
ATOM     61  C   UNL     1     134.747 174.252 192.196  0.00  0.00    -0.057 C 
ATOM     62  H   UNL     1     134.086 174.038 191.353  0.00  0.00    +0.023 HD
ATOM     63  H   UNL     1     135.777 174.300 191.824  0.00  0.00    +0.023 HD
ATOM     64  H   UNL     1     134.481 175.258 192.524  0.00  0.00    +0.023 HD
ENDBRANCH  24  61
BRANCH   8  65
ATOM     65  C   UNL     1     140.575 178.004 193.157  0.00  0.00    -0.062 C 
ATOM     66  H   UNL     1     140.012 178.798 192.656  0.00  0.00    +0.023 HD
ATOM     67  H   UNL     1     141.245 178.469 193.888  0.00  0.00    +0.023 HD
ATOM     68  H   UNL     1     141.198 177.510 192.404  0.00  0.00    +0.023 HD
ENDBRANCH   8  65
BRANCH  14  69
ATOM     69  C   UNL     1     142.737 170.959 190.773  0.00  0.00    +0.020 C 
ATOM     70  H   UNL     1     143.065 171.858 191.301  0.00  0.00    +0.036 HD
BRANCH  69  71
ATOM     71  C   UNL     1     142.294 169.996 191.887  0.00  0.00    -0.057 C 
ATOM     72  H   UNL     1     141.201 169.935 191.949  0.00  0.00    +0.023 HD
ATOM     73  H   UNL     1     142.654 168.979 191.701  0.00  0.00    +0.023 HD
ATOM     74  H   UNL     1     142.663 170.322 192.864  0.00  0.00    +0.023 HD
ENDBRANCH  69  71
BRANCH  69  75
ATOM     75  C   UNL     1     143.955 170.339 190.025  0.00  0.00    +0.064 C 
ATOM     76  H   UNL     1     144.147 169.358 190.476  0.00  0.00    +0.060 HD
BRANCH  75  77
ATOM     77  C   UNL     1     145.252 171.193 190.147  0.00  0.00    -0.017 C 
ATOM     78  H   UNL     1     145.436 171.642 189.163  0.00  0.00    +0.032 HD
BRANCH  77  79
ATOM     79  C   UNL     1     145.039 172.372 191.107  0.00  0.00    -0.060 C 
ATOM     80  H   UNL     1     145.424 172.168 192.109  0.00  0.00    +0.023 HD
ATOM     81  H   UNL     1     143.971 172.596 191.203  0.00  0.00    +0.023 HD
ATOM     82  H   UNL     1     145.531 173.275 190.730  0.00  0.00    +0.023 HD
ENDBRANCH  77  79
BRANCH  77  83
ATOM     83  C   UNL     1     146.549 170.418 190.508  0.00  0.00    -0.045 C 
ATOM     84  H   UNL     1     146.518 170.217 191.586  0.00  0.00    +0.027 HD
ATOM     85  H   UNL     1     147.416 171.067 190.353  0.00  0.00    +0.027 HD
BRANCH  83  86
ATOM     86  C   UNL     1     146.796 169.091 189.770  0.00  0.00    -0.015 C 
ATOM     87  H   UNL     1     145.860 168.766 189.305  0.00  0.00    +0.030 HD
ATOM     88  H   UNL     1     147.538 169.252 188.983  0.00  0.00    +0.030 HD
BRANCH  86  89
ATOM     89  C   UNL     1     147.322 167.973 190.699  0.00  0.00    +0.109 C 
ATOM     90  H   UNL     1     147.365 168.368 191.721  0.00  0.00    +0.074 HD
BRANCH  89  91
ATOM     91  C   UNL     1     148.756 167.507 190.302  0.00  0.00    +0.031 C 
ATOM     92  H   UNL     1     149.124 168.250 189.580  0.00  0.00    +0.037 HD
BRANCH  91  93
ATOM     93  C   UNL     1     148.742 166.136 189.611  0.00  0.00    -0.056 C 
ATOM     94  H   UNL     1     148.354 165.355 190.272  0.00  0.00    +0.023 HD
ATOM     95  H   UNL     1     149.747 165.840 189.290  0.00  0.00    +0.023 HD
ATOM     96  H   UNL     1     148.093 166.133 188.732  0.00  0.00    +0.023 HD
ENDBRANCH  91  93
BRANCH  91  97
ATOM     97  C   UNL     1     149.716 167.499 191.537  0.00  0.00    +0.115 C 
ATOM     98  H   UNL     1     150.334 166.593 191.470  0.00  0.00    +0.074 HD
BRANCH  97  99
ATOM     99  C   UNL     1     150.668 168.733 191.606  0.00  0.00    +0.013 C 
ATOM    100  H   UNL     1     150.917 169.022 190.577  0.00  0.00    +0.038 HD
BRANCH  99 101
ATOM    101  C   UNL     1     152.005 168.412 192.287  0.00  0.00    -0.056 C 
ATOM    102  H   UNL     1     151.927 167.486 192.870  0.00  0.00    +0.024 HD
ATOM    103  H   UNL     1     152.816 168.273 191.563  0.00  0.00    +0.024 HD
ATOM    104  H   UNL     1     152.289 169.213 192.978  0.00  0.00    +0.024 HD
ENDBRANCH  99 101
BRANCH  99 105
ATOM    105  C   UNL     1     150.034 169.910 192.318  0.00  0.00    -0.064 C 
ATOM    106  C   UNL     1     149.838 171.102 191.737  0.00  0.00    -0.005 C 
ATOM    107  H   UNL     1     149.723 169.727 193.343  0.00  0.00    +0.059 HD
ATOM    108  H   UNL     1     150.162 171.258 190.708  0.00  0.00    +0.078 HD
BRANCH 106 109
ATOM    109  N   UNL     1     149.240 172.205 192.331  0.00  0.00    -0.284 N 
ATOM    110  C   UNL     1     148.722 173.224 191.533  0.00  0.00    +0.206 C 
ATOM    111  O   UNL     1     148.717 173.264 190.307  0.00  0.00    -0.279 OA
ATOM    112  H   UNL     1     148.285 174.045 192.126  0.00  0.00    +0.126 HD
BRANCH 109 113
ATOM    113  C   UNL     1     149.133 172.319 193.777  0.00  0.00    +0.007 C 
ATOM    114  H   UNL     1     149.225 173.371 194.065  0.00  0.00    +0.043 HD
ATOM    115  H   UNL     1     148.167 171.947 194.136  0.00  0.00    +0.043 HD
ATOM    116  H   UNL     1     149.924 171.727 194.251  0.00  0.00    +0.043 HD
ENDBRANCH 109 113
ENDBRANCH 106 109
ENDBRANCH  99 105
ENDBRANCH  97  99
BRANCH  97 117
ATOM    117  O   UNL     1     148.895 167.456 192.735  0.00  0.00    -0.461 OA
BRANCH 117 118
ATOM    118  C   UNL     1     149.157 166.459 193.626  0.00  0.00    +0.304 C 
ATOM    119  O   UNL     1     150.056 166.460 194.454  0.00  0.00    -0.251 OA
BRANCH 118 120
ATOM    120  C   UNL     1     148.148 165.362 193.487  0.00  0.00    +0.033 C 
ATOM    121  H   UNL     1     148.129 164.994 192.457  0.00  0.00    +0.034 HD
ATOM    122  H   UNL     1     148.430 164.530 194.138  0.00  0.00    +0.034 HD
ATOM    123  H   UNL     1     147.165 165.730 193.786  0.00  0.00    +0.034 HD
ENDBRANCH 118 120
ENDBRANCH 117 118
ENDBRANCH  97 117
ENDBRANCH  91  97
ENDBRANCH  89  91
BRANCH  89 124
ATOM    124  O   UNL     1     146.437 166.837 190.610  0.00  0.00    -0.460 OA
BRANCH 124 125
ATOM    125  C   UNL     1     145.434 166.732 191.526  0.00  0.00    +0.324 C 
ATOM    126  O   UNL     1     145.378 167.383 192.566  0.00  0.00    -0.249 OA
BRANCH 125 127
ATOM    127  C   UNL     1     144.398 165.652 191.155  0.00  0.00    +0.105 C 
ATOM    128  H   UNL     1     144.421 164.902 191.957  0.00  0.00    +0.058 HD
BRANCH 127 129
ATOM    129  C   UNL     1     144.905 164.998 189.865  0.00  0.00    -0.039 C 
ATOM    130  H   UNL     1     145.924 164.617 189.988  0.00  0.00    +0.025 HD
ATOM    131  H   UNL     1     144.264 164.155 189.586  0.00  0.00    +0.025 HD
ATOM    132  H   UNL     1     144.894 165.692 189.019  0.00  0.00    +0.025 HD
ENDBRANCH 127 129
BRANCH 127 133
ATOM    133  N   UNL     1     143.008 166.195 191.052  0.00  0.00    -0.296 NA
BRANCH 133 134
ATOM    134  C   UNL     1     142.208 165.824 192.227  0.00  0.00    -0.012 C 
ATOM    135  H   UNL     1     141.623 166.669 192.600  0.00  0.00    +0.039 HD
ATOM    136  H   UNL     1     142.836 165.450 193.044  0.00  0.00    +0.039 HD
ATOM    137  H   UNL     1     141.483 165.044 191.964  0.00  0.00    +0.039 HD
ENDBRANCH 133 134
BRANCH 133 138
ATOM    138  C   UNL     1     142.320 165.730 189.843  0.00  0.00    -0.012 C 
ATOM    139  H   UNL     1     141.277 166.070 189.835  0.00  0.00    +0.039 HD
ATOM    140  H   UNL     1     142.775 166.151 188.939  0.00  0.00    +0.039 HD
ATOM    141  H   UNL     1     142.324 164.636 189.766  0.00  0.00    +0.039 HD
ENDBRANCH 133 138
ENDBRANCH 127 133
ENDBRANCH 125 127
ENDBRANCH 124 125
ENDBRANCH  89 124
ENDBRANCH  86  89
ENDBRANCH  83  86
ENDBRANCH  77  83
ENDBRANCH  75  77
BRANCH  75 142
ATOM    142  O   UNL     1     143.651 170.069 188.664  0.00  0.00    -0.391 OA
ATOM    143  H   UNL     1     143.086 170.788 188.333  0.00  0.00    +0.210 HD
ENDBRANCH  75 142
ENDBRANCH  69  75
ENDBRANCH  14  69
BRANCH  25 144
ATOM    144  O   UNL     1     132.855 174.536 194.391  0.00  0.00    -0.391 OA
ATOM    145  H   UNL     1     132.246 174.335 195.121  0.00  0.00    +0.210 HD
ENDBRANCH  25 144
BRANCH  23 146
ATOM    146  O   UNL     1     133.555 171.065 193.915  0.00  0.00    -0.460 OA
BRANCH 146 147
ATOM    147  C   UNL     1     132.300 170.635 194.253  0.00  0.00    +0.327 C 
ATOM    148  O   UNL     1     131.323 170.682 193.510  0.00  0.00    -0.249 OA
BRANCH 147 149
ATOM    149  C   UNL     1     132.272 170.117 195.699  0.00  0.00    +0.131 C 
ATOM    150  H   UNL     1     133.307 169.885 195.987  0.00  0.00    +0.060 HD
BRANCH 149 151
ATOM    151  C   UNL     1     131.505 168.783 195.708  0.00  0.00    +0.073 C 
ATOM    152  H   UNL     1     130.923 168.695 196.633  0.00  0.00    +0.058 HD
ATOM    153  H   UNL     1     130.819 168.705 194.858  0.00  0.00    +0.058 HD
BRANCH 151 154
ATOM    154  O   UNL     1     132.447 167.702 195.679  0.00  0.00    -0.381 OA
BRANCH 154 155
ATOM    155  C   UNL     1     131.889 166.507 196.210  0.00  0.00    +0.037 C 
ATOM    156  H   UNL     1     131.225 166.034 195.480  0.00  0.00    +0.052 HD
ATOM    157  H   UNL     1     131.304 166.765 197.097  0.00  0.00    +0.052 HD
ATOM    158  H   UNL     1     132.679 165.812 196.507  0.00  0.00    +0.052 HD
ENDBRANCH 154 155
ENDBRANCH 151 154
ENDBRANCH 149 151
BRANCH 149 159
ATOM    159  N   UNL     1     131.683 171.089 196.672  0.00  0.00    -0.294 NA
BRANCH 159 160
ATOM    160  C   UNL     1     130.726 170.441 197.565  0.00  0.00    -0.012 C 
ATOM    161  H   UNL     1     131.106 170.322 198.583  0.00  0.00    +0.039 HD
ATOM    162  H   UNL     1     130.458 169.458 197.174  0.00  0.00    +0.039 HD
ATOM    163  H   UNL     1     129.792 171.010 197.617  0.00  0.00    +0.039 HD
ENDBRANCH 159 160
BRANCH 159 164
ATOM    164  C   UNL     1     132.682 171.842 197.432  0.00  0.00    -0.012 C 
ATOM    165  H   UNL     1     133.238 172.551 196.809  0.00  0.00    +0.039 HD
ATOM    166  H   UNL     1     133.409 171.158 197.882  0.00  0.00    +0.039 HD
ATOM    167  H   UNL     1     132.222 172.389 198.260  0.00  0.00    +0.039 HD
ENDBRANCH 159 164
ENDBRANCH 149 159
ENDBRANCH 147 149
ENDBRANCH 146 147
ENDBRANCH  23 146
BRANCH   4 168
ATOM    168  O   UNL     1     135.926 176.294 197.920  0.00  0.00    -0.376 OA
BRANCH 168 169
ATOM    169  C   UNL     1     135.190 175.854 199.055  0.00  0.00    +0.037 C 
ATOM    170  H   UNL     1     134.435 175.142 198.714  0.00  0.00    +0.052 HD
ATOM    171  H   UNL     1     134.685 176.702 199.523  0.00  0.00    +0.052 HD
ATOM    172  H   UNL     1     135.841 175.352 199.776  0.00  0.00    +0.052 HD
ENDBRANCH 168 169
ENDBRANCH   4 168
BRANCH  10 173
ATOM    173  O   UNL     1     140.823 174.030 194.092  0.00  0.00    -0.376 OA
BRANCH 173 174
ATOM    174  C   UNL     1     139.925 172.925 194.085  0.00  0.00    +0.037 C 
ATOM    175  H   UNL     1     140.286 172.187 194.806  0.00  0.00    +0.052 HD
ATOM    176  H   UNL     1     138.924 173.239 194.391  0.00  0.00    +0.052 HD
ATOM    177  H   UNL     1     139.891 172.455 193.096  0.00  0.00    +0.052 HD
ENDBRANCH 173 174
ENDBRANCH  10 173
TORSDOF 45
ENDMDL
MODEL 5
REMARK VINA RESULT:      -4.6     11.871     20.331
REMARK  Name = Aplyronine A_conf1
REMARK  45 active torsions:
REMARK  status: ('A' for Active; 'I' for Inactive)
REMARK    1  A    between atoms: C_1  and  C_2
REMARK    2  A    between atoms: C_5  and  O_75
REMARK    3  A    between atoms: C_6  and  C_74
REMARK    4  A    between atoms: C_9  and  C_73
REMARK    5  A    between atoms: C_11  and  O_71
REMARK    6  A    between atoms: C_15  and  C_39
REMARK    7  A    between atoms: C_24  and  O_29
REMARK    8  A    between atoms: C_25  and  C_28
REMARK    9  A    between atoms: C_26  and  O_27
REMARK   10  A    between atoms: O_29  and  C_30
REMARK   11  A    between atoms: C_30  and  C_32
REMARK   12  A    between atoms: C_32  and  C_33
REMARK   13  A    between atoms: C_32  and  N_36
REMARK   14  A    between atoms: C_33  and  O_34
REMARK   15  A    between atoms: O_34  and  C_35
REMARK   16  A    between atoms: N_36  and  C_37
REMARK   17  A    between atoms: N_36  and  C_38
REMARK   18  A    between atoms: C_39  and  C_40
REMARK   19  A    between atoms: C_39  and  C_41
REMARK   20  A    between atoms: C_41  and  C_42
REMARK   21  A    between atoms: C_41  and  O_70
REMARK   22  A    between atoms: C_42  and  C_43
REMARK   23  A    between atoms: C_42  and  C_44
REMARK   24  A    between atoms: C_44  and  C_45
REMARK   25  A    between atoms: C_45  and  C_46
REMARK   26  A    between atoms: C_46  and  C_47
REMARK   27  A    between atoms: C_46  and  O_62
REMARK   28  A    between atoms: C_47  and  C_48
REMARK   29  A    between atoms: C_47  and  C_49
REMARK   30  A    between atoms: C_49  and  C_50
REMARK   31  A    between atoms: C_49  and  O_58
REMARK   32  A    between atoms: C_50  and  C_51
REMARK   33  A    between atoms: C_50  and  C_52
REMARK   34  A    between atoms: C_53  and  N_54
REMARK   35  A    between atoms: N_54  and  C_55
REMARK   36  A    between atoms: O_58  and  C_59
REMARK   37  A    between atoms: C_59  and  C_61
REMARK   38  A    between atoms: O_62  and  C_63
REMARK   39  A    between atoms: C_63  and  C_65
REMARK   40  A    between atoms: C_65  and  C_66
REMARK   41  A    between atoms: C_65  and  N_67
REMARK   42  A    between atoms: N_67  and  C_68
REMARK   43  A    between atoms: N_67  and  C_69
REMARK   44  A    between atoms: O_71  and  C_72
REMARK   45  A    between atoms: O_75  and  C_76
REMARK                            x       y       z     vdW  Elec       q    Type
REMARK                         _______ _______ _______ _____ _____    ______ ____
ROOT
ATOM      1  C   UNL     1     141.327 174.240 192.275  0.00  0.00    -0.017 C 
ATOM      2  C   UNL     1     142.344 175.399 192.309  0.00  0.00    -0.045 C 
ATOM      3  C   UNL     1     142.570 176.091 193.670  0.00  0.00    -0.022 C 
ATOM      4  C   UNL     1     141.365 176.684 194.431  0.00  0.00    +0.079 C 
ATOM      5  C   UNL     1     140.487 177.714 193.711  0.00  0.00    -0.048 C 
ATOM      6  C   UNL     1     140.929 178.462 192.676  0.00  0.00    -0.082 C 
ATOM      7  C   UNL     1     140.180 179.529 191.920  0.00  0.00    -0.032 C 
ATOM      8  C   UNL     1     139.567 179.019 190.603  0.00  0.00    -0.038 C 
ATOM      9  C   UNL     1     140.581 178.571 189.519  0.00  0.00    -0.020 C 
ATOM     10  C   UNL     1     141.630 179.624 189.103  0.00  0.00    +0.077 C 
ATOM     11  C   UNL     1     142.237 179.245 187.773  0.00  0.00    -0.059 C 
ATOM     12  C   UNL     1     142.220 180.023 186.676  0.00  0.00    -0.082 C 
ATOM     13  C   UNL     1     142.843 179.669 185.343  0.00  0.00    +0.003 C 
ATOM     14  C   UNL     1     144.387 179.489 185.312  0.00  0.00    +0.112 C 
ATOM     15  O   UNL     1     144.621 178.212 185.956  0.00  0.00    -0.458 OA
ATOM     16  C   UNL     1     145.452 177.335 185.339  0.00  0.00    +0.332 C 
ATOM     17  O   UNL     1     146.247 177.582 184.448  0.00  0.00    -0.246 OA
ATOM     18  C   UNL     1     145.226 175.969 185.856  0.00  0.00    +0.022 C 
ATOM     19  C   UNL     1     143.978 175.560 186.128  0.00  0.00    -0.055 C 
ATOM     20  C   UNL     1     143.583 174.227 186.502  0.00  0.00    -0.065 C 
ATOM     21  C   UNL     1     144.098 173.513 187.512  0.00  0.00    -0.081 C 
ATOM     22  C   UNL     1     143.517 172.177 187.917  0.00  0.00    +0.003 C 
ATOM     23  C   UNL     1     143.056 172.095 189.395  0.00  0.00    +0.111 C 
ATOM     24  C   UNL     1     142.233 173.307 189.937  0.00  0.00    +0.020 C 
ATOM     25  C   UNL     1     141.848 173.047 191.421  0.00  0.00    +0.064 C 
ATOM     26  H   UNL     1     141.228 173.828 193.288  0.00  0.00    +0.032 HD
ATOM     27  H   UNL     1     142.093 176.141 191.547  0.00  0.00    +0.027 HD
ATOM     28  H   UNL     1     143.331 175.016 192.018  0.00  0.00    +0.027 HD
ATOM     29  H   UNL     1     143.052 175.349 194.321  0.00  0.00    +0.029 HD
ATOM     30  H   UNL     1     143.316 176.884 193.519  0.00  0.00    +0.029 HD
ATOM     31  H   UNL     1     141.761 177.210 195.311  0.00  0.00    +0.064 HD
ATOM     32  H   UNL     1     141.949 178.335 192.326  0.00  0.00    +0.057 HD
ATOM     33  H   UNL     1     140.859 180.369 191.735  0.00  0.00    +0.031 HD
ATOM     34  H   UNL     1     139.394 179.958 192.547  0.00  0.00    +0.031 HD
ATOM     35  H   UNL     1     138.958 178.134 190.839  0.00  0.00    +0.030 HD
ATOM     36  H   UNL     1     140.006 178.259 188.639  0.00  0.00    +0.030 HD
ATOM     37  H   UNL     1     141.099 177.672 189.880  0.00  0.00    +0.030 HD
ATOM     38  H   UNL     1     141.163 180.613 189.047  0.00  0.00    +0.064 HD
ATOM     39  H   UNL     1     142.729 178.274 187.744  0.00  0.00    +0.059 HD
ATOM     40  H   UNL     1     141.737 180.997 186.724  0.00  0.00    +0.057 HD
ATOM     41  H   UNL     1     142.536 180.436 184.622  0.00  0.00    +0.034 HD
ATOM     42  H   UNL     1     142.367 178.743 184.994  0.00  0.00    +0.034 HD
ATOM     43  H   UNL     1     144.686 179.413 184.258  0.00  0.00    +0.074 HD
ATOM     44  H   UNL     1     146.086 175.310 185.880  0.00  0.00    +0.069 HD
ATOM     45  H   UNL     1     143.142 176.243 185.984  0.00  0.00    +0.062 HD
ATOM     46  H   UNL     1     142.725 173.839 185.951  0.00  0.00    +0.061 HD
ATOM     47  H   UNL     1     144.933 173.886 188.103  0.00  0.00    +0.057 HD
ATOM     48  H   UNL     1     144.290 171.419 187.732  0.00  0.00    +0.034 HD
ATOM     49  H   UNL     1     142.671 171.919 187.271  0.00  0.00    +0.034 HD
ATOM     50  H   UNL     1     142.424 171.201 189.489  0.00  0.00    +0.074 HD
ATOM     51  H   UNL     1     142.880 174.190 189.905  0.00  0.00    +0.036 HD
ATOM     52  H   UNL     1     142.739 172.688 191.949  0.00  0.00    +0.060 HD
ENDROOT
BRANCH   1  53
ATOM     53  C   UNL     1     139.923 174.713 191.872  0.00  0.00    -0.060 C 
ATOM     54  H   UNL     1     139.559 175.485 192.551  0.00  0.00    +0.023 HD
ATOM     55  H   UNL     1     139.189 173.904 191.906  0.00  0.00    +0.023 HD
ATOM     56  H   UNL     1     139.908 175.146 190.871  0.00  0.00    +0.023 HD
ENDBRANCH   1  53
BRANCH   5  57
ATOM     57  C   UNL     1     139.100 177.853 194.297  0.00  0.00    -0.041 C 
ATOM     58  H   UNL     1     138.320 177.366 193.707  0.00  0.00    +0.028 HD
ATOM     59  H   UNL     1     139.056 177.407 195.296  0.00  0.00    +0.028 HD
ATOM     60  H   UNL     1     138.830 178.912 194.375  0.00  0.00    +0.028 HD
ENDBRANCH   5  57
BRANCH  24  61
ATOM     61  C   UNL     1     141.005 173.571 189.053  0.00  0.00    -0.057 C 
ATOM     62  H   UNL     1     140.106 173.714 189.657  0.00  0.00    +0.023 HD
ATOM     63  H   UNL     1     140.821 172.751 188.349  0.00  0.00    +0.023 HD
ATOM     64  H   UNL     1     141.104 174.482 188.461  0.00  0.00    +0.023 HD
ENDBRANCH  24  61
BRANCH   8  65
ATOM     65  C   UNL     1     138.599 180.066 190.040  0.00  0.00    -0.062 C 
ATOM     66  H   UNL     1     139.130 180.857 189.500  0.00  0.00    +0.023 HD
ATOM     67  H   UNL     1     137.881 179.606 189.352  0.00  0.00    +0.023 HD
ATOM     68  H   UNL     1     138.028 180.539 190.846  0.00  0.00    +0.023 HD
ENDBRANCH   8  65
BRANCH  14  69
ATOM     69  C   UNL     1     145.179 180.636 185.994  0.00  0.00    +0.020 C 
ATOM     70  H   UNL     1     144.517 181.503 186.067  0.00  0.00    +0.036 HD
BRANCH  69  71
ATOM     71  C   UNL     1     145.551 180.308 187.450  0.00  0.00    -0.057 C 
ATOM     72  H   UNL     1     146.614 180.494 187.640  0.00  0.00    +0.023 HD
ATOM     73  H   UNL     1     144.993 180.932 188.154  0.00  0.00    +0.023 HD
ATOM     74  H   UNL     1     145.352 179.258 187.683  0.00  0.00    +0.023 HD
ENDBRANCH  69  71
BRANCH  69  75
ATOM     75  C   UNL     1     146.469 181.048 185.224  0.00  0.00    +0.064 C 
ATOM     76  H   UNL     1     147.323 180.647 185.784  0.00  0.00    +0.060 HD
BRANCH  75  77
ATOM     77  C   UNL     1     146.648 182.591 185.104  0.00  0.00    -0.017 C 
ATOM     78  H   UNL     1     147.224 182.779 184.189  0.00  0.00    +0.032 HD
BRANCH  77  79
ATOM     79  C   UNL     1     145.293 183.280 184.889  0.00  0.00    -0.060 C 
ATOM     80  H   UNL     1     144.455 182.582 184.958  0.00  0.00    +0.023 HD
ATOM     81  H   UNL     1     145.255 183.745 183.898  0.00  0.00    +0.023 HD
ATOM     82  H   UNL     1     145.138 184.072 185.629  0.00  0.00    +0.023 HD
ENDBRANCH  77  79
BRANCH  77  83
ATOM     83  C   UNL     1     147.439 183.279 186.251  0.00  0.00    -0.045 C 
ATOM     84  H   UNL     1     146.716 183.846 186.849  0.00  0.00    +0.027 HD
ATOM     85  H   UNL     1     148.121 184.023 185.827  0.00  0.00    +0.027 HD
BRANCH  83  86
ATOM     86  C   UNL     1     148.241 182.363 187.191  0.00  0.00    -0.015 C 
ATOM     87  H   UNL     1     147.564 181.614 187.617  0.00  0.00    +0.030 HD
ATOM     88  H   UNL     1     149.013 181.847 186.615  0.00  0.00    +0.030 HD
BRANCH  86  89
ATOM     89  C   UNL     1     148.936 183.134 188.336  0.00  0.00    +0.109 C 
ATOM     90  H   UNL     1     149.988 182.826 188.368  0.00  0.00    +0.074 HD
BRANCH  89  91
ATOM     91  C   UNL     1     148.299 182.821 189.724  0.00  0.00    +0.031 C 
ATOM     92  H   UNL     1     149.077 183.042 190.469  0.00  0.00    +0.037 HD
BRANCH  91  93
ATOM     93  C   UNL     1     147.916 181.340 189.858  0.00  0.00    -0.056 C 
ATOM     94  H   UNL     1     148.079 180.795 188.924  0.00  0.00    +0.023 HD
ATOM     95  H   UNL     1     146.864 181.223 190.141  0.00  0.00    +0.023 HD
ATOM     96  H   UNL     1     148.525 180.832 190.611  0.00  0.00    +0.023 HD
ENDBRANCH  91  93
BRANCH  91  97
ATOM     97  C   UNL     1     147.067 183.742 190.008  0.00  0.00    +0.115 C 
ATOM     98  H   UNL     1     147.085 184.558 189.272  0.00  0.00    +0.074 HD
BRANCH  97  99
ATOM     99  C   UNL     1     145.692 183.012 189.891  0.00  0.00    +0.013 C 
ATOM    100  H   UNL     1     145.886 181.988 189.551  0.00  0.00    +0.038 HD
BRANCH  99 101
ATOM    101  C   UNL     1     144.777 183.641 188.831  0.00  0.00    -0.056 C 
ATOM    102  H   UNL     1     143.729 183.387 189.030  0.00  0.00    +0.024 HD
ATOM    103  H   UNL     1     144.849 184.735 188.817  0.00  0.00    +0.024 HD
ATOM    104  H   UNL     1     145.024 183.263 187.833  0.00  0.00    +0.024 HD
ENDBRANCH  99 101
BRANCH  99 105
ATOM    105  C   UNL     1     144.948 182.973 191.209  0.00  0.00    -0.064 C 
ATOM    106  C   UNL     1     143.976 183.839 191.530  0.00  0.00    -0.005 C 
ATOM    107  H   UNL     1     145.238 182.176 191.889  0.00  0.00    +0.059 HD
ATOM    108  H   UNL     1     143.708 184.630 190.830  0.00  0.00    +0.078 HD
BRANCH 106 109
ATOM    109  N   UNL     1     143.244 183.834 192.710  0.00  0.00    -0.284 N 
ATOM    110  C   UNL     1     143.736 184.501 193.831  0.00  0.00    +0.206 C 
ATOM    111  O   UNL     1     144.784 185.134 193.905  0.00  0.00    -0.279 OA
ATOM    112  H   UNL     1     143.067 184.413 194.703  0.00  0.00    +0.126 HD
BRANCH 109 113
ATOM    113  C   UNL     1     141.962 183.154 192.802  0.00  0.00    +0.007 C 
ATOM    114  H   UNL     1     141.175 183.808 192.414  0.00  0.00    +0.043 HD
ATOM    115  H   UNL     1     141.959 182.228 192.216  0.00  0.00    +0.043 HD
ATOM    116  H   UNL     1     141.758 182.896 193.847  0.00  0.00    +0.043 HD
ENDBRANCH 109 113
ENDBRANCH 106 109
ENDBRANCH  99 105
ENDBRANCH  97  99
BRANCH  97 117
ATOM    117  O   UNL     1     147.215 184.278 191.350  0.00  0.00    -0.461 OA
BRANCH 117 118
ATOM    118  C   UNL     1     147.474 185.611 191.456  0.00  0.00    +0.304 C 
ATOM    119  O   UNL     1     148.190 186.134 192.297  0.00  0.00    -0.251 OA
BRANCH 118 120
ATOM    120  C   UNL     1     146.793 186.360 190.354  0.00  0.00    +0.033 C 
ATOM    121  H   UNL     1     147.321 186.205 189.409  0.00  0.00    +0.034 HD
ATOM    122  H   UNL     1     145.774 185.980 190.238  0.00  0.00    +0.034 HD
ATOM    123  H   UNL     1     146.750 187.422 190.606  0.00  0.00    +0.034 HD
ENDBRANCH 118 120
ENDBRANCH 117 118
ENDBRANCH  97 117
ENDBRANCH  91  97
ENDBRANCH  89  91
BRANCH  89 124
ATOM    124  O   UNL     1     148.809 184.550 188.089  0.00  0.00    -0.460 OA
BRANCH 124 125
ATOM    125  C   UNL     1     149.922 185.325 188.215  0.00  0.00    +0.324 C 
ATOM    126  O   UNL     1     150.121 186.102 189.146  0.00  0.00    -0.249 OA
BRANCH 125 127
ATOM    127  C   UNL     1     150.888 185.179 187.022  0.00  0.00    +0.105 C 
ATOM    128  H   UNL     1     150.988 184.103 186.825  0.00  0.00    +0.058 HD
BRANCH 127 129
ATOM    129  C   UNL     1     152.243 185.713 187.501  0.00  0.00    -0.039 C 
ATOM    130  H   UNL     1     153.069 185.211 186.988  0.00  0.00    +0.025 HD
ATOM    131  H   UNL     1     152.325 186.786 187.298  0.00  0.00    +0.025 HD
ATOM    132  H   UNL     1     152.377 185.588 188.580  0.00  0.00    +0.025 HD
ENDBRANCH 127 129
BRANCH 127 133
ATOM    133  N   UNL     1     150.380 185.844 185.782  0.00  0.00    -0.296 NA
BRANCH 133 134
ATOM    134  C   UNL     1     150.309 184.892 184.665  0.00  0.00    -0.012 C 
ATOM    135  H   UNL     1     151.224 184.904 184.066  0.00  0.00    +0.039 HD
ATOM    136  H   UNL     1     149.460 185.104 184.005  0.00  0.00    +0.039 HD
ATOM    137  H   UNL     1     150.205 183.867 185.043  0.00  0.00    +0.039 HD
ENDBRANCH 133 134
BRANCH 133 138
ATOM    138  C   UNL     1     151.212 186.983 185.383  0.00  0.00    -0.012 C 
ATOM    139  H   UNL     1     151.929 187.237 186.173  0.00  0.00    +0.039 HD
ATOM    140  H   UNL     1     151.817 186.744 184.501  0.00  0.00    +0.039 HD
ATOM    141  H   UNL     1     150.610 187.875 185.168  0.00  0.00    +0.039 HD
ENDBRANCH 133 138
ENDBRANCH 127 133
ENDBRANCH 125 127
ENDBRANCH 124 125
ENDBRANCH  89 124
ENDBRANCH  86  89
ENDBRANCH  83  86
ENDBRANCH  77  83
ENDBRANCH  75  77
BRANCH  75 142
ATOM    142  O   UNL     1     146.538 180.429 183.948  0.00  0.00    -0.391 OA
ATOM    143  H   UNL     1     145.819 180.787 183.400  0.00  0.00    +0.210 HD
ENDBRANCH  75 142
ENDBRANCH  69  75
ENDBRANCH  14  69
BRANCH  25 144
ATOM    144  O   UNL     1     140.913 171.960 191.479  0.00  0.00    -0.391 OA
ATOM    145  H   UNL     1     140.145 172.200 190.935  0.00  0.00    +0.210 HD
ENDBRANCH  25 144
BRANCH  23 146
ATOM    146  O   UNL     1     144.252 171.943 190.208  0.00  0.00    -0.460 OA
BRANCH 146 147
ATOM    147  C   UNL     1     144.601 170.651 190.499  0.00  0.00    +0.327 C 
ATOM    148  O   UNL     1     143.818 169.788 190.890  0.00  0.00    -0.249 OA
BRANCH 147 149
ATOM    149  C   UNL     1     146.110 170.435 190.304  0.00  0.00    +0.131 C 
ATOM    150  H   UNL     1     146.531 170.145 191.275  0.00  0.00    +0.060 HD
BRANCH 149 151
ATOM    151  C   UNL     1     146.738 171.793 189.941  0.00  0.00    +0.073 C 
ATOM    152  H   UNL     1     147.471 171.661 189.137  0.00  0.00    +0.058 HD
ATOM    153  H   UNL     1     145.982 172.512 189.607  0.00  0.00    +0.058 HD
BRANCH 151 154
ATOM    154  O   UNL     1     147.432 172.307 191.086  0.00  0.00    -0.381 OA
BRANCH 154 155
ATOM    155  C   UNL     1     148.802 171.925 191.082  0.00  0.00    +0.037 C 
ATOM    156  H   UNL     1     148.915 170.889 191.415  0.00  0.00    +0.052 HD
ATOM    157  H   UNL     1     149.343 172.575 191.776  0.00  0.00    +0.052 HD
ATOM    158  H   UNL     1     149.232 172.050 190.084  0.00  0.00    +0.052 HD
ENDBRANCH 154 155
ENDBRANCH 151 154
ENDBRANCH 149 151
BRANCH 149 159
ATOM    159  N   UNL     1     146.437 169.394 189.280  0.00  0.00    -0.294 NA
BRANCH 159 160
ATOM    160  C   UNL     1     146.433 169.951 187.929  0.00  0.00    -0.012 C 
ATOM    161  H   UNL     1     146.177 169.213 187.165  0.00  0.00    +0.039 HD
ATOM    162  H   UNL     1     147.414 170.371 187.696  0.00  0.00    +0.039 HD
ATOM    163  H   UNL     1     145.723 170.781 187.850  0.00  0.00    +0.039 HD
ENDBRANCH 159 160
BRANCH 159 164
ATOM    164  C   UNL     1     147.683 168.675 189.546  0.00  0.00    -0.012 C 
ATOM    165  H   UNL     1     147.738 167.718 189.016  0.00  0.00    +0.039 HD
ATOM    166  H   UNL     1     147.777 168.464 190.617  0.00  0.00    +0.039 HD
ATOM    167  H   UNL     1     148.556 169.276 189.275  0.00  0.00    +0.039 HD
ENDBRANCH 159 164
ENDBRANCH 149 159
ENDBRANCH 147 149
ENDBRANCH 146 147
ENDBRANCH  23 146
BRANCH   4 168
ATOM    168  O   UNL     1     140.542 175.597 194.885  0.00  0.00    -0.376 OA
BRANCH 168 169
ATOM    169  C   UNL     1     141.150 174.819 195.908  0.00  0.00    +0.037 C 
ATOM    170  H   UNL     1     140.462 174.778 196.756  0.00  0.00    +0.052 HD
ATOM    171  H   UNL     1     142.079 175.294 196.234  0.00  0.00    +0.052 HD
ATOM    172  H   UNL     1     141.343 173.798 195.566  0.00  0.00    +0.052 HD
ENDBRANCH 168 169
ENDBRANCH   4 168
BRANCH  10 173
ATOM    173  O   UNL     1     142.665 179.631 190.091  0.00  0.00    -0.376 OA
BRANCH 173 174
ATOM    174  C   UNL     1     143.520 178.494 190.022  0.00  0.00    +0.037 C 
ATOM    175  H   UNL     1     143.344 177.881 190.910  0.00  0.00    +0.052 HD
ATOM    176  H   UNL     1     143.289 177.891 189.141  0.00  0.00    +0.052 HD
ATOM    177  H   UNL     1     144.573 178.796 190.013  0.00  0.00    +0.052 HD
ENDBRANCH 173 174
ENDBRANCH  10 173
TORSDOF 45
ENDMDL
MODEL 6
REMARK VINA RESULT:      -4.5      5.232     12.420
REMARK  Name = Aplyronine A_conf1
REMARK  45 active torsions:
REMARK  status: ('A' for Active; 'I' for Inactive)
REMARK    1  A    between atoms: C_1  and  C_2
REMARK    2  A    between atoms: C_5  and  O_75
REMARK    3  A    between atoms: C_6  and  C_74
REMARK    4  A    between atoms: C_9  and  C_73
REMARK    5  A    between atoms: C_11  and  O_71
REMARK    6  A    between atoms: C_15  and  C_39
REMARK    7  A    between atoms: C_24  and  O_29
REMARK    8  A    between atoms: C_25  and  C_28
REMARK    9  A    between atoms: C_26  and  O_27
REMARK   10  A    between atoms: O_29  and  C_30
REMARK   11  A    between atoms: C_30  and  C_32
REMARK   12  A    between atoms: C_32  and  C_33
REMARK   13  A    between atoms: C_32  and  N_36
REMARK   14  A    between atoms: C_33  and  O_34
REMARK   15  A    between atoms: O_34  and  C_35
REMARK   16  A    between atoms: N_36  and  C_37
REMARK   17  A    between atoms: N_36  and  C_38
REMARK   18  A    between atoms: C_39  and  C_40
REMARK   19  A    between atoms: C_39  and  C_41
REMARK   20  A    between atoms: C_41  and  C_42
REMARK   21  A    between atoms: C_41  and  O_70
REMARK   22  A    between atoms: C_42  and  C_43
REMARK   23  A    between atoms: C_42  and  C_44
REMARK   24  A    between atoms: C_44  and  C_45
REMARK   25  A    between atoms: C_45  and  C_46
REMARK   26  A    between atoms: C_46  and  C_47
REMARK   27  A    between atoms: C_46  and  O_62
REMARK   28  A    between atoms: C_47  and  C_48
REMARK   29  A    between atoms: C_47  and  C_49
REMARK   30  A    between atoms: C_49  and  C_50
REMARK   31  A    between atoms: C_49  and  O_58
REMARK   32  A    between atoms: C_50  and  C_51
REMARK   33  A    between atoms: C_50  and  C_52
REMARK   34  A    between atoms: C_53  and  N_54
REMARK   35  A    between atoms: N_54  and  C_55
REMARK   36  A    between atoms: O_58  and  C_59
REMARK   37  A    between atoms: C_59  and  C_61
REMARK   38  A    between atoms: O_62  and  C_63
REMARK   39  A    between atoms: C_63  and  C_65
REMARK   40  A    between atoms: C_65  and  C_66
REMARK   41  A    between atoms: C_65  and  N_67
REMARK   42  A    between atoms: N_67  and  C_68
REMARK   43  A    between atoms: N_67  and  C_69
REMARK   44  A    between atoms: O_71  and  C_72
REMARK   45  A    between atoms: O_75  and  C_76
REMARK                            x       y       z     vdW  Elec       q    Type
REMARK                         _______ _______ _______ _____ _____    ______ ____
ROOT
ATOM      1  C   UNL     1     143.531 164.795 189.676  0.00  0.00    -0.017 C 
ATOM      2  C   UNL     1     145.015 164.848 190.090  0.00  0.00    -0.045 C 
ATOM      3  C   UNL     1     145.358 165.649 191.364  0.00  0.00    -0.022 C 
ATOM      4  C   UNL     1     144.931 167.129 191.469  0.00  0.00    +0.079 C 
ATOM      5  C   UNL     1     145.388 168.096 190.372  0.00  0.00    -0.048 C 
ATOM      6  C   UNL     1     146.475 167.873 189.600  0.00  0.00    -0.082 C 
ATOM      7  C   UNL     1     147.046 168.762 188.526  0.00  0.00    -0.032 C 
ATOM      8  C   UNL     1     146.608 168.355 187.107  0.00  0.00    -0.038 C 
ATOM      9  C   UNL     1     147.113 166.973 186.620  0.00  0.00    -0.020 C 
ATOM     10  C   UNL     1     148.642 166.765 186.653  0.00  0.00    +0.077 C 
ATOM     11  C   UNL     1     149.022 165.607 185.760  0.00  0.00    -0.059 C 
ATOM     12  C   UNL     1     149.878 165.690 184.726  0.00  0.00    -0.082 C 
ATOM     13  C   UNL     1     150.287 164.537 183.835  0.00  0.00    +0.003 C 
ATOM     14  C   UNL     1     151.057 163.365 184.508  0.00  0.00    +0.112 C 
ATOM     15  O   UNL     1     150.050 162.650 185.265  0.00  0.00    -0.458 OA
ATOM     16  C   UNL     1     150.003 161.300 185.138  0.00  0.00    +0.332 C 
ATOM     17  O   UNL     1     150.873 160.577 184.682  0.00  0.00    -0.246 OA
ATOM     18  C   UNL     1     148.688 160.791 185.581  0.00  0.00    +0.022 C 
ATOM     19  C   UNL     1     147.577 161.484 185.292  0.00  0.00    -0.055 C 
ATOM     20  C   UNL     1     146.222 161.056 185.530  0.00  0.00    -0.065 C 
ATOM     21  C   UNL     1     145.728 160.644 186.704  0.00  0.00    -0.081 C 
ATOM     22  C   UNL     1     144.256 160.352 186.888  0.00  0.00    +0.003 C 
ATOM     23  C   UNL     1     143.568 161.176 188.006  0.00  0.00    +0.111 C 
ATOM     24  C   UNL     1     143.897 162.703 188.049  0.00  0.00    +0.020 C 
ATOM     25  C   UNL     1     143.115 163.366 189.218  0.00  0.00    +0.064 C 
ATOM     26  H   UNL     1     142.911 164.990 190.561  0.00  0.00    +0.032 HD
ATOM     27  H   UNL     1     145.627 165.194 189.252  0.00  0.00    +0.027 HD
ATOM     28  H   UNL     1     145.365 163.827 190.294  0.00  0.00    +0.027 HD
ATOM     29  H   UNL     1     144.908 165.105 192.205  0.00  0.00    +0.029 HD
ATOM     30  H   UNL     1     146.445 165.585 191.514  0.00  0.00    +0.029 HD
ATOM     31  H   UNL     1     145.359 167.527 192.400  0.00  0.00    +0.064 HD
ATOM     32  H   UNL     1     147.057 166.968 189.750  0.00  0.00    +0.057 HD
ATOM     33  H   UNL     1     148.138 168.760 188.613  0.00  0.00    +0.031 HD
ATOM     34  H   UNL     1     146.769 169.804 188.709  0.00  0.00    +0.031 HD
ATOM     35  H   UNL     1     145.509 168.301 187.100  0.00  0.00    +0.030 HD
ATOM     36  H   UNL     1     146.746 166.830 185.596  0.00  0.00    +0.030 HD
ATOM     37  H   UNL     1     146.632 166.194 187.228  0.00  0.00    +0.030 HD
ATOM     38  H   UNL     1     149.149 167.682 186.335  0.00  0.00    +0.064 HD
ATOM     39  H   UNL     1     148.564 164.653 186.012  0.00  0.00    +0.059 HD
ATOM     40  H   UNL     1     150.340 166.648 184.494  0.00  0.00    +0.057 HD
ATOM     41  H   UNL     1     150.874 164.952 183.008  0.00  0.00    +0.034 HD
ATOM     42  H   UNL     1     149.374 164.144 183.367  0.00  0.00    +0.034 HD
ATOM     43  H   UNL     1     151.425 162.713 183.705  0.00  0.00    +0.074 HD
ATOM     44  H   UNL     1     148.674 159.804 186.026  0.00  0.00    +0.069 HD
ATOM     45  H   UNL     1     147.652 162.425 184.749  0.00  0.00    +0.062 HD
ATOM     46  H   UNL     1     145.552 161.183 184.679  0.00  0.00    +0.061 HD
ATOM     47  H   UNL     1     146.364 160.538 187.582  0.00  0.00    +0.057 HD
ATOM     48  H   UNL     1     144.164 159.281 187.114  0.00  0.00    +0.034 HD
ATOM     49  H   UNL     1     143.716 160.516 185.949  0.00  0.00    +0.034 HD
ATOM     50  H   UNL     1     142.483 161.078 187.863  0.00  0.00    +0.074 HD
ATOM     51  H   UNL     1     144.968 162.807 188.256  0.00  0.00    +0.036 HD
ATOM     52  H   UNL     1     143.231 162.738 190.109  0.00  0.00    +0.060 HD
ENDROOT
BRANCH   1  53
ATOM     53  C   UNL     1     143.173 165.890 188.661  0.00  0.00    -0.060 C 
ATOM     54  H   UNL     1     143.292 165.532 187.638  0.00  0.00    +0.023 HD
ATOM     55  H   UNL     1     143.816 166.768 188.757  0.00  0.00    +0.023 HD
ATOM     56  H   UNL     1     142.135 166.215 188.758  0.00  0.00    +0.023 HD
ENDBRANCH   1  53
BRANCH   5  57
ATOM     57  C   UNL     1     144.546 169.347 190.268  0.00  0.00    -0.041 C 
ATOM     58  H   UNL     1     145.039 170.170 189.745  0.00  0.00    +0.028 HD
ATOM     59  H   UNL     1     143.620 169.145 189.720  0.00  0.00    +0.028 HD
ATOM     60  H   UNL     1     144.288 169.712 191.268  0.00  0.00    +0.028 HD
ENDBRANCH   5  57
BRANCH  24  61
ATOM     61  C   UNL     1     143.596 163.363 186.696  0.00  0.00    -0.057 C 
ATOM     62  H   UNL     1     144.408 164.026 186.389  0.00  0.00    +0.023 HD
ATOM     63  H   UNL     1     142.667 163.945 186.721  0.00  0.00    +0.023 HD
ATOM     64  H   UNL     1     143.495 162.636 185.889  0.00  0.00    +0.023 HD
ENDBRANCH  24  61
BRANCH   8  65
ATOM     65  C   UNL     1     146.989 169.454 186.109  0.00  0.00    -0.062 C 
ATOM     66  H   UNL     1     147.899 169.979 186.416  0.00  0.00    +0.023 HD
ATOM     67  H   UNL     1     147.156 169.035 185.110  0.00  0.00    +0.023 HD
ATOM     68  H   UNL     1     146.188 170.196 186.026  0.00  0.00    +0.023 HD
ENDBRANCH   8  65
BRANCH  14  69
ATOM     69  C   UNL     1     152.246 163.810 185.401  0.00  0.00    +0.020 C 
ATOM     70  H   UNL     1     152.336 164.897 185.321  0.00  0.00    +0.036 HD
BRANCH  69  71
ATOM     71  C   UNL     1     151.987 163.551 186.894  0.00  0.00    -0.057 C 
ATOM     72  H   UNL     1     151.690 162.512 187.072  0.00  0.00    +0.023 HD
ATOM     73  H   UNL     1     152.888 163.726 187.490  0.00  0.00    +0.023 HD
ATOM     74  H   UNL     1     151.188 164.194 187.276  0.00  0.00    +0.023 HD
ENDBRANCH  69  71
BRANCH  69  75
ATOM     75  C   UNL     1     153.604 163.159 185.003  0.00  0.00    +0.064 C 
ATOM     76  H   UNL     1     154.057 162.768 185.922  0.00  0.00    +0.060 HD
BRANCH  75  77
ATOM     77  C   UNL     1     154.603 164.164 184.357  0.00  0.00    -0.017 C 
ATOM     78  H   UNL     1     155.021 163.677 183.468  0.00  0.00    +0.032 HD
BRANCH  77  79
ATOM     79  C   UNL     1     153.866 165.407 183.840  0.00  0.00    -0.060 C 
ATOM     80  H   UNL     1     153.940 166.252 184.530  0.00  0.00    +0.023 HD
ATOM     81  H   UNL     1     152.802 165.188 183.700  0.00  0.00    +0.023 HD
ATOM     82  H   UNL     1     154.266 165.722 182.871  0.00  0.00    +0.023 HD
ENDBRANCH  77  79
BRANCH  77  83
ATOM     83  C   UNL     1     155.823 164.572 185.230  0.00  0.00    -0.045 C 
ATOM     84  H   UNL     1     155.920 165.662 185.163  0.00  0.00    +0.027 HD
ATOM     85  H   UNL     1     156.738 164.165 184.789  0.00  0.00    +0.027 HD
BRANCH  83  86
ATOM     86  C   UNL     1     155.780 164.174 186.715  0.00  0.00    -0.015 C 
ATOM     87  H   UNL     1     154.830 164.511 187.144  0.00  0.00    +0.030 HD
ATOM     88  H   UNL     1     155.832 163.085 186.796  0.00  0.00    +0.030 HD
BRANCH  86  89
ATOM     89  C   UNL     1     156.949 164.770 187.532  0.00  0.00    +0.109 C 
ATOM     90  H   UNL     1     157.646 163.958 187.776  0.00  0.00    +0.074 HD
BRANCH  89  91
ATOM     91  C   UNL     1     156.464 165.407 188.870  0.00  0.00    +0.031 C 
ATOM     92  H   UNL     1     156.848 166.437 188.869  0.00  0.00    +0.037 HD
BRANCH  91  93
ATOM     93  C   UNL     1     157.045 164.682 190.093  0.00  0.00    -0.056 C 
ATOM     94  H   UNL     1     156.646 165.088 191.029  0.00  0.00    +0.023 HD
ATOM     95  H   UNL     1     158.137 164.764 190.125  0.00  0.00    +0.023 HD
ATOM     96  H   UNL     1     156.786 163.620 190.094  0.00  0.00    +0.023 HD
ENDBRANCH  91  93
BRANCH  91  97
ATOM     97  C   UNL     1     154.903 165.460 188.944  0.00  0.00    +0.115 C 
ATOM     98  H   UNL     1     154.510 164.855 188.115  0.00  0.00    +0.074 HD
BRANCH  97  99
ATOM     99  C   UNL     1     154.314 164.899 190.276  0.00  0.00    +0.013 C 
ATOM    100  H   UNL     1     155.152 164.694 190.952  0.00  0.00    +0.038 HD
BRANCH  99 101
ATOM    101  C   UNL     1     153.591 163.558 190.085  0.00  0.00    -0.056 C 
ATOM    102  H   UNL     1     154.182 162.891 189.444  0.00  0.00    +0.024 HD
ATOM    103  H   UNL     1     153.429 163.035 191.035  0.00  0.00    +0.024 HD
ATOM    104  H   UNL     1     152.621 163.707 189.600  0.00  0.00    +0.024 HD
ENDBRANCH  99 101
BRANCH  99 105
ATOM    105  C   UNL     1     153.359 165.871 190.938  0.00  0.00    -0.064 C 
ATOM    106  C   UNL     1     152.107 165.545 191.290  0.00  0.00    -0.005 C 
ATOM    107  H   UNL     1     153.758 166.862 191.131  0.00  0.00    +0.059 HD
ATOM    108  H   UNL     1     151.732 164.544 191.081  0.00  0.00    +0.078 HD
BRANCH 106 109
ATOM    109  N   UNL     1     151.199 166.385 191.921  0.00  0.00    -0.284 N 
ATOM    110  C   UNL     1     151.108 166.384 193.312  0.00  0.00    +0.206 C 
ATOM    111  O   UNL     1     151.772 165.707 194.089  0.00  0.00    -0.279 OA
ATOM    112  H   UNL     1     150.344 167.086 193.686  0.00  0.00    +0.126 HD
BRANCH 109 113
ATOM    113  C   UNL     1     150.341 167.279 191.159  0.00  0.00    +0.007 C 
ATOM    114  H   UNL     1     150.379 168.280 191.600  0.00  0.00    +0.043 HD
ATOM    115  H   UNL     1     150.666 167.351 190.116  0.00  0.00    +0.043 HD
ATOM    116  H   UNL     1     149.313 166.900 191.172  0.00  0.00    +0.043 HD
ENDBRANCH 109 113
ENDBRANCH 106 109
ENDBRANCH  99 105
ENDBRANCH  97  99
BRANCH  97 117
ATOM    117  O   UNL     1     154.499 166.846 188.785  0.00  0.00    -0.461 OA
BRANCH 117 118
ATOM    118  C   UNL     1     154.012 167.211 187.567  0.00  0.00    +0.304 C 
ATOM    119  O   UNL     1     154.677 167.610 186.622  0.00  0.00    -0.251 OA
BRANCH 118 120
ATOM    120  C   UNL     1     152.530 167.006 187.519  0.00  0.00    +0.033 C 
ATOM    121  H   UNL     1     152.298 166.006 187.142  0.00  0.00    +0.034 HD
ATOM    122  H   UNL     1     152.124 167.088 188.531  0.00  0.00    +0.034 HD
ATOM    123  H   UNL     1     152.075 167.774 186.891  0.00  0.00    +0.034 HD
ENDBRANCH 118 120
ENDBRANCH 117 118
ENDBRANCH  97 117
ENDBRANCH  91  97
ENDBRANCH  89  91
BRANCH  89 124
ATOM    124  O   UNL     1     157.591 165.797 186.749  0.00  0.00    -0.460 OA
BRANCH 124 125
ATOM    125  C   UNL     1     158.871 165.583 186.335  0.00  0.00    +0.324 C 
ATOM    126  O   UNL     1     159.570 164.644 186.710  0.00  0.00    -0.249 OA
BRANCH 125 127
ATOM    127  C   UNL     1     159.385 166.687 185.390  0.00  0.00    +0.105 C 
ATOM    128  H   UNL     1     159.292 166.298 184.368  0.00  0.00    +0.058 HD
BRANCH 127 129
ATOM    129  C   UNL     1     160.874 166.865 185.709  0.00  0.00    -0.039 C 
ATOM    130  H   UNL     1     161.161 166.288 186.593  0.00  0.00    +0.025 HD
ATOM    131  H   UNL     1     161.488 166.520 184.870  0.00  0.00    +0.025 HD
ATOM    132  H   UNL     1     161.136 167.914 185.878  0.00  0.00    +0.025 HD
ENDBRANCH 127 129
BRANCH 127 133
ATOM    133  N   UNL     1     158.590 167.951 185.492  0.00  0.00    -0.296 NA
BRANCH 133 134
ATOM    134  C   UNL     1     157.842 168.204 184.253  0.00  0.00    -0.012 C 
ATOM    135  H   UNL     1     158.350 167.780 183.382  0.00  0.00    +0.039 HD
ATOM    136  H   UNL     1     157.694 169.276 184.080  0.00  0.00    +0.039 HD
ATOM    137  H   UNL     1     156.857 167.722 184.296  0.00  0.00    +0.039 HD
ENDBRANCH 133 134
BRANCH 133 138
ATOM    138  C   UNL     1     159.433 169.114 185.784  0.00  0.00    -0.012 C 
ATOM    139  H   UNL     1     160.326 168.817 186.348  0.00  0.00    +0.039 HD
ATOM    140  H   UNL     1     159.806 169.576 184.863  0.00  0.00    +0.039 HD
ATOM    141  H   UNL     1     158.896 169.872 186.369  0.00  0.00    +0.039 HD
ENDBRANCH 133 138
ENDBRANCH 127 133
ENDBRANCH 125 127
ENDBRANCH 124 125
ENDBRANCH  89 124
ENDBRANCH  86  89
ENDBRANCH  83  86
ENDBRANCH  77  83
ENDBRANCH  75  77
BRANCH  75 142
ATOM    142  O   UNL     1     153.417 162.024 184.170  0.00  0.00    -0.391 OA
ATOM    143  H   UNL     1     154.198 161.940 183.597  0.00  0.00    +0.210 HD
ENDBRANCH  75 142
ENDBRANCH  69  75
ENDBRANCH  14  69
BRANCH  25 144
ATOM    144  O   UNL     1     141.712 163.338 188.918  0.00  0.00    -0.391 OA
ATOM    145  H   UNL     1     141.478 162.427 188.679  0.00  0.00    +0.210 HD
ENDBRANCH  25 144
BRANCH  23 146
ATOM    146  O   UNL     1     143.955 160.580 189.275  0.00  0.00    -0.460 OA
BRANCH 146 147
ATOM    147  C   UNL     1     143.141 159.573 189.721  0.00  0.00    +0.327 C 
ATOM    148  O   UNL     1     141.992 159.732 190.126  0.00  0.00    -0.249 OA
BRANCH 147 149
ATOM    149  C   UNL     1     143.870 158.221 189.676  0.00  0.00    +0.131 C 
ATOM    150  H   UNL     1     143.496 157.673 188.802  0.00  0.00    +0.060 HD
BRANCH 149 151
ATOM    151  C   UNL     1     143.446 157.415 190.916  0.00  0.00    +0.073 C 
ATOM    152  H   UNL     1     144.334 157.096 191.475  0.00  0.00    +0.058 HD
ATOM    153  H   UNL     1     142.808 158.004 191.584  0.00  0.00    +0.058 HD
BRANCH 151 154
ATOM    154  O   UNL     1     142.751 156.234 190.490  0.00  0.00    -0.381 OA
BRANCH 154 155
ATOM    155  C   UNL     1     143.610 155.101 190.468  0.00  0.00    +0.037 C 
ATOM    156  H   UNL     1     143.438 154.469 191.343  0.00  0.00    +0.052 HD
ATOM    157  H   UNL     1     144.645 155.453 190.491  0.00  0.00    +0.052 HD
ATOM    158  H   UNL     1     143.462 154.524 189.550  0.00  0.00    +0.052 HD
ENDBRANCH 154 155
ENDBRANCH 151 154
ENDBRANCH 149 151
BRANCH 149 159
ATOM    159  N   UNL     1     145.359 158.348 189.593  0.00  0.00    -0.294 NA
BRANCH 159 160
ATOM    160  C   UNL     1     145.981 158.232 190.910  0.00  0.00    -0.012 C 
ATOM    161  H   UNL     1     146.988 157.810 190.869  0.00  0.00    +0.039 HD
ATOM    162  H   UNL     1     145.365 157.607 191.560  0.00  0.00    +0.039 HD
ATOM    163  H   UNL     1     146.043 159.209 191.401  0.00  0.00    +0.039 HD
ENDBRANCH 159 160
BRANCH 159 164
ATOM    164  C   UNL     1     145.978 157.427 188.639  0.00  0.00    -0.012 C 
ATOM    165  H   UNL     1     146.822 157.879 188.106  0.00  0.00    +0.039 HD
ATOM    166  H   UNL     1     145.245 157.112 187.888  0.00  0.00    +0.039 HD
ATOM    167  H   UNL     1     146.323 156.514 189.132  0.00  0.00    +0.039 HD
ENDBRANCH 159 164
ENDBRANCH 149 159
ENDBRANCH 147 149
ENDBRANCH 146 147
ENDBRANCH  23 146
BRANCH   4 168
ATOM    168  O   UNL     1     143.498 167.176 191.572  0.00  0.00    -0.376 OA
BRANCH 168 169
ATOM    169  C   UNL     1     143.014 166.816 192.860  0.00  0.00    +0.037 C 
ATOM    170  H   UNL     1     142.538 165.835 192.781  0.00  0.00    +0.052 HD
ATOM    171  H   UNL     1     142.268 167.541 193.194  0.00  0.00    +0.052 HD
ATOM    172  H   UNL     1     143.831 166.749 193.584  0.00  0.00    +0.052 HD
ENDBRANCH 168 169
ENDBRANCH   4 168
BRANCH  10 173
ATOM    173  O   UNL     1     149.015 166.445 187.997  0.00  0.00    -0.376 OA
BRANCH 173 174
ATOM    174  C   UNL     1     148.722 165.099 188.360  0.00  0.00    +0.037 C 
ATOM    175  H   UNL     1     147.636 164.994 188.428  0.00  0.00    +0.052 HD
ATOM    176  H   UNL     1     149.085 164.406 187.597  0.00  0.00    +0.052 HD
ATOM    177  H   UNL     1     149.155 164.854 189.335  0.00  0.00    +0.052 HD
ENDBRANCH 173 174
ENDBRANCH  10 173
TORSDOF 45
ENDMDL
MODEL 7
REMARK VINA RESULT:      -4.4      2.165      4.322
REMARK  Name = Aplyronine A_conf1
REMARK  45 active torsions:
REMARK  status: ('A' for Active; 'I' for Inactive)
REMARK    1  A    between atoms: C_1  and  C_2
REMARK    2  A    between atoms: C_5  and  O_75
REMARK    3  A    between atoms: C_6  and  C_74
REMARK    4  A    between atoms: C_9  and  C_73
REMARK    5  A    between atoms: C_11  and  O_71
REMARK    6  A    between atoms: C_15  and  C_39
REMARK    7  A    between atoms: C_24  and  O_29
REMARK    8  A    between atoms: C_25  and  C_28
REMARK    9  A    between atoms: C_26  and  O_27
REMARK   10  A    between atoms: O_29  and  C_30
REMARK   11  A    between atoms: C_30  and  C_32
REMARK   12  A    between atoms: C_32  and  C_33
REMARK   13  A    between atoms: C_32  and  N_36
REMARK   14  A    between atoms: C_33  and  O_34
REMARK   15  A    between atoms: O_34  and  C_35
REMARK   16  A    between atoms: N_36  and  C_37
REMARK   17  A    between atoms: N_36  and  C_38
REMARK   18  A    between atoms: C_39  and  C_40
REMARK   19  A    between atoms: C_39  and  C_41
REMARK   20  A    between atoms: C_41  and  C_42
REMARK   21  A    between atoms: C_41  and  O_70
REMARK   22  A    between atoms: C_42  and  C_43
REMARK   23  A    between atoms: C_42  and  C_44
REMARK   24  A    between atoms: C_44  and  C_45
REMARK   25  A    between atoms: C_45  and  C_46
REMARK   26  A    between atoms: C_46  and  C_47
REMARK   27  A    between atoms: C_46  and  O_62
REMARK   28  A    between atoms: C_47  and  C_48
REMARK   29  A    between atoms: C_47  and  C_49
REMARK   30  A    between atoms: C_49  and  C_50
REMARK   31  A    between atoms: C_49  and  O_58
REMARK   32  A    between atoms: C_50  and  C_51
REMARK   33  A    between atoms: C_50  and  C_52
REMARK   34  A    between atoms: C_53  and  N_54
REMARK   35  A    between atoms: N_54  and  C_55
REMARK   36  A    between atoms: O_58  and  C_59
REMARK   37  A    between atoms: C_59  and  C_61
REMARK   38  A    between atoms: O_62  and  C_63
REMARK   39  A    between atoms: C_63  and  C_65
REMARK   40  A    between atoms: C_65  and  C_66
REMARK   41  A    between atoms: C_65  and  N_67
REMARK   42  A    between atoms: N_67  and  C_68
REMARK   43  A    between atoms: N_67  and  C_69
REMARK   44  A    between atoms: O_71  and  C_72
REMARK   45  A    between atoms: O_75  and  C_76
REMARK                            x       y       z     vdW  Elec       q    Type
REMARK                         _______ _______ _______ _____ _____    ______ ____
ROOT
ATOM      1  C   UNL     1     156.779 156.900 187.713  0.00  0.00    -0.017 C 
ATOM      2  C   UNL     1     155.606 157.508 188.508  0.00  0.00    -0.045 C 
ATOM      3  C   UNL     1     154.422 156.573 188.833  0.00  0.00    -0.022 C 
ATOM      4  C   UNL     1     153.698 155.837 187.685  0.00  0.00    +0.079 C 
ATOM      5  C   UNL     1     153.119 156.671 186.537  0.00  0.00    -0.048 C 
ATOM      6  C   UNL     1     152.792 157.976 186.668  0.00  0.00    -0.082 C 
ATOM      7  C   UNL     1     152.180 158.885 185.635  0.00  0.00    -0.032 C 
ATOM      8  C   UNL     1     153.218 159.762 184.910  0.00  0.00    -0.038 C 
ATOM      9  C   UNL     1     153.951 160.802 185.794  0.00  0.00    -0.020 C 
ATOM     10  C   UNL     1     153.048 161.789 186.564  0.00  0.00    +0.077 C 
ATOM     11  C   UNL     1     153.854 162.989 187.001  0.00  0.00    -0.059 C 
ATOM     12  C   UNL     1     153.568 164.261 186.671  0.00  0.00    -0.082 C 
ATOM     13  C   UNL     1     154.350 165.477 187.117  0.00  0.00    +0.003 C 
ATOM     14  C   UNL     1     154.380 165.775 188.643  0.00  0.00    +0.112 C 
ATOM     15  O   UNL     1     155.277 164.780 189.195  0.00  0.00    -0.458 OA
ATOM     16  C   UNL     1     156.241 165.203 190.051  0.00  0.00    +0.332 C 
ATOM     17  O   UNL     1     156.284 166.272 190.634  0.00  0.00    -0.246 OA
ATOM     18  C   UNL     1     157.314 164.191 190.151  0.00  0.00    +0.022 C 
ATOM     19  C   UNL     1     157.702 163.526 189.053  0.00  0.00    -0.055 C 
ATOM     20  C   UNL     1     158.817 162.619 188.959  0.00  0.00    -0.065 C 
ATOM     21  C   UNL     1     159.029 161.557 189.747  0.00  0.00    -0.081 C 
ATOM     22  C   UNL     1     160.152 160.580 189.478  0.00  0.00    +0.003 C 
ATOM     23  C   UNL     1     159.698 159.111 189.287  0.00  0.00    +0.111 C 
ATOM     24  C   UNL     1     158.455 158.879 188.369  0.00  0.00    +0.020 C 
ATOM     25  C   UNL     1     158.154 157.356 188.283  0.00  0.00    +0.064 C 
ATOM     26  H   UNL     1     156.773 155.810 187.854  0.00  0.00    +0.032 HD
ATOM     27  H   UNL     1     155.246 158.414 188.012  0.00  0.00    +0.027 HD
ATOM     28  H   UNL     1     155.976 157.848 189.485  0.00  0.00    +0.027 HD
ATOM     29  H   UNL     1     154.802 155.820 189.535  0.00  0.00    +0.029 HD
ATOM     30  H   UNL     1     153.682 157.159 189.396  0.00  0.00    +0.029 HD
ATOM     31  H   UNL     1     152.836 155.315 188.125  0.00  0.00    +0.064 HD
ATOM     32  H   UNL     1     152.946 158.470 187.624  0.00  0.00    +0.057 HD
ATOM     33  H   UNL     1     151.417 159.504 186.119  0.00  0.00    +0.031 HD
ATOM     34  H   UNL     1     151.618 158.301 184.900  0.00  0.00    +0.031 HD
ATOM     35  H   UNL     1     153.996 159.095 184.509  0.00  0.00    +0.030 HD
ATOM     36  H   UNL     1     154.635 161.363 185.144  0.00  0.00    +0.030 HD
ATOM     37  H   UNL     1     154.585 160.262 186.510  0.00  0.00    +0.030 HD
ATOM     38  H   UNL     1     152.208 162.095 185.932  0.00  0.00    +0.064 HD
ATOM     39  H   UNL     1     154.707 162.771 187.640  0.00  0.00    +0.059 HD
ATOM     40  H   UNL     1     152.703 164.465 186.042  0.00  0.00    +0.057 HD
ATOM     41  H   UNL     1     153.957 166.341 186.569  0.00  0.00    +0.034 HD
ATOM     42  H   UNL     1     155.381 165.355 186.756  0.00  0.00    +0.034 HD
ATOM     43  H   UNL     1     154.830 166.768 188.773  0.00  0.00    +0.074 HD
ATOM     44  H   UNL     1     157.825 164.118 191.102  0.00  0.00    +0.069 HD
ATOM     45  H   UNL     1     157.212 163.722 188.100  0.00  0.00    +0.062 HD
ATOM     46  H   UNL     1     159.469 162.792 188.101  0.00  0.00    +0.061 HD
ATOM     47  H   UNL     1     158.378 161.337 190.591  0.00  0.00    +0.057 HD
ATOM     48  H   UNL     1     160.845 160.641 190.329  0.00  0.00    +0.034 HD
ATOM     49  H   UNL     1     160.721 160.889 188.595  0.00  0.00    +0.034 HD
ATOM     50  H   UNL     1     160.541 158.565 188.842  0.00  0.00    +0.074 HD
ATOM     51  H   UNL     1     157.597 159.368 188.841  0.00  0.00    +0.036 HD
ATOM     52  H   UNL     1     158.193 156.941 189.297  0.00  0.00    +0.060 HD
ENDROOT
BRANCH   1  53
ATOM     53  C   UNL     1     156.637 157.131 186.202  0.00  0.00    -0.060 C 
ATOM     54  H   UNL     1     156.391 156.203 185.684  0.00  0.00    +0.023 HD
ATOM     55  H   UNL     1     157.562 157.499 185.751  0.00  0.00    +0.023 HD
ATOM     56  H   UNL     1     155.839 157.838 185.970  0.00  0.00    +0.023 HD
ENDBRANCH   1  53
BRANCH   5  57
ATOM     57  C   UNL     1     152.896 155.889 185.263  0.00  0.00    -0.041 C 
ATOM     58  H   UNL     1     153.141 156.445 184.355  0.00  0.00    +0.028 HD
ATOM     59  H   UNL     1     153.517 154.988 185.249  0.00  0.00    +0.028 HD
ATOM     60  H   UNL     1     151.845 155.592 185.183  0.00  0.00    +0.028 HD
ENDBRANCH   5  57
BRANCH  24  61
ATOM     61  C   UNL     1     158.675 159.509 186.986  0.00  0.00    -0.057 C 
ATOM     62  H   UNL     1     158.035 159.043 186.233  0.00  0.00    +0.023 HD
ATOM     63  H   UNL     1     159.716 159.423 186.656  0.00  0.00    +0.023 HD
ATOM     64  H   UNL     1     158.421 160.570 186.965  0.00  0.00    +0.023 HD
ENDBRANCH  24  61
BRANCH   8  65
ATOM     65  C   UNL     1     152.570 160.441 183.698  0.00  0.00    -0.062 C 
ATOM     66  H   UNL     1     152.844 159.944 182.762  0.00  0.00    +0.023 HD
ATOM     67  H   UNL     1     151.477 160.432 183.782  0.00  0.00    +0.023 HD
ATOM     68  H   UNL     1     152.887 161.487 183.625  0.00  0.00    +0.023 HD
ENDBRANCH   8  65
BRANCH  14  69
ATOM     69  C   UNL     1     152.987 165.743 189.328  0.00  0.00    +0.020 C 
ATOM     70  H   UNL     1     152.246 165.481 188.568  0.00  0.00    +0.036 HD
BRANCH  69  71
ATOM     71  C   UNL     1     152.876 164.628 190.380  0.00  0.00    -0.057 C 
ATOM     72  H   UNL     1     153.641 164.735 191.157  0.00  0.00    +0.023 HD
ATOM     73  H   UNL     1     151.907 164.656 190.889  0.00  0.00    +0.023 HD
ATOM     74  H   UNL     1     153.002 163.640 189.926  0.00  0.00    +0.023 HD
ENDBRANCH  69  71
BRANCH  69  75
ATOM     75  C   UNL     1     152.582 167.097 189.983  0.00  0.00    +0.064 C 
ATOM     76  H   UNL     1     153.466 167.481 190.508  0.00  0.00    +0.060 HD
BRANCH  75  77
ATOM     77  C   UNL     1     151.425 166.960 191.015  0.00  0.00    -0.017 C 
ATOM     78  H   UNL     1     151.485 165.949 191.437  0.00  0.00    +0.032 HD
BRANCH  77  79
ATOM     79  C   UNL     1     151.636 167.915 192.199  0.00  0.00    -0.060 C 
ATOM     80  H   UNL     1     150.693 168.306 192.592  0.00  0.00    +0.023 HD
ATOM     81  H   UNL     1     152.247 168.771 191.893  0.00  0.00    +0.023 HD
ATOM     82  H   UNL     1     152.163 167.412 193.016  0.00  0.00    +0.023 HD
ENDBRANCH  77  79
BRANCH  77  83
ATOM     83  C   UNL     1     149.984 167.098 190.450  0.00  0.00    -0.045 C 
ATOM     84  H   UNL     1     149.981 166.642 189.453  0.00  0.00    +0.027 HD
ATOM     85  H   UNL     1     149.754 168.157 190.292  0.00  0.00    +0.027 HD
BRANCH  83  86
ATOM     86  C   UNL     1     148.848 166.472 191.278  0.00  0.00    -0.015 C 
ATOM     87  H   UNL     1     148.543 165.532 190.806  0.00  0.00    +0.030 HD
ATOM     88  H   UNL     1     149.217 166.254 192.283  0.00  0.00    +0.030 HD
BRANCH  86  89
ATOM     89  C   UNL     1     147.619 167.400 191.412  0.00  0.00    +0.109 C 
ATOM     90  H   UNL     1     146.778 166.933 190.885  0.00  0.00    +0.074 HD
BRANCH  89  91
ATOM     91  C   UNL     1     147.870 168.800 190.774  0.00  0.00    +0.031 C 
ATOM     92  H   UNL     1     148.750 168.682 190.125  0.00  0.00    +0.037 HD
BRANCH  91  93
ATOM     93  C   UNL     1     148.196 169.863 191.834  0.00  0.00    -0.056 C 
ATOM     94  H   UNL     1     148.808 169.451 192.642  0.00  0.00    +0.023 HD
ATOM     95  H   UNL     1     147.285 170.280 192.276  0.00  0.00    +0.023 HD
ATOM     96  H   UNL     1     148.775 170.689 191.412  0.00  0.00    +0.023 HD
ENDBRANCH  91  93
BRANCH  91  97
ATOM     97  C   UNL     1     146.660 169.250 189.890  0.00  0.00    +0.115 C 
ATOM     98  H   UNL     1     146.262 170.179 190.320  0.00  0.00    +0.074 HD
BRANCH  97  99
ATOM     99  C   UNL     1     147.034 169.526 188.400  0.00  0.00    +0.013 C 
ATOM    100  H   UNL     1     147.976 170.087 188.390  0.00  0.00    +0.038 HD
BRANCH  99 101
ATOM    101  C   UNL     1     146.007 170.417 187.687  0.00  0.00    -0.056 C 
ATOM    102  H   UNL     1     146.326 170.623 186.659  0.00  0.00    +0.024 HD
ATOM    103  H   UNL     1     145.018 169.947 187.633  0.00  0.00    +0.024 HD
ATOM    104  H   UNL     1     145.908 171.379 188.200  0.00  0.00    +0.024 HD
ENDBRANCH  99 101
BRANCH  99 105
ATOM    105  C   UNL     1     147.201 168.249 187.603  0.00  0.00    -0.064 C 
ATOM    106  C   UNL     1     148.397 167.732 187.285  0.00  0.00    -0.005 C 
ATOM    107  H   UNL     1     146.279 167.754 187.310  0.00  0.00    +0.059 HD
ATOM    108  H   UNL     1     149.305 168.253 187.589  0.00  0.00    +0.078 HD
BRANCH 106 109
ATOM    109  N   UNL     1     148.610 166.556 186.581  0.00  0.00    -0.284 N 
ATOM    110  C   UNL     1     149.913 166.125 186.332  0.00  0.00    +0.206 C 
ATOM    111  O   UNL     1     150.948 166.679 186.687  0.00  0.00    -0.279 OA
ATOM    112  H   UNL     1     149.945 165.185 185.757  0.00  0.00    +0.126 HD
BRANCH 109 113
ATOM    113  C   UNL     1     147.498 165.750 186.100  0.00  0.00    +0.007 C 
ATOM    114  H   UNL     1     147.631 165.549 185.033  0.00  0.00    +0.043 HD
ATOM    115  H   UNL     1     147.444 164.791 186.627  0.00  0.00    +0.043 HD
ATOM    116  H   UNL     1     146.558 166.286 186.270  0.00  0.00    +0.043 HD
ENDBRANCH 109 113
ENDBRANCH 106 109
ENDBRANCH  99 105
ENDBRANCH  97  99
BRANCH  97 117
ATOM    117  O   UNL     1     145.656 168.202 189.948  0.00  0.00    -0.461 OA
BRANCH 117 118
ATOM    118  C   UNL     1     144.382 168.586 190.242  0.00  0.00    +0.304 C 
ATOM    119  O   UNL     1     144.053 169.337 191.148  0.00  0.00    -0.251 OA
BRANCH 118 120
ATOM    120  C   UNL     1     143.423 167.992 189.257  0.00  0.00    +0.033 C 
ATOM    121  H   UNL     1     142.400 168.056 189.641  0.00  0.00    +0.034 HD
ATOM    122  H   UNL     1     143.470 168.560 188.324  0.00  0.00    +0.034 HD
ATOM    123  H   UNL     1     143.700 166.955 189.057  0.00  0.00    +0.034 HD
ENDBRANCH 118 120
ENDBRANCH 117 118
ENDBRANCH  97 117
ENDBRANCH  91  97
ENDBRANCH  89  91
BRANCH  89 124
ATOM    124  O   UNL     1     147.325 167.587 192.812  0.00  0.00    -0.460 OA
BRANCH 124 125
ATOM    125  C   UNL     1     146.397 166.772 193.387  0.00  0.00    +0.324 C 
ATOM    126  O   UNL     1     145.183 166.917 193.267  0.00  0.00    -0.249 OA
BRANCH 125 127
ATOM    127  C   UNL     1     147.029 165.678 194.270  0.00  0.00    +0.105 C 
ATOM    128  H   UNL     1     147.472 164.939 193.589  0.00  0.00    +0.058 HD
BRANCH 127 129
ATOM    129  C   UNL     1     145.871 165.013 195.022  0.00  0.00    -0.039 C 
ATOM    130  H   UNL     1     145.748 165.444 196.020  0.00  0.00    +0.025 HD
ATOM    131  H   UNL     1     144.930 165.155 194.479  0.00  0.00    +0.025 HD
ATOM    132  H   UNL     1     146.013 163.933 195.124  0.00  0.00    +0.025 HD
ENDBRANCH 127 129
BRANCH 127 133
ATOM    133  N   UNL     1     148.106 166.208 195.163  0.00  0.00    -0.296 NA
BRANCH 133 134
ATOM    134  C   UNL     1     149.404 165.599 194.841  0.00  0.00    -0.012 C 
ATOM    135  H   UNL     1     149.468 164.569 195.205  0.00  0.00    +0.039 HD
ATOM    136  H   UNL     1     150.237 166.169 195.266  0.00  0.00    +0.039 HD
ATOM    137  H   UNL     1     149.541 165.546 193.753  0.00  0.00    +0.039 HD
ENDBRANCH 133 134
BRANCH 133 138
ATOM    138  C   UNL     1     147.813 165.978 196.581  0.00  0.00    -0.012 C 
ATOM    139  H   UNL     1     146.731 165.930 196.752  0.00  0.00    +0.039 HD
ATOM    140  H   UNL     1     148.208 165.013 196.918  0.00  0.00    +0.039 HD
ATOM    141  H   UNL     1     148.225 166.771 197.217  0.00  0.00    +0.039 HD
ENDBRANCH 133 138
ENDBRANCH 127 133
ENDBRANCH 125 127
ENDBRANCH 124 125
ENDBRANCH  89 124
ENDBRANCH  86  89
ENDBRANCH  83  86
ENDBRANCH  77  83
ENDBRANCH  75  77
BRANCH  75 142
ATOM    142  O   UNL     1     152.276 168.081 189.005  0.00  0.00    -0.391 OA
ATOM    143  H   UNL     1     152.133 167.628 188.157  0.00  0.00    +0.210 HD
ENDBRANCH  75 142
ENDBRANCH  69  75
ENDBRANCH  14  69
BRANCH  25 144
ATOM    144  O   UNL     1     159.217 156.707 187.571  0.00  0.00    -0.391 OA
ATOM    145  H   UNL     1     159.972 157.318 187.543  0.00  0.00    +0.210 HD
ENDBRANCH  25 144
BRANCH  23 146
ATOM    146  O   UNL     1     159.407 158.578 190.609  0.00  0.00    -0.460 OA
BRANCH 146 147
ATOM    147  C   UNL     1     160.450 157.941 191.226  0.00  0.00    +0.327 C 
ATOM    148  O   UNL     1     161.452 157.524 190.649  0.00  0.00    -0.249 OA
BRANCH 147 149
ATOM    149  C   UNL     1     160.183 157.787 192.731  0.00  0.00    +0.131 C 
ATOM    150  H   UNL     1     160.607 156.824 193.045  0.00  0.00    +0.060 HD
BRANCH 149 151
ATOM    151  C   UNL     1     158.661 157.683 192.932  0.00  0.00    +0.073 C 
ATOM    152  H   UNL     1     158.332 158.422 193.672  0.00  0.00    +0.058 HD
ATOM    153  H   UNL     1     158.116 157.859 191.999  0.00  0.00    +0.058 HD
BRANCH 151 154
ATOM    154  O   UNL     1     158.346 156.380 193.445  0.00  0.00    -0.381 OA
BRANCH 154 155
ATOM    155  C   UNL     1     157.638 155.600 192.491  0.00  0.00    +0.037 C 
ATOM    156  H   UNL     1     156.613 155.415 192.826  0.00  0.00    +0.052 HD
ATOM    157  H   UNL     1     158.149 154.638 192.386  0.00  0.00    +0.052 HD
ATOM    158  H   UNL     1     157.632 156.096 191.516  0.00  0.00    +0.052 HD
ENDBRANCH 154 155
ENDBRANCH 151 154
ENDBRANCH 149 151
BRANCH 149 159
ATOM    159  N   UNL     1     160.766 158.890 193.557  0.00  0.00    -0.294 NA
BRANCH 159 160
ATOM    160  C   UNL     1     162.226 158.868 193.526  0.00  0.00    -0.012 C 
ATOM    161  H   UNL     1     162.626 158.271 192.703  0.00  0.00    +0.039 HD
ATOM    162  H   UNL     1     162.614 158.472 194.467  0.00  0.00    +0.039 HD
ATOM    163  H   UNL     1     162.631 159.882 193.437  0.00  0.00    +0.039 HD
ENDBRANCH 159 160
BRANCH 159 164
ATOM    164  C   UNL     1     160.254 160.217 193.216  0.00  0.00    -0.012 C 
ATOM    165  H   UNL     1     160.060 160.834 194.101  0.00  0.00    +0.039 HD
ATOM    166  H   UNL     1     159.313 160.129 192.663  0.00  0.00    +0.039 HD
ATOM    167  H   UNL     1     160.946 160.754 192.560  0.00  0.00    +0.039 HD
ENDBRANCH 159 164
ENDBRANCH 149 159
ENDBRANCH 147 149
ENDBRANCH 146 147
ENDBRANCH  23 146
BRANCH   4 168
ATOM    168  O   UNL     1     154.597 154.854 187.146  0.00  0.00    -0.376 OA
BRANCH 168 169
ATOM    169  C   UNL     1     154.767 153.722 187.991  0.00  0.00    +0.037 C 
ATOM    170  H   UNL     1     155.819 153.672 188.283  0.00  0.00    +0.052 HD
ATOM    171  H   UNL     1     154.510 152.810 187.447  0.00  0.00    +0.052 HD
ATOM    172  H   UNL     1     154.159 153.810 188.896  0.00  0.00    +0.052 HD
ENDBRANCH 168 169
ENDBRANCH   4 168
BRANCH  10 173
ATOM    173  O   UNL     1     152.559 161.119 187.731  0.00  0.00    -0.376 OA
BRANCH 173 174
ATOM    174  C   UNL     1     151.245 161.523 188.106  0.00  0.00    +0.037 C 
ATOM    175  H   UNL     1     151.173 161.478 189.195  0.00  0.00    +0.052 HD
ATOM    176  H   UNL     1     151.055 162.553 187.794  0.00  0.00    +0.052 HD
ATOM    177  H   UNL     1     150.493 160.851 187.680  0.00  0.00    +0.052 HD
ENDBRANCH 173 174
ENDBRANCH  10 173
TORSDOF 45
ENDMDL
MODEL 8
REMARK VINA RESULT:      -4.4      5.737     12.977
REMARK  Name = Aplyronine A_conf1
REMARK  45 active torsions:
REMARK  status: ('A' for Active; 'I' for Inactive)
REMARK    1  A    between atoms: C_1  and  C_2
REMARK    2  A    between atoms: C_5  and  O_75
REMARK    3  A    between atoms: C_6  and  C_74
REMARK    4  A    between atoms: C_9  and  C_73
REMARK    5  A    between atoms: C_11  and  O_71
REMARK    6  A    between atoms: C_15  and  C_39
REMARK    7  A    between atoms: C_24  and  O_29
REMARK    8  A    between atoms: C_25  and  C_28
REMARK    9  A    between atoms: C_26  and  O_27
REMARK   10  A    between atoms: O_29  and  C_30
REMARK   11  A    between atoms: C_30  and  C_32
REMARK   12  A    between atoms: C_32  and  C_33
REMARK   13  A    between atoms: C_32  and  N_36
REMARK   14  A    between atoms: C_33  and  O_34
REMARK   15  A    between atoms: O_34  and  C_35
REMARK   16  A    between atoms: N_36  and  C_37
REMARK   17  A    between atoms: N_36  and  C_38
REMARK   18  A    between atoms: C_39  and  C_40
REMARK   19  A    between atoms: C_39  and  C_41
REMARK   20  A    between atoms: C_41  and  C_42
REMARK   21  A    between atoms: C_41  and  O_70
REMARK   22  A    between atoms: C_42  and  C_43
REMARK   23  A    between atoms: C_42  and  C_44
REMARK   24  A    between atoms: C_44  and  C_45
REMARK   25  A    between atoms: C_45  and  C_46
REMARK   26  A    between atoms: C_46  and  C_47
REMARK   27  A    between atoms: C_46  and  O_62
REMARK   28  A    between atoms: C_47  and  C_48
REMARK   29  A    between atoms: C_47  and  C_49
REMARK   30  A    between atoms: C_49  and  C_50
REMARK   31  A    between atoms: C_49  and  O_58
REMARK   32  A    between atoms: C_50  and  C_51
REMARK   33  A    between atoms: C_50  and  C_52
REMARK   34  A    between atoms: C_53  and  N_54
REMARK   35  A    between atoms: N_54  and  C_55
REMARK   36  A    between atoms: O_58  and  C_59
REMARK   37  A    between atoms: C_59  and  C_61
REMARK   38  A    between atoms: O_62  and  C_63
REMARK   39  A    between atoms: C_63  and  C_65
REMARK   40  A    between atoms: C_65  and  C_66
REMARK   41  A    between atoms: C_65  and  N_67
REMARK   42  A    between atoms: N_67  and  C_68
REMARK   43  A    between atoms: N_67  and  C_69
REMARK   44  A    between atoms: O_71  and  C_72
REMARK   45  A    between atoms: O_75  and  C_76
REMARK                            x       y       z     vdW  Elec       q    Type
REMARK                         _______ _______ _______ _____ _____    ______ ____
ROOT
ATOM      1  C   UNL     1     147.654 167.124 188.116  0.00  0.00    -0.017 C 
ATOM      2  C   UNL     1     148.890 167.468 187.260  0.00  0.00    -0.045 C 
ATOM      3  C   UNL     1     148.631 167.936 185.813  0.00  0.00    -0.022 C 
ATOM      4  C   UNL     1     147.808 167.042 184.861  0.00  0.00    +0.079 C 
ATOM      5  C   UNL     1     148.274 165.600 184.633  0.00  0.00    -0.048 C 
ATOM      6  C   UNL     1     149.551 165.202 184.821  0.00  0.00    -0.082 C 
ATOM      7  C   UNL     1     150.136 163.832 184.592  0.00  0.00    -0.032 C 
ATOM      8  C   UNL     1     150.241 162.995 185.880  0.00  0.00    -0.038 C 
ATOM      9  C   UNL     1     151.218 163.538 186.955  0.00  0.00    -0.020 C 
ATOM     10  C   UNL     1     152.673 163.760 186.492  0.00  0.00    +0.077 C 
ATOM     11  C   UNL     1     153.586 163.843 187.691  0.00  0.00    -0.059 C 
ATOM     12  C   UNL     1     154.642 163.037 187.904  0.00  0.00    -0.082 C 
ATOM     13  C   UNL     1     155.581 163.120 189.088  0.00  0.00    +0.003 C 
ATOM     14  C   UNL     1     156.419 164.421 189.233  0.00  0.00    +0.112 C 
ATOM     15  O   UNL     1     155.474 165.418 189.693  0.00  0.00    -0.458 OA
ATOM     16  C   UNL     1     155.832 166.191 190.748  0.00  0.00    +0.332 C 
ATOM     17  O   UNL     1     156.957 166.347 191.193  0.00  0.00    -0.246 OA
ATOM     18  C   UNL     1     154.636 166.803 191.363  0.00  0.00    +0.022 C 
ATOM     19  C   UNL     1     153.506 166.089 191.468  0.00  0.00    -0.055 C 
ATOM     20  C   UNL     1     152.307 166.490 192.159  0.00  0.00    -0.065 C 
ATOM     21  C   UNL     1     151.635 167.631 191.960  0.00  0.00    -0.081 C 
ATOM     22  C   UNL     1     150.307 167.898 192.632  0.00  0.00    +0.003 C 
ATOM     23  C   UNL     1     149.137 168.190 191.658  0.00  0.00    +0.111 C 
ATOM     24  C   UNL     1     149.014 167.251 190.416  0.00  0.00    +0.020 C 
ATOM     25  C   UNL     1     147.787 167.680 189.564  0.00  0.00    +0.064 C 
ATOM     26  H   UNL     1     146.782 167.647 187.700  0.00  0.00    +0.032 HD
ATOM     27  H   UNL     1     149.594 166.631 187.266  0.00  0.00    +0.027 HD
ATOM     28  H   UNL     1     149.432 168.297 187.734  0.00  0.00    +0.027 HD
ATOM     29  H   UNL     1     148.130 168.910 185.885  0.00  0.00    +0.029 HD
ATOM     30  H   UNL     1     149.608 168.137 185.349  0.00  0.00    +0.029 HD
ATOM     31  H   UNL     1     147.834 167.513 183.867  0.00  0.00    +0.064 HD
ATOM     32  H   UNL     1     150.291 165.925 185.154  0.00  0.00    +0.057 HD
ATOM     33  H   UNL     1     151.118 163.945 184.120  0.00  0.00    +0.031 HD
ATOM     34  H   UNL     1     149.548 163.288 183.849  0.00  0.00    +0.031 HD
ATOM     35  H   UNL     1     149.246 162.979 186.349  0.00  0.00    +0.030 HD
ATOM     36  H   UNL     1     151.205 162.834 187.797  0.00  0.00    +0.030 HD
ATOM     37  H   UNL     1     150.816 164.484 187.342  0.00  0.00    +0.030 HD
ATOM     38  H   UNL     1     152.980 162.947 185.826  0.00  0.00    +0.064 HD
ATOM     39  H   UNL     1     153.353 164.633 188.403  0.00  0.00    +0.059 HD
ATOM     40  H   UNL     1     154.872 162.261 187.177  0.00  0.00    +0.057 HD
ATOM     41  H   UNL     1     156.241 162.245 189.046  0.00  0.00    +0.034 HD
ATOM     42  H   UNL     1     154.978 162.979 189.995  0.00  0.00    +0.034 HD
ATOM     43  H   UNL     1     157.160 164.245 190.025  0.00  0.00    +0.074 HD
ATOM     44  H   UNL     1     154.766 167.779 191.813  0.00  0.00    +0.069 HD
ATOM     45  H   UNL     1     153.471 165.070 191.084  0.00  0.00    +0.062 HD
ATOM     46  H   UNL     1     151.894 165.731 192.825  0.00  0.00    +0.061 HD
ATOM     47  H   UNL     1     152.003 168.395 191.277  0.00  0.00    +0.057 HD
ATOM     48  H   UNL     1     150.450 168.758 193.300  0.00  0.00    +0.034 HD
ATOM     49  H   UNL     1     150.028 167.054 193.272  0.00  0.00    +0.034 HD
ATOM     50  H   UNL     1     148.205 168.098 192.232  0.00  0.00    +0.074 HD
ATOM     51  H   UNL     1     149.914 167.385 189.805  0.00  0.00    +0.036 HD
ATOM     52  H   UNL     1     147.814 168.770 189.447  0.00  0.00    +0.060 HD
ENDROOT
BRANCH   1  53
ATOM     53  C   UNL     1     147.311 165.628 188.064  0.00  0.00    -0.060 C 
ATOM     54  H   UNL     1     146.866 165.360 187.106  0.00  0.00    +0.023 HD
ATOM     55  H   UNL     1     146.587 165.344 188.831  0.00  0.00    +0.023 HD
ATOM     56  H   UNL     1     148.197 165.002 188.182  0.00  0.00    +0.023 HD
ENDBRANCH   1  53
BRANCH   5  57
ATOM     57  C   UNL     1     147.188 164.678 184.128  0.00  0.00    -0.041 C 
ATOM     58  H   UNL     1     146.885 164.875 183.097  0.00  0.00    +0.028 HD
ATOM     59  H   UNL     1     147.521 163.636 184.157  0.00  0.00    +0.028 HD
ATOM     60  H   UNL     1     146.292 164.776 184.750  0.00  0.00    +0.028 HD
ENDBRANCH   5  57
BRANCH  24  61
ATOM     61  C   UNL     1     148.936 165.780 190.850  0.00  0.00    -0.057 C 
ATOM     62  H   UNL     1     149.901 165.282 190.736  0.00  0.00    +0.023 HD
ATOM     63  H   UNL     1     148.188 165.221 190.276  0.00  0.00    +0.023 HD
ATOM     64  H   UNL     1     148.676 165.668 191.904  0.00  0.00    +0.023 HD
ENDBRANCH  24  61
BRANCH   8  65
ATOM     65  C   UNL     1     150.574 161.540 185.530  0.00  0.00    -0.062 C 
ATOM     66  H   UNL     1     150.261 160.853 186.323  0.00  0.00    +0.023 HD
ATOM     67  H   UNL     1     150.077 161.238 184.601  0.00  0.00    +0.023 HD
ATOM     68  H   UNL     1     151.652 161.414 185.385  0.00  0.00    +0.023 HD
ENDBRANCH   8  65
BRANCH  14  69
ATOM     69  C   UNL     1     157.143 164.864 187.934  0.00  0.00    +0.020 C 
ATOM     70  H   UNL     1     157.973 165.516 188.218  0.00  0.00    +0.036 HD
BRANCH  69  71
ATOM     71  C   UNL     1     157.807 163.687 187.201  0.00  0.00    -0.057 C 
ATOM     72  H   UNL     1     158.779 163.975 186.784  0.00  0.00    +0.023 HD
ATOM     73  H   UNL     1     157.993 162.849 187.880  0.00  0.00    +0.023 HD
ATOM     74  H   UNL     1     157.184 163.333 186.374  0.00  0.00    +0.023 HD
ENDBRANCH  69  71
BRANCH  69  75
ATOM     75  C   UNL     1     156.222 165.626 186.934  0.00  0.00    +0.064 C 
ATOM     76  H   UNL     1     155.290 165.053 186.851  0.00  0.00    +0.060 HD
BRANCH  75  77
ATOM     77  C   UNL     1     156.838 165.763 185.511  0.00  0.00    -0.017 C 
ATOM     78  H   UNL     1     157.424 164.855 185.324  0.00  0.00    +0.032 HD
BRANCH  77  79
ATOM     79  C   UNL     1     155.738 165.773 184.441  0.00  0.00    -0.060 C 
ATOM     80  H   UNL     1     154.959 166.512 184.651  0.00  0.00    +0.023 HD
ATOM     81  H   UNL     1     155.254 164.792 184.383  0.00  0.00    +0.023 HD
ATOM     82  H   UNL     1     156.157 165.991 183.453  0.00  0.00    +0.023 HD
ENDBRANCH  77  79
BRANCH  77  83
ATOM     83  C   UNL     1     157.819 166.951 185.301  0.00  0.00    -0.045 C 
ATOM     84  H   UNL     1     158.832 166.569 185.471  0.00  0.00    +0.027 HD
ATOM     85  H   UNL     1     157.650 167.703 186.079  0.00  0.00    +0.027 HD
BRANCH  83  86
ATOM     86  C   UNL     1     157.782 167.650 183.932  0.00  0.00    -0.015 C 
ATOM     87  H   UNL     1     158.698 167.406 183.385  0.00  0.00    +0.030 HD
ATOM     88  H   UNL     1     156.927 167.277 183.362  0.00  0.00    +0.030 HD
BRANCH  86  89
ATOM     89  C   UNL     1     157.646 169.186 184.044  0.00  0.00    +0.109 C 
ATOM     90  H   UNL     1     157.625 169.452 185.108  0.00  0.00    +0.074 HD
BRANCH  89  91
ATOM     91  C   UNL     1     156.330 169.707 183.390  0.00  0.00    +0.031 C 
ATOM     92  H   UNL     1     155.619 169.848 184.216  0.00  0.00    +0.037 HD
BRANCH  91  93
ATOM     93  C   UNL     1     155.732 168.685 182.413  0.00  0.00    -0.056 C 
ATOM     94  H   UNL     1     156.499 168.250 181.764  0.00  0.00    +0.023 HD
ATOM     95  H   UNL     1     154.966 169.141 181.776  0.00  0.00    +0.023 HD
ATOM     96  H   UNL     1     155.274 167.843 182.939  0.00  0.00    +0.023 HD
ENDBRANCH  91  93
BRANCH  91  97
ATOM     97  C   UNL     1     156.550 171.086 182.686  0.00  0.00    +0.115 C 
ATOM     98  H   UNL     1     157.606 171.143 182.387  0.00  0.00    +0.074 HD
BRANCH  97  99
ATOM     99  C   UNL     1     155.673 171.293 181.412  0.00  0.00    +0.013 C 
ATOM    100  H   UNL     1     155.519 170.310 180.949  0.00  0.00    +0.038 HD
BRANCH  99 101
ATOM    101  C   UNL     1     156.367 172.154 180.348  0.00  0.00    -0.056 C 
ATOM    102  H   UNL     1     157.398 171.814 180.191  0.00  0.00    +0.024 HD
ATOM    103  H   UNL     1     155.858 172.105 179.378  0.00  0.00    +0.024 HD
ATOM    104  H   UNL     1     156.411 173.201 180.666  0.00  0.00    +0.024 HD
ENDBRANCH  99 101
BRANCH  99 105
ATOM    105  C   UNL     1     154.328 171.913 181.732  0.00  0.00    -0.064 C 
ATOM    106  C   UNL     1     153.607 172.605 180.838  0.00  0.00    -0.005 C 
ATOM    107  H   UNL     1     153.965 171.749 182.743  0.00  0.00    +0.059 HD
ATOM    108  H   UNL     1     153.998 172.756 179.833  0.00  0.00    +0.078 HD
BRANCH 106 109
ATOM    109  N   UNL     1     152.361 173.172 181.068  0.00  0.00    -0.284 N 
ATOM    110  C   UNL     1     151.299 172.877 180.214  0.00  0.00    +0.206 C 
ATOM    111  O   UNL     1     151.327 172.131 179.241  0.00  0.00    -0.279 OA
ATOM    112  H   UNL     1     150.370 173.398 180.499  0.00  0.00    +0.126 HD
BRANCH 109 113
ATOM    113  C   UNL     1     152.133 174.066 182.193  0.00  0.00    +0.007 C 
ATOM    114  H   UNL     1     152.969 173.985 182.895  0.00  0.00    +0.043 HD
ATOM    115  H   UNL     1     152.059 175.108 181.865  0.00  0.00    +0.043 HD
ATOM    116  H   UNL     1     151.194 173.797 182.690  0.00  0.00    +0.043 HD
ENDBRANCH 109 113
ENDBRANCH 106 109
ENDBRANCH  99 105
ENDBRANCH  97  99
BRANCH  97 117
ATOM    117  O   UNL     1     156.249 172.129 183.651  0.00  0.00    -0.461 OA
BRANCH 117 118
ATOM    118  C   UNL     1     157.132 173.163 183.738  0.00  0.00    +0.304 C 
ATOM    119  O   UNL     1     158.305 173.074 184.068  0.00  0.00    -0.251 OA
BRANCH 118 120
ATOM    120  C   UNL     1     156.475 174.441 183.318  0.00  0.00    +0.033 C 
ATOM    121  H   UNL     1     156.433 175.138 184.160  0.00  0.00    +0.034 HD
ATOM    122  H   UNL     1     157.067 174.905 182.524  0.00  0.00    +0.034 HD
ATOM    123  H   UNL     1     155.474 174.230 182.938  0.00  0.00    +0.034 HD
ENDBRANCH 118 120
ENDBRANCH 117 118
ENDBRANCH  97 117
ENDBRANCH  91  97
ENDBRANCH  89  91
BRANCH  89 124
ATOM    124  O   UNL     1     158.762 169.804 183.369  0.00  0.00    -0.460 OA
BRANCH 124 125
ATOM    125  C   UNL     1     159.849 170.152 184.113  0.00  0.00    +0.324 C 
ATOM    126  O   UNL     1     159.957 169.941 185.318  0.00  0.00    -0.249 OA
BRANCH 125 127
ATOM    127  C   UNL     1     160.914 170.909 183.294  0.00  0.00    +0.105 C 
ATOM    128  H   UNL     1     161.017 171.902 183.751  0.00  0.00    +0.058 HD
BRANCH 127 129
ATOM    129  C   UNL     1     160.330 171.080 181.887  0.00  0.00    -0.039 C 
ATOM    130  H   UNL     1     161.001 170.666 181.128  0.00  0.00    +0.025 HD
ATOM    131  H   UNL     1     159.370 170.559 181.805  0.00  0.00    +0.025 HD
ATOM    132  H   UNL     1     160.138 172.130 181.646  0.00  0.00    +0.025 HD
ENDBRANCH 127 129
BRANCH 127 133
ATOM    133  N   UNL     1     162.248 170.233 183.318  0.00  0.00    -0.296 NA
BRANCH 133 134
ATOM    134  C   UNL     1     163.245 171.009 182.568  0.00  0.00    -0.012 C 
ATOM    135  H   UNL     1     162.936 172.051 182.443  0.00  0.00    +0.039 HD
ATOM    136  H   UNL     1     163.431 170.582 181.576  0.00  0.00    +0.039 HD
ATOM    137  H   UNL     1     164.196 171.038 183.115  0.00  0.00    +0.039 HD
ENDBRANCH 133 134
BRANCH 133 138
ATOM    138  C   UNL     1     162.192 168.876 182.768  0.00  0.00    -0.012 C 
ATOM    139  H   UNL     1     163.113 168.638 182.221  0.00  0.00    +0.039 HD
ATOM    140  H   UNL     1     162.119 168.126 183.564  0.00  0.00    +0.039 HD
ATOM    141  H   UNL     1     161.345 168.747 182.082  0.00  0.00    +0.039 HD
ENDBRANCH 133 138
ENDBRANCH 127 133
ENDBRANCH 125 127
ENDBRANCH 124 125
ENDBRANCH  89 124
ENDBRANCH  86  89
ENDBRANCH  83  86
ENDBRANCH  77  83
ENDBRANCH  75  77
BRANCH  75 142
ATOM    142  O   UNL     1     155.833 166.894 187.443  0.00  0.00    -0.391 OA
ATOM    143  H   UNL     1     155.541 167.442 186.694  0.00  0.00    +0.210 HD
ENDBRANCH  75 142
ENDBRANCH  69  75
ENDBRANCH  14  69
BRANCH  25 144
ATOM    144  O   UNL     1     146.586 167.412 190.302  0.00  0.00    -0.391 OA
ATOM    145  H   UNL     1     146.569 168.008 191.068  0.00  0.00    +0.210 HD
ENDBRANCH  25 144
BRANCH  23 146
ATOM    146  O   UNL     1     149.300 169.559 191.193  0.00  0.00    -0.460 OA
BRANCH 146 147
ATOM    147  C   UNL     1     148.332 170.436 191.607  0.00  0.00    +0.327 C 
ATOM    148  O   UNL     1     147.957 170.562 192.770  0.00  0.00    -0.249 OA
BRANCH 147 149
ATOM    149  C   UNL     1     147.757 171.216 190.415  0.00  0.00    +0.131 C 
ATOM    150  H   UNL     1     148.487 171.154 189.597  0.00  0.00    +0.060 HD
BRANCH 149 151
ATOM    151  C   UNL     1     147.673 172.699 190.818  0.00  0.00    +0.073 C 
ATOM    152  H   UNL     1     147.248 173.285 189.995  0.00  0.00    +0.058 HD
ATOM    153  H   UNL     1     147.049 172.843 191.706  0.00  0.00    +0.058 HD
BRANCH 151 154
ATOM    154  O   UNL     1     148.998 173.191 191.066  0.00  0.00    -0.381 OA
BRANCH 154 155
ATOM    155  C   UNL     1     149.082 173.859 192.318  0.00  0.00    +0.037 C 
ATOM    156  H   UNL     1     148.233 173.594 192.955  0.00  0.00    +0.052 HD
ATOM    157  H   UNL     1     149.057 174.937 192.135  0.00  0.00    +0.052 HD
ATOM    158  H   UNL     1     150.022 173.616 192.821  0.00  0.00    +0.052 HD
ENDBRANCH 154 155
ENDBRANCH 151 154
ENDBRANCH 149 151
BRANCH 149 159
ATOM    159  N   UNL     1     146.431 170.704 189.949  0.00  0.00    -0.294 NA
BRANCH 159 160
ATOM    160  C   UNL     1     145.327 171.451 190.547  0.00  0.00    -0.012 C 
ATOM    161  H   UNL     1     144.865 172.157 189.852  0.00  0.00    +0.039 HD
ATOM    162  H   UNL     1     145.680 172.001 191.422  0.00  0.00    +0.039 HD
ATOM    163  H   UNL     1     144.547 170.774 190.910  0.00  0.00    +0.039 HD
ENDBRANCH 159 160
BRANCH 159 164
ATOM    164  C   UNL     1     146.298 170.649 188.493  0.00  0.00    -0.012 C 
ATOM    165  H   UNL     1     145.451 170.033 188.171  0.00  0.00    +0.039 HD
ATOM    166  H   UNL     1     147.203 170.224 188.046  0.00  0.00    +0.039 HD
ATOM    167  H   UNL     1     146.185 171.649 188.065  0.00  0.00    +0.039 HD
ENDBRANCH 159 164
ENDBRANCH 149 159
ENDBRANCH 147 149
ENDBRANCH 146 147
ENDBRANCH  23 146
BRANCH   4 168
ATOM    168  O   UNL     1     146.447 167.031 185.322  0.00  0.00    -0.376 OA
BRANCH 168 169
ATOM    169  C   UNL     1     145.763 168.256 185.089  0.00  0.00    +0.037 C 
ATOM    170  H   UNL     1     144.986 168.361 185.851  0.00  0.00    +0.052 HD
ATOM    171  H   UNL     1     145.287 168.236 184.105  0.00  0.00    +0.052 HD
ATOM    172  H   UNL     1     146.443 169.109 185.166  0.00  0.00    +0.052 HD
ENDBRANCH 168 169
ENDBRANCH   4 168
BRANCH  10 173
ATOM    173  O   UNL     1     152.727 165.007 185.792  0.00  0.00    -0.376 OA
BRANCH 173 174
ATOM    174  C   UNL     1     152.542 166.139 186.636  0.00  0.00    +0.037 C 
ATOM    175  H   UNL     1     153.324 166.127 187.399  0.00  0.00    +0.052 HD
ATOM    176  H   UNL     1     152.637 167.066 186.065  0.00  0.00    +0.052 HD
ATOM    177  H   UNL     1     151.569 166.098 187.137  0.00  0.00    +0.052 HD
ENDBRANCH 173 174
ENDBRANCH  10 173
TORSDOF 45
ENDMDL
MODEL 9
REMARK VINA RESULT:      -4.3      2.262      4.968
REMARK  Name = Aplyronine A_conf1
REMARK  45 active torsions:
REMARK  status: ('A' for Active; 'I' for Inactive)
REMARK    1  A    between atoms: C_1  and  C_2
REMARK    2  A    between atoms: C_5  and  O_75
REMARK    3  A    between atoms: C_6  and  C_74
REMARK    4  A    between atoms: C_9  and  C_73
REMARK    5  A    between atoms: C_11  and  O_71
REMARK    6  A    between atoms: C_15  and  C_39
REMARK    7  A    between atoms: C_24  and  O_29
REMARK    8  A    between atoms: C_25  and  C_28
REMARK    9  A    between atoms: C_26  and  O_27
REMARK   10  A    between atoms: O_29  and  C_30
REMARK   11  A    between atoms: C_30  and  C_32
REMARK   12  A    between atoms: C_32  and  C_33
REMARK   13  A    between atoms: C_32  and  N_36
REMARK   14  A    between atoms: C_33  and  O_34
REMARK   15  A    between atoms: O_34  and  C_35
REMARK   16  A    between atoms: N_36  and  C_37
REMARK   17  A    between atoms: N_36  and  C_38
REMARK   18  A    between atoms: C_39  and  C_40
REMARK   19  A    between atoms: C_39  and  C_41
REMARK   20  A    between atoms: C_41  and  C_42
REMARK   21  A    between atoms: C_41  and  O_70
REMARK   22  A    between atoms: C_42  and  C_43
REMARK   23  A    between atoms: C_42  and  C_44
REMARK   24  A    between atoms: C_44  and  C_45
REMARK   25  A    between atoms: C_45  and  C_46
REMARK   26  A    between atoms: C_46  and  C_47
REMARK   27  A    between atoms: C_46  and  O_62
REMARK   28  A    between atoms: C_47  and  C_48
REMARK   29  A    between atoms: C_47  and  C_49
REMARK   30  A    between atoms: C_49  and  C_50
REMARK   31  A    between atoms: C_49  and  O_58
REMARK   32  A    between atoms: C_50  and  C_51
REMARK   33  A    between atoms: C_50  and  C_52
REMARK   34  A    between atoms: C_53  and  N_54
REMARK   35  A    between atoms: N_54  and  C_55
REMARK   36  A    between atoms: O_58  and  C_59
REMARK   37  A    between atoms: C_59  and  C_61
REMARK   38  A    between atoms: O_62  and  C_63
REMARK   39  A    between atoms: C_63  and  C_65
REMARK   40  A    between atoms: C_65  and  C_66
REMARK   41  A    between atoms: C_65  and  N_67
REMARK   42  A    between atoms: N_67  and  C_68
REMARK   43  A    between atoms: N_67  and  C_69
REMARK   44  A    between atoms: O_71  and  C_72
REMARK   45  A    between atoms: O_75  and  C_76
REMARK                            x       y       z     vdW  Elec       q    Type
REMARK                         _______ _______ _______ _____ _____    ______ ____
ROOT
ATOM      1  C   UNL     1     159.968 156.405 191.701  0.00  0.00    -0.017 C 
ATOM      2  C   UNL     1     158.527 156.904 191.936  0.00  0.00    -0.045 C 
ATOM      3  C   UNL     1     157.555 155.931 192.636  0.00  0.00    -0.022 C 
ATOM      4  C   UNL     1     157.326 154.526 192.039  0.00  0.00    +0.079 C 
ATOM      5  C   UNL     1     156.861 154.422 190.582  0.00  0.00    -0.048 C 
ATOM      6  C   UNL     1     156.214 155.422 189.943  0.00  0.00    -0.082 C 
ATOM      7  C   UNL     1     155.673 155.424 188.537  0.00  0.00    -0.032 C 
ATOM      8  C   UNL     1     156.618 156.100 187.526  0.00  0.00    -0.038 C 
ATOM      9  C   UNL     1     156.850 157.619 187.737  0.00  0.00    -0.020 C 
ATOM     10  C   UNL     1     155.580 158.497 187.762  0.00  0.00    +0.077 C 
ATOM     11  C   UNL     1     155.950 159.940 187.518  0.00  0.00    -0.059 C 
ATOM     12  C   UNL     1     155.460 160.695 186.518  0.00  0.00    -0.082 C 
ATOM     13  C   UNL     1     155.802 162.149 186.272  0.00  0.00    +0.003 C 
ATOM     14  C   UNL     1     155.390 163.165 187.374  0.00  0.00    +0.112 C 
ATOM     15  O   UNL     1     156.335 162.946 188.449  0.00  0.00    -0.458 OA
ATOM     16  C   UNL     1     156.936 164.033 188.996  0.00  0.00    +0.332 C 
ATOM     17  O   UNL     1     156.583 165.195 188.889  0.00  0.00    -0.246 OA
ATOM     18  C   UNL     1     158.160 163.629 189.719  0.00  0.00    +0.022 C 
ATOM     19  C   UNL     1     158.948 162.673 189.206  0.00  0.00    -0.055 C 
ATOM     20  C   UNL     1     160.235 162.269 189.714  0.00  0.00    -0.065 C 
ATOM     21  C   UNL     1     160.494 161.889 190.972  0.00  0.00    -0.081 C 
ATOM     22  C   UNL     1     161.846 161.345 191.373  0.00  0.00    +0.003 C 
ATOM     23  C   UNL     1     161.812 159.925 191.996  0.00  0.00    +0.111 C 
ATOM     24  C   UNL     1     160.919 158.868 191.272  0.00  0.00    +0.020 C 
ATOM     25  C   UNL     1     161.016 157.510 192.023  0.00  0.00    +0.064 C 
ATOM     26  H   UNL     1     160.184 155.604 192.421  0.00  0.00    +0.032 HD
ATOM     27  H   UNL     1     158.095 157.258 190.996  0.00  0.00    +0.027 HD
ATOM     28  H   UNL     1     158.559 157.790 192.585  0.00  0.00    +0.027 HD
ATOM     29  H   UNL     1     157.921 155.809 193.663  0.00  0.00    +0.029 HD
ATOM     30  H   UNL     1     156.584 156.439 192.723  0.00  0.00    +0.029 HD
ATOM     31  H   UNL     1     156.531 154.047 192.629  0.00  0.00    +0.064 HD
ATOM     32  H   UNL     1     156.011 156.349 190.473  0.00  0.00    +0.057 HD
ATOM     33  H   UNL     1     154.692 155.911 188.539  0.00  0.00    +0.031 HD
ATOM     34  H   UNL     1     155.460 154.403 188.210  0.00  0.00    +0.031 HD
ATOM     35  H   UNL     1     157.605 155.623 187.621  0.00  0.00    +0.030 HD
ATOM     36  H   UNL     1     157.518 157.964 186.938  0.00  0.00    +0.030 HD
ATOM     37  H   UNL     1     157.400 157.758 188.677  0.00  0.00    +0.030 HD
ATOM     38  H   UNL     1     154.870 158.145 187.005  0.00  0.00    +0.064 HD
ATOM     39  H   UNL     1     156.650 160.370 188.232  0.00  0.00    +0.059 HD
ATOM     40  H   UNL     1     154.750 160.256 185.820  0.00  0.00    +0.057 HD
ATOM     41  H   UNL     1     155.361 162.432 185.309  0.00  0.00    +0.034 HD
ATOM     42  H   UNL     1     156.888 162.209 186.117  0.00  0.00    +0.034 HD
ATOM     43  H   UNL     1     155.548 164.172 186.964  0.00  0.00    +0.074 HD
ATOM     44  H   UNL     1     158.429 164.220 190.586  0.00  0.00    +0.069 HD
ATOM     45  H   UNL     1     158.672 162.187 188.272  0.00  0.00    +0.062 HD
ATOM     46  H   UNL     1     161.015 162.190 188.956  0.00  0.00    +0.061 HD
ATOM     47  H   UNL     1     159.728 161.925 191.745  0.00  0.00    +0.057 HD
ATOM     48  H   UNL     1     162.278 162.051 192.096  0.00  0.00    +0.034 HD
ATOM     49  H   UNL     1     162.522 161.333 190.512  0.00  0.00    +0.034 HD
ATOM     50  H   UNL     1     162.842 159.543 191.993  0.00  0.00    +0.074 HD
ATOM     51  H   UNL     1     159.881 159.213 191.328  0.00  0.00    +0.036 HD
ATOM     52  H   UNL     1     160.905 157.702 193.096  0.00  0.00    +0.060 HD
ENDROOT
BRANCH   1  53
ATOM     53  C   UNL     1     160.145 155.780 190.310  0.00  0.00    -0.060 C 
ATOM     54  H   UNL     1     160.029 156.529 189.525  0.00  0.00    +0.023 HD
ATOM     55  H   UNL     1     159.402 155.005 190.108  0.00  0.00    +0.023 HD
ATOM     56  H   UNL     1     161.137 155.345 190.180  0.00  0.00    +0.023 HD
ENDBRANCH   1  53
BRANCH   5  57
ATOM     57  C   UNL     1     157.144 153.082 189.942  0.00  0.00    -0.041 C 
ATOM     58  H   UNL     1     157.896 152.491 190.470  0.00  0.00    +0.028 HD
ATOM     59  H   UNL     1     156.238 152.469 189.910  0.00  0.00    +0.028 HD
ATOM     60  H   UNL     1     157.508 153.223 188.919  0.00  0.00    +0.028 HD
ENDBRANCH   5  57
BRANCH  24  61
ATOM     61  C   UNL     1     161.312 158.745 189.792  0.00  0.00    -0.057 C 
ATOM     62  H   UNL     1     160.432 158.776 189.146  0.00  0.00    +0.023 HD
ATOM     63  H   UNL     1     161.859 157.818 189.587  0.00  0.00    +0.023 HD
ATOM     64  H   UNL     1     161.945 159.569 189.458  0.00  0.00    +0.023 HD
ENDBRANCH  24  61
BRANCH   8  65
ATOM     65  C   UNL     1     156.141 155.818 186.097  0.00  0.00    -0.062 C 
ATOM     66  H   UNL     1     155.087 156.080 185.965  0.00  0.00    +0.023 HD
ATOM     67  H   UNL     1     156.729 156.388 185.368  0.00  0.00    +0.023 HD
ATOM     68  H   UNL     1     156.254 154.756 185.855  0.00  0.00    +0.023 HD
ENDBRANCH   8  65
BRANCH  14  69
ATOM     69  C   UNL     1     153.921 163.026 187.856  0.00  0.00    +0.020 C 
ATOM     70  H   UNL     1     153.407 162.347 187.171  0.00  0.00    +0.036 HD
BRANCH  69  71
ATOM     71  C   UNL     1     153.816 162.345 189.230  0.00  0.00    -0.057 C 
ATOM     72  H   UNL     1     152.927 161.708 189.292  0.00  0.00    +0.023 HD
ATOM     73  H   UNL     1     154.679 161.699 189.422  0.00  0.00    +0.023 HD
ATOM     74  H   UNL     1     153.750 163.084 190.035  0.00  0.00    +0.023 HD
ENDBRANCH  69  71
BRANCH  69  75
ATOM     75  C   UNL     1     153.148 164.378 187.902  0.00  0.00    +0.064 C 
ATOM     76  H   UNL     1     152.822 164.529 188.938  0.00  0.00    +0.060 HD
BRANCH  75  77
ATOM     77  C   UNL     1     151.888 164.399 186.987  0.00  0.00    -0.017 C 
ATOM     78  H   UNL     1     152.121 165.043 186.130  0.00  0.00    +0.032 HD
BRANCH  77  79
ATOM     79  C   UNL     1     151.621 163.007 186.398  0.00  0.00    -0.060 C 
ATOM     80  H   UNL     1     151.973 162.917 185.366  0.00  0.00    +0.023 HD
ATOM     81  H   UNL     1     150.547 162.792 186.400  0.00  0.00    +0.023 HD
ATOM     82  H   UNL     1     152.112 162.230 186.994  0.00  0.00    +0.023 HD
ENDBRANCH  77  79
BRANCH  77  83
ATOM     83  C   UNL     1     150.594 164.985 187.618  0.00  0.00    -0.045 C 
ATOM     84  H   UNL     1     149.744 164.477 187.148  0.00  0.00    +0.027 HD
ATOM     85  H   UNL     1     150.500 166.040 187.342  0.00  0.00    +0.027 HD
BRANCH  83  86
ATOM     86  C   UNL     1     150.450 164.868 189.145  0.00  0.00    -0.015 C 
ATOM     87  H   UNL     1     149.753 164.055 189.374  0.00  0.00    +0.030 HD
ATOM     88  H   UNL     1     151.423 164.624 189.579  0.00  0.00    +0.030 HD
BRANCH  86  89
ATOM     89  C   UNL     1     149.948 166.173 189.805  0.00  0.00    +0.109 C 
ATOM     90  H   UNL     1     150.060 166.073 190.891  0.00  0.00    +0.074 HD
BRANCH  89  91
ATOM     91  C   UNL     1     148.444 166.443 189.497  0.00  0.00    +0.031 C 
ATOM     92  H   UNL     1     148.049 165.506 189.080  0.00  0.00    +0.037 HD
BRANCH  91  93
ATOM     93  C   UNL     1     148.263 167.547 188.445  0.00  0.00    -0.056 C 
ATOM     94  H   UNL     1     148.981 167.445 187.626  0.00  0.00    +0.023 HD
ATOM     95  H   UNL     1     148.388 168.543 188.885  0.00  0.00    +0.023 HD
ATOM     96  H   UNL     1     147.273 167.506 187.982  0.00  0.00    +0.023 HD
ENDBRANCH  91  93
BRANCH  91  97
ATOM     97  C   UNL     1     147.646 166.780 190.800  0.00  0.00    +0.115 C 
ATOM     98  H   UNL     1     147.472 165.837 191.336  0.00  0.00    +0.074 HD
BRANCH  97  99
ATOM     99  C   UNL     1     148.392 167.756 191.762  0.00  0.00    +0.013 C 
ATOM    100  H   UNL     1     149.467 167.652 191.577  0.00  0.00    +0.038 HD
BRANCH  99 101
ATOM    101  C   UNL     1     148.184 167.402 193.242  0.00  0.00    -0.056 C 
ATOM    102  H   UNL     1     148.880 166.612 193.549  0.00  0.00    +0.024 HD
ATOM    103  H   UNL     1     148.356 168.261 193.901  0.00  0.00    +0.024 HD
ATOM    104  H   UNL     1     147.168 167.031 193.411  0.00  0.00    +0.024 HD
ENDBRANCH  99 101
BRANCH  99 105
ATOM    105  C   UNL     1     147.982 169.199 191.550  0.00  0.00    -0.064 C 
ATOM    106  C   UNL     1     148.444 170.211 192.298  0.00  0.00    -0.005 C 
ATOM    107  H   UNL     1     147.293 169.376 190.729  0.00  0.00    +0.059 HD
ATOM    108  H   UNL     1     149.133 170.004 193.117  0.00  0.00    +0.078 HD
BRANCH 106 109
ATOM    109  N   UNL     1     148.125 171.552 192.133  0.00  0.00    -0.284 N 
ATOM    110  C   UNL     1     148.794 172.519 192.882  0.00  0.00    +0.206 C 
ATOM    111  O   UNL     1     149.685 172.324 193.702  0.00  0.00    -0.279 OA
ATOM    112  H   UNL     1     148.441 173.541 192.665  0.00  0.00    +0.126 HD
BRANCH 109 113
ATOM    113  C   UNL     1     147.107 171.976 191.184  0.00  0.00    +0.007 C 
ATOM    114  H   UNL     1     147.324 171.541 190.203  0.00  0.00    +0.043 HD
ATOM    115  H   UNL     1     146.111 171.645 191.494  0.00  0.00    +0.043 HD
ATOM    116  H   UNL     1     147.099 173.070 191.120  0.00  0.00    +0.043 HD
ENDBRANCH 109 113
ENDBRANCH 106 109
ENDBRANCH  99 105
ENDBRANCH  97  99
BRANCH  97 117
ATOM    117  O   UNL     1     146.379 167.370 190.403  0.00  0.00    -0.461 OA
BRANCH 117 118
ATOM    118  C   UNL     1     145.253 166.840 190.955  0.00  0.00    +0.304 C 
ATOM    119  O   UNL     1     145.166 165.744 191.488  0.00  0.00    -0.251 OA
BRANCH 118 120
ATOM    120  C   UNL     1     144.123 167.818 190.867  0.00  0.00    +0.033 C 
ATOM    121  H   UNL     1     143.705 168.003 191.861  0.00  0.00    +0.034 HD
ATOM    122  H   UNL     1     144.500 168.768 190.477  0.00  0.00    +0.034 HD
ATOM    123  H   UNL     1     143.359 167.434 190.189  0.00  0.00    +0.034 HD
ENDBRANCH 118 120
ENDBRANCH 117 118
ENDBRANCH  97 117
ENDBRANCH  91  97
ENDBRANCH  89  91
BRANCH  89 124
ATOM    124  O   UNL     1     150.720 167.281 189.295  0.00  0.00    -0.460 OA
BRANCH 124 125
ATOM    125  C   UNL     1     151.975 167.470 189.790  0.00  0.00    +0.324 C 
ATOM    126  O   UNL     1     152.969 167.665 189.095  0.00  0.00    -0.249 OA
BRANCH 125 127
ATOM    127  C   UNL     1     152.035 167.344 191.325  0.00  0.00    +0.105 C 
ATOM    128  H   UNL     1     151.180 166.725 191.627  0.00  0.00    +0.058 HD
BRANCH 127 129
ATOM    129  C   UNL     1     151.829 168.759 191.879  0.00  0.00    -0.039 C 
ATOM    130  H   UNL     1     150.793 169.087 191.751  0.00  0.00    +0.025 HD
ATOM    131  H   UNL     1     152.059 168.787 192.950  0.00  0.00    +0.025 HD
ATOM    132  H   UNL     1     152.487 169.489 191.398  0.00  0.00    +0.025 HD
ENDBRANCH 127 129
BRANCH 127 133
ATOM    133  N   UNL     1     153.291 166.685 191.802  0.00  0.00    -0.296 NA
BRANCH 133 134
ATOM    134  C   UNL     1     153.260 165.240 191.539  0.00  0.00    -0.012 C 
ATOM    135  H   UNL     1     152.311 164.931 191.091  0.00  0.00    +0.039 HD
ATOM    136  H   UNL     1     153.416 164.657 192.454  0.00  0.00    +0.039 HD
ATOM    137  H   UNL     1     154.040 164.966 190.818  0.00  0.00    +0.039 HD
ENDBRANCH 133 134
BRANCH 133 138
ATOM    138  C   UNL     1     153.521 166.902 193.234  0.00  0.00    -0.012 C 
ATOM    139  H   UNL     1     152.914 166.214 193.835  0.00  0.00    +0.039 HD
ATOM    140  H   UNL     1     154.562 166.692 193.505  0.00  0.00    +0.039 HD
ATOM    141  H   UNL     1     153.276 167.927 193.537  0.00  0.00    +0.039 HD
ENDBRANCH 133 138
ENDBRANCH 127 133
ENDBRANCH 125 127
ENDBRANCH 124 125
ENDBRANCH  89 124
ENDBRANCH  86  89
ENDBRANCH  83  86
ENDBRANCH  77  83
ENDBRANCH  75  77
BRANCH  75 142
ATOM    142  O   UNL     1     154.000 165.479 187.617  0.00  0.00    -0.391 OA
ATOM    143  H   UNL     1     153.764 165.821 186.738  0.00  0.00    +0.210 HD
ENDBRANCH  75 142
ENDBRANCH  69  75
ENDBRANCH  14  69
BRANCH  25 144
ATOM    144  O   UNL     1     162.342 156.984 191.871  0.00  0.00    -0.391 OA
ATOM    145  H   UNL     1     162.889 157.347 192.586  0.00  0.00    +0.210 HD
ENDBRANCH  25 144
BRANCH  23 146
ATOM    146  O   UNL     1     161.343 160.071 193.366  0.00  0.00    -0.460 OA
BRANCH 146 147
ATOM    147  C   UNL     1     162.299 159.903 194.332  0.00  0.00    +0.327 C 
ATOM    148  O   UNL     1     162.905 158.854 194.538  0.00  0.00    -0.249 OA
BRANCH 147 149
ATOM    149  C   UNL     1     162.487 161.194 195.145  0.00  0.00    +0.131 C 
ATOM    150  H   UNL     1     163.193 160.973 195.956  0.00  0.00    +0.060 HD
BRANCH 149 151
ATOM    151  C   UNL     1     161.142 161.531 195.812  0.00  0.00    +0.073 C 
ATOM    152  H   UNL     1     160.989 162.617 195.813  0.00  0.00    +0.058 HD
ATOM    153  H   UNL     1     160.301 161.063 195.289  0.00  0.00    +0.058 HD
BRANCH 151 154
ATOM    154  O   UNL     1     161.175 161.093 197.178  0.00  0.00    -0.381 OA
BRANCH 154 155
ATOM    155  C   UNL     1     162.430 161.372 197.786  0.00  0.00    +0.037 C 
ATOM    156  H   UNL     1     163.208 160.716 197.384  0.00  0.00    +0.052 HD
ATOM    157  H   UNL     1     162.340 161.188 198.860  0.00  0.00    +0.052 HD
ATOM    158  H   UNL     1     162.705 162.420 197.636  0.00  0.00    +0.052 HD
ENDBRANCH 154 155
ENDBRANCH 151 154
ENDBRANCH 149 151
BRANCH 149 159
ATOM    159  N   UNL     1     162.994 162.343 194.332  0.00  0.00    -0.294 NA
BRANCH 159 160
ATOM    160  C   UNL     1     162.130 163.513 194.460  0.00  0.00    -0.012 C 
ATOM    161  H   UNL     1     161.133 163.267 194.836  0.00  0.00    +0.039 HD
ATOM    162  H   UNL     1     162.027 164.009 193.493  0.00  0.00    +0.039 HD
ATOM    163  H   UNL     1     162.572 164.255 195.134  0.00  0.00    +0.039 HD
ENDBRANCH 159 160
BRANCH 159 164
ATOM    164  C   UNL     1     164.389 162.690 194.607  0.00  0.00    -0.012 C 
ATOM    165  H   UNL     1     164.882 163.160 193.748  0.00  0.00    +0.039 HD
ATOM    166  H   UNL     1     164.960 161.790 194.862  0.00  0.00    +0.039 HD
ATOM    167  H   UNL     1     164.471 163.360 195.467  0.00  0.00    +0.039 HD
ENDBRANCH 159 164
ENDBRANCH 149 159
ENDBRANCH 147 149
ENDBRANCH 146 147
ENDBRANCH  23 146
BRANCH   4 168
ATOM    168  O   UNL     1     158.534 153.766 192.204  0.00  0.00    -0.376 OA
BRANCH 168 169
ATOM    169  C   UNL     1     158.749 153.333 193.541  0.00  0.00    +0.037 C 
ATOM    170  H   UNL     1     157.944 152.643 193.808  0.00  0.00    +0.052 HD
ATOM    171  H   UNL     1     158.715 154.189 194.220  0.00  0.00    +0.052 HD
ATOM    172  H   UNL     1     159.703 152.808 193.638  0.00  0.00    +0.052 HD
ENDBRANCH 168 169
ENDBRANCH   4 168
BRANCH  10 173
ATOM    173  O   UNL     1     154.995 158.389 189.063  0.00  0.00    -0.376 OA
BRANCH 173 174
ATOM    174  C   UNL     1     155.744 159.054 190.076  0.00  0.00    +0.037 C 
ATOM    175  H   UNL     1     156.379 158.315 190.571  0.00  0.00    +0.052 HD
ATOM    176  H   UNL     1     156.390 159.819 189.638  0.00  0.00    +0.052 HD
ATOM    177  H   UNL     1     155.080 159.498 190.826  0.00  0.00    +0.052 HD
ENDBRANCH 173 174
ENDBRANCH  10 173
TORSDOF 45
ENDMDL
MODEL 10
REMARK VINA RESULT:      -4.3      7.069     13.419
REMARK  Name = Aplyronine A_conf1
REMARK  45 active torsions:
REMARK  status: ('A' for Active; 'I' for Inactive)
REMARK    1  A    between atoms: C_1  and  C_2
REMARK    2  A    between atoms: C_5  and  O_75
REMARK    3  A    between atoms: C_6  and  C_74
REMARK    4  A    between atoms: C_9  and  C_73
REMARK    5  A    between atoms: C_11  and  O_71
REMARK    6  A    between atoms: C_15  and  C_39
REMARK    7  A    between atoms: C_24  and  O_29
REMARK    8  A    between atoms: C_25  and  C_28
REMARK    9  A    between atoms: C_26  and  O_27
REMARK   10  A    between atoms: O_29  and  C_30
REMARK   11  A    between atoms: C_30  and  C_32
REMARK   12  A    between atoms: C_32  and  C_33
REMARK   13  A    between atoms: C_32  and  N_36
REMARK   14  A    between atoms: C_33  and  O_34
REMARK   15  A    between atoms: O_34  and  C_35
REMARK   16  A    between atoms: N_36  and  C_37
REMARK   17  A    between atoms: N_36  and  C_38
REMARK   18  A    between atoms: C_39  and  C_40
REMARK   19  A    between atoms: C_39  and  C_41
REMARK   20  A    between atoms: C_41  and  C_42
REMARK   21  A    between atoms: C_41  and  O_70
REMARK   22  A    between atoms: C_42  and  C_43
REMARK   23  A    between atoms: C_42  and  C_44
REMARK   24  A    between atoms: C_44  and  C_45
REMARK   25  A    between atoms: C_45  and  C_46
REMARK   26  A    between atoms: C_46  and  C_47
REMARK   27  A    between atoms: C_46  and  O_62
REMARK   28  A    between atoms: C_47  and  C_48
REMARK   29  A    between atoms: C_47  and  C_49
REMARK   30  A    between atoms: C_49  and  C_50
REMARK   31  A    between atoms: C_49  and  O_58
REMARK   32  A    between atoms: C_50  and  C_51
REMARK   33  A    between atoms: C_50  and  C_52
REMARK   34  A    between atoms: C_53  and  N_54
REMARK   35  A    between atoms: N_54  and  C_55
REMARK   36  A    between atoms: O_58  and  C_59
REMARK   37  A    between atoms: C_59  and  C_61
REMARK   38  A    between atoms: O_62  and  C_63
REMARK   39  A    between atoms: C_63  and  C_65
REMARK   40  A    between atoms: C_65  and  C_66
REMARK   41  A    between atoms: C_65  and  N_67
REMARK   42  A    between atoms: N_67  and  C_68
REMARK   43  A    between atoms: N_67  and  C_69
REMARK   44  A    between atoms: O_71  and  C_72
REMARK   45  A    between atoms: O_75  and  C_76
REMARK                            x       y       z     vdW  Elec       q    Type
REMARK                         _______ _______ _______ _____ _____    ______ ____
ROOT
ATOM      1  C   UNL     1     153.383 172.356 179.133  0.00  0.00    -0.017 C 
ATOM      2  C   UNL     1     153.438 172.268 180.671  0.00  0.00    -0.045 C 
ATOM      3  C   UNL     1     153.394 173.599 181.451  0.00  0.00    -0.022 C 
ATOM      4  C   UNL     1     154.438 174.694 181.144  0.00  0.00    +0.079 C 
ATOM      5  C   UNL     1     155.923 174.331 181.249  0.00  0.00    -0.048 C 
ATOM      6  C   UNL     1     156.380 173.310 182.007  0.00  0.00    -0.082 C 
ATOM      7  C   UNL     1     157.809 172.884 182.223  0.00  0.00    -0.032 C 
ATOM      8  C   UNL     1     158.234 171.711 181.321  0.00  0.00    -0.038 C 
ATOM      9  C   UNL     1     157.503 170.368 181.578  0.00  0.00    -0.020 C 
ATOM     10  C   UNL     1     157.580 169.825 183.021  0.00  0.00    +0.077 C 
ATOM     11  C   UNL     1     157.243 168.353 183.033  0.00  0.00    -0.059 C 
ATOM     12  C   UNL     1     158.056 167.387 183.499  0.00  0.00    -0.082 C 
ATOM     13  C   UNL     1     157.725 165.911 183.540  0.00  0.00    +0.003 C 
ATOM     14  C   UNL     1     156.534 165.481 184.441  0.00  0.00    +0.112 C 
ATOM     15  O   UNL     1     155.352 165.902 183.716  0.00  0.00    -0.458 OA
ATOM     16  C   UNL     1     154.344 165.005 183.574  0.00  0.00    +0.332 C 
ATOM     17  O   UNL     1     154.182 163.979 184.212  0.00  0.00    -0.246 OA
ATOM     18  C   UNL     1     153.457 165.407 182.463  0.00  0.00    +0.022 C 
ATOM     19  C   UNL     1     153.986 165.931 181.348  0.00  0.00    -0.055 C 
ATOM     20  C   UNL     1     153.276 166.241 180.134  0.00  0.00    -0.065 C 
ATOM     21  C   UNL     1     152.181 167.007 180.043  0.00  0.00    -0.081 C 
ATOM     22  C   UNL     1     151.590 167.392 178.705  0.00  0.00    +0.003 C 
ATOM     23  C   UNL     1     151.479 168.920 178.464  0.00  0.00    +0.111 C 
ATOM     24  C   UNL     1     152.725 169.779 178.850  0.00  0.00    +0.020 C 
ATOM     25  C   UNL     1     152.441 171.273 178.530  0.00  0.00    +0.064 C 
ATOM     26  H   UNL     1     152.918 173.311 178.851  0.00  0.00    +0.032 HD
ATOM     27  H   UNL     1     154.305 171.677 180.982  0.00  0.00    +0.027 HD
ATOM     28  H   UNL     1     152.567 171.701 181.027  0.00  0.00    +0.027 HD
ATOM     29  H   UNL     1     152.395 174.024 181.286  0.00  0.00    +0.029 HD
ATOM     30  H   UNL     1     153.442 173.358 182.522  0.00  0.00    +0.029 HD
ATOM     31  H   UNL     1     154.287 175.502 181.875  0.00  0.00    +0.064 HD
ATOM     32  H   UNL     1     155.672 172.706 182.568  0.00  0.00    +0.057 HD
ATOM     33  H   UNL     1     157.943 172.631 183.280  0.00  0.00    +0.031 HD
ATOM     34  H   UNL     1     158.484 173.729 182.066  0.00  0.00    +0.031 HD
ATOM     35  H   UNL     1     158.008 171.990 180.281  0.00  0.00    +0.030 HD
ATOM     36  H   UNL     1     157.922 169.627 180.885  0.00  0.00    +0.030 HD
ATOM     37  H   UNL     1     156.449 170.488 181.296  0.00  0.00    +0.030 HD
ATOM     38  H   UNL     1     158.582 169.996 183.430  0.00  0.00    +0.064 HD
ATOM     39  H   UNL     1     156.258 168.096 182.647  0.00  0.00    +0.059 HD
ATOM     40  H   UNL     1     159.032 167.660 183.895  0.00  0.00    +0.057 HD
ATOM     41  H   UNL     1     158.637 165.378 183.834  0.00  0.00    +0.034 HD
ATOM     42  H   UNL     1     157.528 165.590 182.508  0.00  0.00    +0.034 HD
ATOM     43  H   UNL     1     156.544 164.383 184.494  0.00  0.00    +0.074 HD
ATOM     44  H   UNL     1     152.410 165.145 182.557  0.00  0.00    +0.069 HD
ATOM     45  H   UNL     1     155.063 166.075 181.276  0.00  0.00    +0.062 HD
ATOM     46  H   UNL     1     153.757 165.880 179.224  0.00  0.00    +0.061 HD
ATOM     47  H   UNL     1     151.695 167.411 180.930  0.00  0.00    +0.057 HD
ATOM     48  H   UNL     1     150.591 166.940 178.650  0.00  0.00    +0.034 HD
ATOM     49  H   UNL     1     152.174 166.951 177.890  0.00  0.00    +0.034 HD
ATOM     50  H   UNL     1     151.299 169.067 177.390  0.00  0.00    +0.074 HD
ATOM     51  H   UNL     1     152.871 169.686 179.932  0.00  0.00    +0.036 HD
ATOM     52  H   UNL     1     151.443 171.522 178.910  0.00  0.00    +0.060 HD
ENDROOT
BRANCH   1  53
ATOM     53  C   UNL     1     154.783 172.368 178.502  0.00  0.00    -0.060 C 
ATOM     54  H   UNL     1     154.724 172.448 177.416  0.00  0.00    +0.023 HD
ATOM     55  H   UNL     1     155.339 171.451 178.713  0.00  0.00    +0.023 HD
ATOM     56  H   UNL     1     155.379 173.215 178.845  0.00  0.00    +0.023 HD
ENDBRANCH   1  53
BRANCH   5  57
ATOM     57  C   UNL     1     156.835 175.253 180.472  0.00  0.00    -0.041 C 
ATOM     58  H   UNL     1     156.346 176.163 180.117  0.00  0.00    +0.028 HD
ATOM     59  H   UNL     1     157.677 175.578 181.092  0.00  0.00    +0.028 HD
ATOM     60  H   UNL     1     157.230 174.736 179.590  0.00  0.00    +0.028 HD
ENDBRANCH   5  57
BRANCH  24  61
ATOM     61  C   UNL     1     153.985 169.260 178.143  0.00  0.00    -0.057 C 
ATOM     62  H   UNL     1     153.906 169.374 177.059  0.00  0.00    +0.023 HD
ATOM     63  H   UNL     1     154.178 168.205 178.367  0.00  0.00    +0.023 HD
ATOM     64  H   UNL     1     154.882 169.815 178.426  0.00  0.00    +0.023 HD
ENDBRANCH  24  61
BRANCH   8  65
ATOM     65  C   UNL     1     159.754 171.523 181.392  0.00  0.00    -0.062 C 
ATOM     66  H   UNL     1     160.070 170.601 180.896  0.00  0.00    +0.023 HD
ATOM     67  H   UNL     1     160.275 172.363 180.917  0.00  0.00    +0.023 HD
ATOM     68  H   UNL     1     160.089 171.473 182.434  0.00  0.00    +0.023 HD
ENDBRANCH   8  65
BRANCH  14  69
ATOM     69  C   UNL     1     156.572 166.069 185.877  0.00  0.00    +0.020 C 
ATOM     70  H   UNL     1     157.507 166.626 185.986  0.00  0.00    +0.036 HD
BRANCH  69  71
ATOM     71  C   UNL     1     155.468 167.113 186.114  0.00  0.00    -0.057 C 
ATOM     72  H   UNL     1     155.013 166.993 187.103  0.00  0.00    +0.023 HD
ATOM     73  H   UNL     1     155.867 168.131 186.073  0.00  0.00    +0.023 HD
ATOM     74  H   UNL     1     154.671 167.022 185.370  0.00  0.00    +0.023 HD
ENDBRANCH  69  71
BRANCH  69  75
ATOM     75  C   UNL     1     156.495 164.989 186.997  0.00  0.00    +0.064 C 
ATOM     76  H   UNL     1     156.488 164.010 186.503  0.00  0.00    +0.060 HD
BRANCH  75  77
ATOM     77  C   UNL     1     155.212 165.101 187.873  0.00  0.00    -0.017 C 
ATOM     78  H   UNL     1     154.580 165.877 187.423  0.00  0.00    +0.032 HD
BRANCH  77  79
ATOM     79  C   UNL     1     154.390 163.806 187.800  0.00  0.00    -0.060 C 
ATOM     80  H   UNL     1     154.929 162.947 188.208  0.00  0.00    +0.023 HD
ATOM     81  H   UNL     1     154.137 163.573 186.760  0.00  0.00    +0.023 HD
ATOM     82  H   UNL     1     153.449 163.911 188.350  0.00  0.00    +0.023 HD
ENDBRANCH  77  79
BRANCH  77  83
ATOM     83  C   UNL     1     155.427 165.532 189.350  0.00  0.00    -0.045 C 
ATOM     84  H   UNL     1     155.700 166.594 189.342  0.00  0.00    +0.027 HD
ATOM     85  H   UNL     1     156.296 165.006 189.759  0.00  0.00    +0.027 HD
BRANCH  83  86
ATOM     86  C   UNL     1     154.243 165.338 190.312  0.00  0.00    -0.015 C 
ATOM     87  H   UNL     1     153.732 164.402 190.059  0.00  0.00    +0.030 HD
ATOM     88  H   UNL     1     154.621 165.263 191.335  0.00  0.00    +0.030 HD
BRANCH  86  89
ATOM     89  C   UNL     1     153.228 166.503 190.262  0.00  0.00    +0.109 C 
ATOM     90  H   UNL     1     153.740 167.386 189.859  0.00  0.00    +0.074 HD
BRANCH  89  91
ATOM     91  C   UNL     1     152.684 166.866 191.677  0.00  0.00    +0.031 C 
ATOM     92  H   UNL     1     153.362 167.636 192.072  0.00  0.00    +0.037 HD
BRANCH  91  93
ATOM     93  C   UNL     1     152.719 165.663 192.631  0.00  0.00    -0.056 C 
ATOM     94  H   UNL     1     151.808 165.600 193.235  0.00  0.00    +0.023 HD
ATOM     95  H   UNL     1     153.575 165.718 193.312  0.00  0.00    +0.023 HD
ATOM     96  H   UNL     1     152.782 164.718 192.086  0.00  0.00    +0.023 HD
ENDBRANCH  91  93
BRANCH  91  97
ATOM     97  C   UNL     1     151.243 167.470 191.597  0.00  0.00    +0.115 C 
ATOM     98  H   UNL     1     151.083 167.812 190.565  0.00  0.00    +0.074 HD
BRANCH  97  99
ATOM     99  C   UNL     1     150.112 166.455 191.952  0.00  0.00    +0.013 C 
ATOM    100  H   UNL     1     150.534 165.446 191.883  0.00  0.00    +0.038 HD
BRANCH  99 101
ATOM    101  C   UNL     1     148.947 166.493 190.953  0.00  0.00    -0.056 C 
ATOM    102  H   UNL     1     147.996 166.302 191.465  0.00  0.00    +0.024 HD
ATOM    103  H   UNL     1     148.859 167.466 190.456  0.00  0.00    +0.024 HD
ATOM    104  H   UNL     1     149.070 165.720 190.187  0.00  0.00    +0.024 HD
ENDBRANCH  99 101
BRANCH  99 105
ATOM    105  C   UNL     1     149.559 166.674 193.346  0.00  0.00    -0.064 C 
ATOM    106  C   UNL     1     149.193 165.671 194.157  0.00  0.00    -0.005 C 
ATOM    107  H   UNL     1     149.490 167.710 193.666  0.00  0.00    +0.059 HD
ATOM    108  H   UNL     1     149.270 164.642 193.808  0.00  0.00    +0.078 HD
BRANCH 106 109
ATOM    109  N   UNL     1     148.706 165.811 195.449  0.00  0.00    -0.284 N 
ATOM    110  C   UNL     1     149.596 165.864 196.521  0.00  0.00    +0.206 C 
ATOM    111  O   UNL     1     150.820 165.812 196.461  0.00  0.00    -0.279 OA
ATOM    112  H   UNL     1     149.083 165.966 197.492  0.00  0.00    +0.126 HD
BRANCH 109 113
ATOM    113  C   UNL     1     147.279 165.914 195.712  0.00  0.00    +0.007 C 
ATOM    114  H   UNL     1     146.729 165.358 194.946  0.00  0.00    +0.043 HD
ATOM    115  H   UNL     1     147.023 165.495 196.691  0.00  0.00    +0.043 HD
ATOM    116  H   UNL     1     146.980 166.968 195.703  0.00  0.00    +0.043 HD
ENDBRANCH 109 113
ENDBRANCH 106 109
ENDBRANCH  99 105
ENDBRANCH  97  99
BRANCH  97 117
ATOM    117  O   UNL     1     151.184 168.597 192.511  0.00  0.00    -0.461 OA
BRANCH 117 118
ATOM    118  C   UNL     1     151.196 169.841 191.957  0.00  0.00    +0.304 C 
ATOM    119  O   UNL     1     152.042 170.272 191.187  0.00  0.00    -0.251 OA
BRANCH 118 120
ATOM    120  C   UNL     1     149.985 170.610 192.385  0.00  0.00    +0.033 C 
ATOM    121  H   UNL     1     150.262 171.372 193.120  0.00  0.00    +0.034 HD
ATOM    122  H   UNL     1     149.557 171.118 191.517  0.00  0.00    +0.034 HD
ATOM    123  H   UNL     1     149.243 169.924 192.798  0.00  0.00    +0.034 HD
ENDBRANCH 118 120
ENDBRANCH 117 118
ENDBRANCH  97 117
ENDBRANCH  91  97
ENDBRANCH  89  91
BRANCH  89 124
ATOM    124  O   UNL     1     152.112 166.116 189.434  0.00  0.00    -0.460 OA
BRANCH 124 125
ATOM    125  C   UNL     1     152.007 166.676 188.196  0.00  0.00    +0.324 C 
ATOM    126  O   UNL     1     152.597 167.696 187.848  0.00  0.00    -0.249 OA
BRANCH 125 127
ATOM    127  C   UNL     1     151.009 165.932 187.287  0.00  0.00    +0.105 C 
ATOM    128  H   UNL     1     151.594 165.492 186.468  0.00  0.00    +0.058 HD
BRANCH 127 129
ATOM    129  C   UNL     1     150.081 167.002 186.702  0.00  0.00    -0.039 C 
ATOM    130  H   UNL     1     149.156 166.559 186.323  0.00  0.00    +0.025 HD
ATOM    131  H   UNL     1     149.812 167.735 187.471  0.00  0.00    +0.025 HD
ATOM    132  H   UNL     1     150.558 167.561 185.891  0.00  0.00    +0.025 HD
ENDBRANCH 127 129
BRANCH 127 133
ATOM    133  N   UNL     1     150.289 164.831 188.000  0.00  0.00    -0.296 NA
BRANCH 133 134
ATOM    134  C   UNL     1     150.787 163.515 187.577  0.00  0.00    -0.012 C 
ATOM    135  H   UNL     1     149.968 162.813 187.395  0.00  0.00    +0.039 HD
ATOM    136  H   UNL     1     151.460 163.076 188.323  0.00  0.00    +0.039 HD
ATOM    137  H   UNL     1     151.332 163.600 186.628  0.00  0.00    +0.039 HD
ENDBRANCH 133 134
BRANCH 133 138
ATOM    138  C   UNL     1     148.841 164.883 187.781  0.00  0.00    -0.012 C 
ATOM    139  H   UNL     1     148.609 165.374 186.828  0.00  0.00    +0.039 HD
ATOM    140  H   UNL     1     148.413 163.877 187.706  0.00  0.00    +0.039 HD
ATOM    141  H   UNL     1     148.325 165.429 188.581  0.00  0.00    +0.039 HD
ENDBRANCH 133 138
ENDBRANCH 127 133
ENDBRANCH 125 127
ENDBRANCH 124 125
ENDBRANCH  89 124
ENDBRANCH  86  89
ENDBRANCH  83  86
ENDBRANCH  77  83
ENDBRANCH  75  77
BRANCH  75 142
ATOM    142  O   UNL     1     157.662 164.989 187.806  0.00  0.00    -0.391 OA
ATOM    143  H   UNL     1     157.621 164.215 188.394  0.00  0.00    +0.210 HD
ENDBRANCH  75 142
ENDBRANCH  69  75
ENDBRANCH  14  69
BRANCH  25 144
ATOM    144  O   UNL     1     152.353 171.439 177.108  0.00  0.00    -0.391 OA
ATOM    145  H   UNL     1     152.023 170.607 176.732  0.00  0.00    +0.210 HD
ENDBRANCH  25 144
BRANCH  23 146
ATOM    146  O   UNL     1     150.333 169.390 179.227  0.00  0.00    -0.460 OA
BRANCH 146 147
ATOM    147  C   UNL     1     149.286 169.860 178.480  0.00  0.00    +0.327 C 
ATOM    148  O   UNL     1     149.382 170.276 177.327  0.00  0.00    -0.249 OA
BRANCH 147 149
ATOM    149  C   UNL     1     147.980 169.827 179.289  0.00  0.00    +0.131 C 
ATOM    150  H   UNL     1     147.798 168.784 179.578  0.00  0.00    +0.060 HD
BRANCH 149 151
ATOM    151  C   UNL     1     146.831 170.229 178.348  0.00  0.00    +0.073 C 
ATOM    152  H   UNL     1     146.028 170.704 178.923  0.00  0.00    +0.058 HD
ATOM    153  H   UNL     1     147.167 170.931 177.576  0.00  0.00    +0.058 HD
BRANCH 151 154
ATOM    154  O   UNL     1     146.293 169.048 177.736  0.00  0.00    -0.381 OA
BRANCH 154 155
ATOM    155  C   UNL     1     145.979 168.055 178.704  0.00  0.00    +0.037 C 
ATOM    156  H   UNL     1     145.740 168.516 179.667  0.00  0.00    +0.052 HD
ATOM    157  H   UNL     1     146.854 167.412 178.833  0.00  0.00    +0.052 HD
ATOM    158  H   UNL     1     145.143 167.438 178.364  0.00  0.00    +0.052 HD
ENDBRANCH 154 155
ENDBRANCH 151 154
ENDBRANCH 149 151
BRANCH 149 159
ATOM    159  N   UNL     1     148.011 170.692 180.509  0.00  0.00    -0.294 NA
BRANCH 159 160
ATOM    160  C   UNL     1     148.284 172.087 180.171  0.00  0.00    -0.012 C 
ATOM    161  H   UNL     1     149.324 172.259 179.882  0.00  0.00    +0.039 HD
ATOM    162  H   UNL     1     148.044 172.730 181.020  0.00  0.00    +0.039 HD
ATOM    163  H   UNL     1     147.644 172.422 179.348  0.00  0.00    +0.039 HD
ENDBRANCH 159 160
BRANCH 159 164
ATOM    164  C   UNL     1     146.815 170.580 181.343  0.00  0.00    -0.012 C 
ATOM    165  H   UNL     1     146.311 171.542 181.488  0.00  0.00    +0.039 HD
ATOM    166  H   UNL     1     147.079 170.194 182.334  0.00  0.00    +0.039 HD
ATOM    167  H   UNL     1     146.099 169.870 180.919  0.00  0.00    +0.039 HD
ENDBRANCH 159 164
ENDBRANCH 149 159
ENDBRANCH 147 149
ENDBRANCH 146 147
ENDBRANCH  23 146
BRANCH   4 168
ATOM    168  O   UNL     1     154.171 175.213 179.832  0.00  0.00    -0.376 OA
BRANCH 168 169
ATOM    169  C   UNL     1     153.020 176.047 179.779  0.00  0.00    +0.037 C 
ATOM    170  H   UNL     1     152.952 176.469 178.773  0.00  0.00    +0.052 HD
ATOM    171  H   UNL     1     153.121 176.867 180.495  0.00  0.00    +0.052 HD
ATOM    172  H   UNL     1     152.109 175.476 179.980  0.00  0.00    +0.052 HD
ENDBRANCH 168 169
ENDBRANCH   4 168
BRANCH  10 173
ATOM    173  O   UNL     1     156.609 170.522 183.807  0.00  0.00    -0.376 OA
BRANCH 173 174
ATOM    174  C   UNL     1     156.979 170.655 185.176  0.00  0.00    +0.037 C 
ATOM    175  H   UNL     1     156.196 170.199 185.786  0.00  0.00    +0.052 HD
ATOM    176  H   UNL     1     157.916 170.129 185.374  0.00  0.00    +0.052 HD
ATOM    177  H   UNL     1     157.067 171.710 185.456  0.00  0.00    +0.052 HD
ENDBRANCH 173 174
ENDBRANCH  10 173
TORSDOF 45
ENDMDL
