MODEL 1
REMARK VINA RESULT:      -6.5      0.000      0.000
REMARK  Name = Bistramide A_conf1
REMARK  27 active torsions:
REMARK  status: ('A' for Active; 'I' for Inactive)
REMARK    1  A    between atoms: C_1  and  C_2
REMARK    2  A    between atoms: C_3  and  C_4
REMARK    3  A    between atoms: C_4  and  C_6
REMARK    4  A    between atoms: C_6  and  C_7
REMARK    5  A    between atoms: C_10  and  C_50
REMARK    6  A    between atoms: C_11  and  C_13
REMARK    7  A    between atoms: C_13  and  C_14
REMARK    8  A    between atoms: N_16  and  C_17
REMARK    9  A    between atoms: C_17  and  C_18
REMARK   10  A    between atoms: C_18  and  C_19
REMARK   11  A    between atoms: C_18  and  O_49
REMARK   12  A    between atoms: C_19  and  C_20
REMARK   13  A    between atoms: C_19  and  C_21
REMARK   14  A    between atoms: N_23  and  C_24
REMARK   15  A    between atoms: C_24  and  C_25
REMARK   16  A    between atoms: C_25  and  C_26
REMARK   17  A    between atoms: C_26  and  C_27
REMARK   18  A    between atoms: C_28  and  C_48
REMARK   19  A    between atoms: C_36  and  C_38
REMARK   20  A    between atoms: C_38  and  C_39
REMARK   21  A    between atoms: C_39  and  C_40
REMARK   22  A    between atoms: C_40  and  C_41
REMARK   23  A    between atoms: C_40  and  C_42
REMARK   24  A    between atoms: C_43  and  C_44
REMARK   25  A    between atoms: C_43  and  C_45
REMARK   26  A    between atoms: C_45  and  C_46
REMARK   27  A    between atoms: C_45  and  O_47
REMARK                            x       y       z     vdW  Elec       q    Type
REMARK                         _______ _______ _______ _____ _____    ______ ____
ROOT
ATOM      1  C   UNL     1     151.293 169.372 191.733  0.00  0.00    -0.035 C 
ATOM      2  H   UNL     1     152.386 169.326 191.830  0.00  0.00    +0.028 HD
ATOM      3  H   UNL     1     151.094 169.693 190.705  0.00  0.00    +0.028 HD
ENDROOT
BRANCH   1   4
ATOM      4  C   UNL     1     150.763 170.390 192.739  0.00  0.00    +0.012 C 
ATOM      5  H   UNL     1     150.242 169.908 193.573  0.00  0.00    +0.046 HD
ATOM      6  H   UNL     1     151.592 170.966 193.173  0.00  0.00    +0.046 HD
BRANCH   4   9
ATOM      7  C   UNL     1     148.466 171.019 192.107  0.00  0.00    +0.218 C 
ATOM      8  O   UNL     1     147.955 170.071 192.699  0.00  0.00    -0.275 OA
ATOM      9  N   UNL     1     149.810 171.304 192.152  0.00  0.00    -0.315 N 
ATOM     10  H   UNL     1     150.141 172.064 191.556  0.00  0.00    +0.149 HD
BRANCH   7  11
ATOM     11  C   UNL     1     147.636 171.957 191.236  0.00  0.00    +0.060 C 
ATOM     12  H   UNL     1     146.778 172.262 191.851  0.00  0.00    +0.042 HD
BRANCH  11  13
ATOM     13  C   UNL     1     148.442 173.207 190.889  0.00  0.00    -0.052 C 
ATOM     14  H   UNL     1     149.122 173.045 190.049  0.00  0.00    +0.024 HD
ATOM     15  H   UNL     1     147.770 174.032 190.629  0.00  0.00    +0.024 HD
ATOM     16  H   UNL     1     149.050 173.523 191.742  0.00  0.00    +0.024 HD
ENDBRANCH  11  13
BRANCH  11  17
ATOM     17  C   UNL     1     147.084 171.232 189.989  0.00  0.00    +0.081 C 
ATOM     18  H   UNL     1     147.201 171.896 189.129  0.00  0.00    +0.062 HD
BRANCH  17  19
ATOM     19  C   UNL     1     145.599 170.835 190.152  0.00  0.00    +0.038 C 
ATOM     20  H   UNL     1     145.108 171.463 190.902  0.00  0.00    +0.049 HD
ATOM     21  H   UNL     1     145.066 170.942 189.200  0.00  0.00    +0.049 HD
BRANCH  19  24
ATOM     22  C   UNL     1     144.389 168.640 190.024  0.00  0.00    +0.216 C 
ATOM     23  O   UNL     1     143.521 169.047 189.258  0.00  0.00    -0.276 OA
ATOM     24  N   UNL     1     145.358 169.459 190.566  0.00  0.00    -0.313 N 
ATOM     25  H   UNL     1     146.041 169.036 191.181  0.00  0.00    +0.149 HD
BRANCH  22  26
ATOM     26  C   UNL     1     144.564 167.183 190.399  0.00  0.00    +0.050 C 
ATOM     27  H   UNL     1     143.627 166.693 190.097  0.00  0.00    +0.038 HD
ATOM     28  H   UNL     1     145.388 166.762 189.812  0.00  0.00    +0.038 HD
BRANCH  26  33
ATOM     29  C   UNL     1     146.278 165.722 193.378  0.00  0.00    +0.066 C 
ATOM     30  C   UNL     1     145.086 165.263 194.228  0.00  0.00    -0.026 C 
ATOM     31  C   UNL     1     143.888 166.201 194.102  0.00  0.00    -0.046 C 
ATOM     32  C   UNL     1     143.543 166.482 192.633  0.00  0.00    -0.017 C 
ATOM     33  C   UNL     1     144.812 166.977 191.898  0.00  0.00    +0.070 C 
ATOM     34  O   UNL     1     145.870 166.016 192.032  0.00  0.00    -0.372 OA
ATOM     35  H   UNL     1     146.961 164.870 193.284  0.00  0.00    +0.060 HD
ATOM     36  H   UNL     1     145.365 165.151 195.281  0.00  0.00    +0.029 HD
ATOM     37  H   UNL     1     144.781 164.266 193.883  0.00  0.00    +0.029 HD
ATOM     38  H   UNL     1     144.117 167.150 194.604  0.00  0.00    +0.027 HD
ATOM     39  H   UNL     1     143.025 165.772 194.629  0.00  0.00    +0.027 HD
ATOM     40  H   UNL     1     142.788 167.281 192.613  0.00  0.00    +0.032 HD
ATOM     41  H   UNL     1     145.128 167.919 192.364  0.00  0.00    +0.060 HD
BRANCH  32  42
ATOM     42  C   UNL     1     142.911 165.239 191.982  0.00  0.00    -0.060 C 
ATOM     43  H   UNL     1     141.854 165.398 191.736  0.00  0.00    +0.023 HD
ATOM     44  H   UNL     1     142.972 164.376 192.652  0.00  0.00    +0.023 HD
ATOM     45  H   UNL     1     143.443 164.974 191.060  0.00  0.00    +0.023 HD
ENDBRANCH  32  42
BRANCH  29  46
ATOM     46  C   UNL     1     147.057 166.891 193.993  0.00  0.00    +0.036 C 
ATOM     47  H   UNL     1     146.391 167.729 194.228  0.00  0.00    +0.037 HD
ATOM     48  H   UNL     1     147.798 167.269 193.272  0.00  0.00    +0.037 HD
BRANCH  46  49
ATOM     49  C   UNL     1     147.806 166.460 195.240  0.00  0.00    +0.158 C 
ATOM     50  O   UNL     1     147.453 166.791 196.367  0.00  0.00    -0.293 OA
BRANCH  49  52
ATOM     51  C   UNL     1     149.804 165.277 196.061  0.00  0.00    -0.084 C 
ATOM     52  C   UNL     1     148.991 165.575 195.036  0.00  0.00    -0.023 C 
ATOM     53  H   UNL     1     149.595 165.680 197.053  0.00  0.00    +0.057 HD
ATOM     54  H   UNL     1     149.165 165.197 194.036  0.00  0.00    +0.065 HD
BRANCH  51  55
ATOM     55  C   UNL     1     151.011 164.403 195.955  0.00  0.00    -0.046 C 
ATOM     56  H   UNL     1     151.095 163.775 196.848  0.00  0.00    +0.027 HD
ATOM     57  H   UNL     1     151.937 164.977 195.851  0.00  0.00    +0.027 HD
ATOM     58  H   UNL     1     150.919 163.746 195.084  0.00  0.00    +0.027 HD
ENDBRANCH  51  55
ENDBRANCH  49  52
ENDBRANCH  46  49
ENDBRANCH  29  46
ENDBRANCH  26  33
ENDBRANCH  22  26
ENDBRANCH  19  24
ENDBRANCH  17  19
BRANCH  17  59
ATOM     59  O   UNL     1     147.885 170.071 189.739  0.00  0.00    -0.390 OA
ATOM     60  H   UNL     1     148.324 169.854 190.594  0.00  0.00    +0.210 HD
ENDBRANCH  17  59
ENDBRANCH  11  17
ENDBRANCH   7  11
ENDBRANCH   4   9
ENDBRANCH   1   4
BRANCH   1  61
ATOM     61  C   UNL     1     150.706 167.972 191.966  0.00  0.00    -0.025 C 
ATOM     62  H   UNL     1     150.709 167.793 193.050  0.00  0.00    +0.029 HD
ATOM     63  H   UNL     1     149.663 167.960 191.636  0.00  0.00    +0.029 HD
BRANCH  61  64
ATOM     64  C   UNL     1     151.519 166.857 191.278  0.00  0.00    +0.065 C 
ATOM     65  C   UNL     1     152.939 166.732 191.880  0.00  0.00    -0.017 C 
ATOM     66  C   UNL     1     153.915 166.092 190.879  0.00  0.00    -0.043 C 
ATOM     67  C   UNL     1     153.158 165.259 189.850  0.00  0.00    +0.002 C 
ATOM     68  C   UNL     1     152.137 166.126 189.072  0.00  0.00    +0.171 C 
ATOM     69  O   UNL     1     151.633 167.192 189.890  0.00  0.00    -0.345 OA
ATOM     70  C   UNL     1     152.829 166.785 187.857  0.00  0.00    +0.002 C 
ATOM     71  C   UNL     1     152.789 165.889 186.637  0.00  0.00    -0.046 C 
ATOM     72  C   UNL     1     151.354 165.505 186.287  0.00  0.00    -0.026 C 
ATOM     73  C   UNL     1     150.384 165.558 187.475  0.00  0.00    +0.062 C 
ATOM     74  O   UNL     1     151.077 165.243 188.686  0.00  0.00    -0.345 OA
ATOM     75  H   UNL     1     150.983 165.906 191.368  0.00  0.00    +0.060 HD
ATOM     76  H   UNL     1     153.322 167.735 192.114  0.00  0.00    +0.032 HD
ATOM     77  H   UNL     1     154.469 166.888 190.362  0.00  0.00    +0.027 HD
ATOM     78  H   UNL     1     154.664 165.474 191.384  0.00  0.00    +0.027 HD
ATOM     79  H   UNL     1     152.640 164.440 190.365  0.00  0.00    +0.032 HD
ATOM     80  H   UNL     1     153.855 164.768 189.164  0.00  0.00    +0.032 HD
ATOM     81  H   UNL     1     153.864 167.055 188.096  0.00  0.00    +0.032 HD
ATOM     82  H   UNL     1     152.350 167.739 187.608  0.00  0.00    +0.032 HD
ATOM     83  H   UNL     1     153.369 164.980 186.828  0.00  0.00    +0.027 HD
ATOM     84  H   UNL     1     153.259 166.385 185.778  0.00  0.00    +0.027 HD
ATOM     85  H   UNL     1     151.377 164.476 185.900  0.00  0.00    +0.029 HD
ATOM     86  H   UNL     1     151.000 166.111 185.447  0.00  0.00    +0.029 HD
ATOM     87  H   UNL     1     149.667 164.742 187.328  0.00  0.00    +0.060 HD
BRANCH  65  88
ATOM     88  C   UNL     1     152.915 165.936 193.191  0.00  0.00    -0.060 C 
ATOM     89  H   UNL     1     152.892 166.603 194.060  0.00  0.00    +0.023 HD
ATOM     90  H   UNL     1     153.789 165.287 193.288  0.00  0.00    +0.023 HD
ATOM     91  H   UNL     1     152.026 165.296 193.239  0.00  0.00    +0.023 HD
ENDBRANCH  65  88
BRANCH  73  92
ATOM     92  C   UNL     1     149.546 166.842 187.613  0.00  0.00    -0.026 C 
ATOM     93  H   UNL     1     148.520 166.542 187.865  0.00  0.00    +0.029 HD
ATOM     94  H   UNL     1     149.891 167.439 188.458  0.00  0.00    +0.029 HD
BRANCH  92  95
ATOM     95  C   UNL     1     149.514 167.728 186.359  0.00  0.00    -0.045 C 
ATOM     96  H   UNL     1     149.631 168.778 186.648  0.00  0.00    +0.027 HD
ATOM     97  H   UNL     1     150.374 167.476 185.737  0.00  0.00    +0.027 HD
BRANCH  95  98
ATOM     98  C   UNL     1     148.195 167.593 185.566  0.00  0.00    -0.025 C 
ATOM     99  H   UNL     1     147.425 167.310 186.298  0.00  0.00    +0.034 HD
BRANCH  98 100
ATOM    100  C   UNL     1     148.221 166.489 184.510  0.00  0.00    -0.059 C 
ATOM    101  H   UNL     1     148.215 165.500 184.978  0.00  0.00    +0.024 HD
ATOM    102  H   UNL     1     149.107 166.556 183.877  0.00  0.00    +0.024 HD
ATOM    103  H   UNL     1     147.344 166.544 183.858  0.00  0.00    +0.024 HD
ENDBRANCH  98 100
BRANCH  98 104
ATOM    104  C   UNL     1     147.699 168.898 184.970  0.00  0.00    -0.080 C 
ATOM    105  C   UNL     1     146.752 169.761 185.401  0.00  0.00    -0.048 C 
ATOM    106  H   UNL     1     148.229 169.142 184.048  0.00  0.00    +0.058 HD
BRANCH 105 107
ATOM    107  C   UNL     1     146.036 169.611 186.716  0.00  0.00    -0.041 C 
ATOM    108  H   UNL     1     146.712 169.646 187.573  0.00  0.00    +0.028 HD
ATOM    109  H   UNL     1     145.322 170.428 186.864  0.00  0.00    +0.028 HD
ATOM    110  H   UNL     1     145.483 168.663 186.737  0.00  0.00    +0.028 HD
ENDBRANCH 105 107
BRANCH 105 111
ATOM    111  C   UNL     1     146.362 171.013 184.617  0.00  0.00    +0.073 C 
ATOM    112  H   UNL     1     145.270 171.080 184.574  0.00  0.00    +0.064 HD
BRANCH 111 113
ATOM    113  C   UNL     1     146.921 171.028 183.194  0.00  0.00    -0.035 C 
ATOM    114  H   UNL     1     146.107 171.012 182.461  0.00  0.00    +0.026 HD
ATOM    115  H   UNL     1     147.501 171.939 183.005  0.00  0.00    +0.026 HD
ATOM    116  H   UNL     1     147.565 170.162 183.008  0.00  0.00    +0.026 HD
ENDBRANCH 111 113
BRANCH 111 117
ATOM    117  O   UNL     1     146.821 172.199 185.269  0.00  0.00    -0.388 OA
ATOM    118  H   UNL     1     147.491 172.600 184.689  0.00  0.00    +0.210 HD
ENDBRANCH 111 117
ENDBRANCH 105 111
ENDBRANCH  98 104
ENDBRANCH  95  98
ENDBRANCH  92  95
ENDBRANCH  73  92
ENDBRANCH  61  64
ENDBRANCH   1  61
TORSDOF 27
ENDMDL
MODEL 2
REMARK VINA RESULT:      -6.4      2.103      8.695
REMARK  Name = Bistramide A_conf1
REMARK  27 active torsions:
REMARK  status: ('A' for Active; 'I' for Inactive)
REMARK    1  A    between atoms: C_1  and  C_2
REMARK    2  A    between atoms: C_3  and  C_4
REMARK    3  A    between atoms: C_4  and  C_6
REMARK    4  A    between atoms: C_6  and  C_7
REMARK    5  A    between atoms: C_10  and  C_50
REMARK    6  A    between atoms: C_11  and  C_13
REMARK    7  A    between atoms: C_13  and  C_14
REMARK    8  A    between atoms: N_16  and  C_17
REMARK    9  A    between atoms: C_17  and  C_18
REMARK   10  A    between atoms: C_18  and  C_19
REMARK   11  A    between atoms: C_18  and  O_49
REMARK   12  A    between atoms: C_19  and  C_20
REMARK   13  A    between atoms: C_19  and  C_21
REMARK   14  A    between atoms: N_23  and  C_24
REMARK   15  A    between atoms: C_24  and  C_25
REMARK   16  A    between atoms: C_25  and  C_26
REMARK   17  A    between atoms: C_26  and  C_27
REMARK   18  A    between atoms: C_28  and  C_48
REMARK   19  A    between atoms: C_36  and  C_38
REMARK   20  A    between atoms: C_38  and  C_39
REMARK   21  A    between atoms: C_39  and  C_40
REMARK   22  A    between atoms: C_40  and  C_41
REMARK   23  A    between atoms: C_40  and  C_42
REMARK   24  A    between atoms: C_43  and  C_44
REMARK   25  A    between atoms: C_43  and  C_45
REMARK   26  A    between atoms: C_45  and  C_46
REMARK   27  A    between atoms: C_45  and  O_47
REMARK                            x       y       z     vdW  Elec       q    Type
REMARK                         _______ _______ _______ _____ _____    ______ ____
ROOT
ATOM      1  C   UNL     1     146.467 170.918 189.771  0.00  0.00    -0.035 C 
ATOM      2  H   UNL     1     147.100 171.796 189.580  0.00  0.00    +0.028 HD
ATOM      3  H   UNL     1     147.058 170.254 190.411  0.00  0.00    +0.028 HD
ENDROOT
BRANCH   1   4
ATOM      4  C   UNL     1     146.151 170.254 188.434  0.00  0.00    +0.012 C 
ATOM      5  H   UNL     1     145.152 169.804 188.427  0.00  0.00    +0.046 HD
ATOM      6  H   UNL     1     146.170 170.996 187.623  0.00  0.00    +0.046 HD
BRANCH   4   9
ATOM      7  C   UNL     1     146.628 167.925 187.786  0.00  0.00    +0.218 C 
ATOM      8  O   UNL     1     145.449 167.656 187.570  0.00  0.00    -0.275 OA
ATOM      9  N   UNL     1     147.069 169.184 188.116  0.00  0.00    -0.315 N 
ATOM     10  H   UNL     1     148.057 169.280 188.356  0.00  0.00    +0.149 HD
BRANCH   7  11
ATOM     11  C   UNL     1     147.714 166.855 187.729  0.00  0.00    +0.060 C 
ATOM     12  H   UNL     1     148.483 167.164 188.451  0.00  0.00    +0.042 HD
BRANCH  11  13
ATOM     13  C   UNL     1     147.152 165.507 188.178  0.00  0.00    -0.052 C 
ATOM     14  H   UNL     1     146.062 165.511 188.243  0.00  0.00    +0.024 HD
ATOM     15  H   UNL     1     147.449 164.720 187.477  0.00  0.00    +0.024 HD
ATOM     16  H   UNL     1     147.535 165.240 189.168  0.00  0.00    +0.024 HD
ENDBRANCH  11  13
BRANCH  11  17
ATOM     17  C   UNL     1     148.378 166.795 186.336  0.00  0.00    +0.081 C 
ATOM     18  H   UNL     1     148.523 165.744 186.071  0.00  0.00    +0.062 HD
BRANCH  17  19
ATOM     19  C   UNL     1     149.733 167.539 186.301  0.00  0.00    +0.038 C 
ATOM     20  H   UNL     1     150.299 167.277 185.402  0.00  0.00    +0.049 HD
ATOM     21  H   UNL     1     149.574 168.624 186.313  0.00  0.00    +0.049 HD
BRANCH  19  24
ATOM     22  C   UNL     1     151.820 166.596 187.327  0.00  0.00    +0.216 C 
ATOM     23  O   UNL     1     152.168 165.996 186.315  0.00  0.00    -0.276 OA
ATOM     24  N   UNL     1     150.624 167.276 187.423  0.00  0.00    -0.313 N 
ATOM     25  H   UNL     1     150.422 167.752 188.293  0.00  0.00    +0.149 HD
BRANCH  22  26
ATOM     26  C   UNL     1     152.690 166.745 188.558  0.00  0.00    +0.050 C 
ATOM     27  H   UNL     1     153.352 165.867 188.550  0.00  0.00    +0.038 HD
ATOM     28  H   UNL     1     153.300 167.649 188.455  0.00  0.00    +0.038 HD
BRANCH  26  33
ATOM     29  C   UNL     1     151.146 168.390 191.533  0.00  0.00    +0.066 C 
ATOM     30  C   UNL     1     151.601 167.466 192.670  0.00  0.00    -0.026 C 
ATOM     31  C   UNL     1     151.668 166.003 192.238  0.00  0.00    -0.046 C 
ATOM     32  C   UNL     1     152.461 165.836 190.934  0.00  0.00    -0.017 C 
ATOM     33  C   UNL     1     151.880 166.786 189.860  0.00  0.00    +0.070 C 
ATOM     34  O   UNL     1     151.896 168.141 190.333  0.00  0.00    -0.372 OA
ATOM     35  H   UNL     1     151.408 169.416 191.820  0.00  0.00    +0.060 HD
ATOM     36  H   UNL     1     150.956 167.567 193.551  0.00  0.00    +0.029 HD
ATOM     37  H   UNL     1     152.605 167.778 192.988  0.00  0.00    +0.029 HD
ATOM     38  H   UNL     1     150.649 165.623 192.088  0.00  0.00    +0.027 HD
ATOM     39  H   UNL     1     152.109 165.399 193.042  0.00  0.00    +0.027 HD
ATOM     40  H   UNL     1     152.333 164.798 190.596  0.00  0.00    +0.032 HD
ATOM     41  H   UNL     1     150.841 166.489 189.670  0.00  0.00    +0.060 HD
BRANCH  32  42
ATOM     42  C   UNL     1     153.963 166.053 191.189  0.00  0.00    -0.060 C 
ATOM     43  H   UNL     1     154.580 165.633 190.385  0.00  0.00    +0.023 HD
ATOM     44  H   UNL     1     154.271 165.582 192.128  0.00  0.00    +0.023 HD
ATOM     45  H   UNL     1     154.189 167.123 191.272  0.00  0.00    +0.023 HD
ENDBRANCH  32  42
BRANCH  29  46
ATOM     46  C   UNL     1     149.636 168.341 191.268  0.00  0.00    +0.036 C 
ATOM     47  H   UNL     1     149.242 167.330 191.420  0.00  0.00    +0.037 HD
ATOM     48  H   UNL     1     149.431 168.606 190.220  0.00  0.00    +0.037 HD
BRANCH  46  49
ATOM     49  C   UNL     1     148.889 169.325 192.148  0.00  0.00    +0.158 C 
ATOM     50  O   UNL     1     147.961 168.985 192.875  0.00  0.00    -0.293 OA
BRANCH  49  52
ATOM     51  C   UNL     1     148.657 171.707 192.728  0.00  0.00    -0.084 C 
ATOM     52  C   UNL     1     149.358 170.743 192.115  0.00  0.00    -0.023 C 
ATOM     53  H   UNL     1     147.739 171.454 193.262  0.00  0.00    +0.057 HD
ATOM     54  H   UNL     1     150.272 170.952 191.573  0.00  0.00    +0.065 HD
BRANCH  51  55
ATOM     55  C   UNL     1     149.045 173.150 192.750  0.00  0.00    -0.046 C 
ATOM     56  H   UNL     1     148.212 173.764 192.395  0.00  0.00    +0.027 HD
ATOM     57  H   UNL     1     149.917 173.359 192.122  0.00  0.00    +0.027 HD
ATOM     58  H   UNL     1     149.283 173.455 193.774  0.00  0.00    +0.027 HD
ENDBRANCH  51  55
ENDBRANCH  49  52
ENDBRANCH  46  49
ENDBRANCH  29  46
ENDBRANCH  26  33
ENDBRANCH  22  26
ENDBRANCH  19  24
ENDBRANCH  17  19
BRANCH  17  59
ATOM     59  O   UNL     1     147.478 167.354 185.372  0.00  0.00    -0.390 OA
ATOM     60  H   UNL     1     147.529 168.331 185.487  0.00  0.00    +0.210 HD
ENDBRANCH  17  59
ENDBRANCH  11  17
ENDBRANCH   7  11
ENDBRANCH   4   9
ENDBRANCH   1   4
BRANCH   1  61
ATOM     61  C   UNL     1     145.197 171.362 190.509  0.00  0.00    -0.025 C 
ATOM     62  H   UNL     1     145.426 171.358 191.584  0.00  0.00    +0.029 HD
ATOM     63  H   UNL     1     144.960 172.393 190.230  0.00  0.00    +0.029 HD
BRANCH  61  64
ATOM     64  C   UNL     1     143.996 170.429 190.256  0.00  0.00    +0.065 C 
ATOM     65  C   UNL     1     142.653 171.191 190.345  0.00  0.00    -0.017 C 
ATOM     66  C   UNL     1     141.493 170.239 190.683  0.00  0.00    -0.043 C 
ATOM     67  C   UNL     1     141.838 168.810 190.280  0.00  0.00    +0.002 C 
ATOM     68  C   UNL     1     143.116 168.320 191.004  0.00  0.00    +0.171 C 
ATOM     69  O   UNL     1     144.016 169.408 191.260  0.00  0.00    -0.345 OA
ATOM     70  C   UNL     1     142.742 167.718 192.378  0.00  0.00    +0.002 C 
ATOM     71  C   UNL     1     142.405 166.245 192.271  0.00  0.00    -0.046 C 
ATOM     72  C   UNL     1     143.558 165.465 191.645  0.00  0.00    -0.026 C 
ATOM     73  C   UNL     1     144.476 166.311 190.752  0.00  0.00    +0.062 C 
ATOM     74  O   UNL     1     143.724 167.358 190.132  0.00  0.00    -0.345 OA
ATOM     75  H   UNL     1     144.101 169.958 189.273  0.00  0.00    +0.060 HD
ATOM     76  H   UNL     1     142.711 171.933 191.154  0.00  0.00    +0.032 HD
ATOM     77  H   UNL     1     141.305 170.274 191.765  0.00  0.00    +0.027 HD
ATOM     78  H   UNL     1     140.561 170.551 190.199  0.00  0.00    +0.027 HD
ATOM     79  H   UNL     1     141.983 168.770 189.193  0.00  0.00    +0.032 HD
ATOM     80  H   UNL     1     140.996 168.139 190.480  0.00  0.00    +0.032 HD
ATOM     81  H   UNL     1     141.907 168.266 192.830  0.00  0.00    +0.032 HD
ATOM     82  H   UNL     1     143.565 167.839 193.092  0.00  0.00    +0.032 HD
ATOM     83  H   UNL     1     141.507 166.116 191.656  0.00  0.00    +0.027 HD
ATOM     84  H   UNL     1     142.170 165.830 193.259  0.00  0.00    +0.027 HD
ATOM     85  H   UNL     1     143.116 164.664 191.034  0.00  0.00    +0.029 HD
ATOM     86  H   UNL     1     144.120 164.943 192.426  0.00  0.00    +0.029 HD
ATOM     87  H   UNL     1     144.798 165.659 189.932  0.00  0.00    +0.060 HD
BRANCH  65  88
ATOM     88  C   UNL     1     142.361 171.953 189.047  0.00  0.00    -0.060 C 
ATOM     89  H   UNL     1     141.523 172.647 189.174  0.00  0.00    +0.023 HD
ATOM     90  H   UNL     1     142.117 171.277 188.224  0.00  0.00    +0.023 HD
ATOM     91  H   UNL     1     143.235 172.541 188.739  0.00  0.00    +0.023 HD
ENDBRANCH  65  88
BRANCH  73  92
ATOM     92  C   UNL     1     145.764 166.841 191.407  0.00  0.00    -0.026 C 
ATOM     93  H   UNL     1     146.263 167.489 190.676  0.00  0.00    +0.029 HD
ATOM     94  H   UNL     1     145.529 167.484 192.256  0.00  0.00    +0.029 HD
BRANCH  92  95
ATOM     95  C   UNL     1     146.748 165.754 191.866  0.00  0.00    -0.045 C 
ATOM     96  H   UNL     1     146.467 164.793 191.421  0.00  0.00    +0.027 HD
ATOM     97  H   UNL     1     147.738 166.002 191.480  0.00  0.00    +0.027 HD
BRANCH  95  98
ATOM     98  C   UNL     1     146.775 165.583 193.400  0.00  0.00    -0.025 C 
ATOM     99  H   UNL     1     146.436 164.557 193.601  0.00  0.00    +0.034 HD
BRANCH  98 100
ATOM    100  C   UNL     1     145.815 166.513 194.143  0.00  0.00    -0.059 C 
ATOM    101  H   UNL     1     146.096 167.561 193.999  0.00  0.00    +0.024 HD
ATOM    102  H   UNL     1     145.807 166.311 195.215  0.00  0.00    +0.024 HD
ATOM    103  H   UNL     1     144.791 166.399 193.776  0.00  0.00    +0.024 HD
ENDBRANCH  98 100
BRANCH  98 104
ATOM    104  C   UNL     1     148.167 165.654 194.003  0.00  0.00    -0.080 C 
ATOM    105  C   UNL     1     148.566 165.797 195.287  0.00  0.00    -0.048 C 
ATOM    106  H   UNL     1     148.938 165.560 193.237  0.00  0.00    +0.058 HD
BRANCH 105 107
ATOM    107  C   UNL     1     147.612 165.810 196.451  0.00  0.00    -0.041 C 
ATOM    108  H   UNL     1     146.804 165.084 196.344  0.00  0.00    +0.028 HD
ATOM    109  H   UNL     1     148.130 165.548 197.380  0.00  0.00    +0.028 HD
ATOM    110  H   UNL     1     147.178 166.811 196.570  0.00  0.00    +0.028 HD
ENDBRANCH 105 107
BRANCH 105 111
ATOM    111  C   UNL     1     150.037 165.895 195.685  0.00  0.00    +0.073 C 
ATOM    112  H   UNL     1     150.514 166.684 195.094  0.00  0.00    +0.064 HD
BRANCH 111 113
ATOM    113  C   UNL     1     150.802 164.586 195.482  0.00  0.00    -0.035 C 
ATOM    114  H   UNL     1     150.130 163.801 195.117  0.00  0.00    +0.026 HD
ATOM    115  H   UNL     1     151.593 164.701 194.732  0.00  0.00    +0.026 HD
ATOM    116  H   UNL     1     151.257 164.239 196.416  0.00  0.00    +0.026 HD
ENDBRANCH 111 113
BRANCH 111 117
ATOM    117  O   UNL     1     150.182 166.265 197.057  0.00  0.00    -0.388 OA
ATOM    118  H   UNL     1     150.919 165.741 197.417  0.00  0.00    +0.210 HD
ENDBRANCH 111 117
ENDBRANCH 105 111
ENDBRANCH  98 104
ENDBRANCH  95  98
ENDBRANCH  92  95
ENDBRANCH  73  92
ENDBRANCH  61  64
ENDBRANCH   1  61
TORSDOF 27
ENDMDL
MODEL 3
REMARK VINA RESULT:      -6.3      2.295      5.188
REMARK  Name = Bistramide A_conf1
REMARK  27 active torsions:
REMARK  status: ('A' for Active; 'I' for Inactive)
REMARK    1  A    between atoms: C_1  and  C_2
REMARK    2  A    between atoms: C_3  and  C_4
REMARK    3  A    between atoms: C_4  and  C_6
REMARK    4  A    between atoms: C_6  and  C_7
REMARK    5  A    between atoms: C_10  and  C_50
REMARK    6  A    between atoms: C_11  and  C_13
REMARK    7  A    between atoms: C_13  and  C_14
REMARK    8  A    between atoms: N_16  and  C_17
REMARK    9  A    between atoms: C_17  and  C_18
REMARK   10  A    between atoms: C_18  and  C_19
REMARK   11  A    between atoms: C_18  and  O_49
REMARK   12  A    between atoms: C_19  and  C_20
REMARK   13  A    between atoms: C_19  and  C_21
REMARK   14  A    between atoms: N_23  and  C_24
REMARK   15  A    between atoms: C_24  and  C_25
REMARK   16  A    between atoms: C_25  and  C_26
REMARK   17  A    between atoms: C_26  and  C_27
REMARK   18  A    between atoms: C_28  and  C_48
REMARK   19  A    between atoms: C_36  and  C_38
REMARK   20  A    between atoms: C_38  and  C_39
REMARK   21  A    between atoms: C_39  and  C_40
REMARK   22  A    between atoms: C_40  and  C_41
REMARK   23  A    between atoms: C_40  and  C_42
REMARK   24  A    between atoms: C_43  and  C_44
REMARK   25  A    between atoms: C_43  and  C_45
REMARK   26  A    between atoms: C_45  and  C_46
REMARK   27  A    between atoms: C_45  and  O_47
REMARK                            x       y       z     vdW  Elec       q    Type
REMARK                         _______ _______ _______ _____ _____    ______ ____
ROOT
ATOM      1  C   UNL     1     148.153 165.333 193.462  0.00  0.00    -0.035 C 
ATOM      2  H   UNL     1     147.706 164.730 192.660  0.00  0.00    +0.028 HD
ATOM      3  H   UNL     1     148.773 164.645 194.048  0.00  0.00    +0.028 HD
ENDROOT
BRANCH   1   4
ATOM      4  C   UNL     1     147.026 165.915 194.311  0.00  0.00    +0.012 C 
ATOM      5  H   UNL     1     147.095 165.595 195.357  0.00  0.00    +0.046 HD
ATOM      6  H   UNL     1     147.075 167.013 194.312  0.00  0.00    +0.046 HD
BRANCH   4   9
ATOM      7  C   UNL     1     144.952 166.294 193.036  0.00  0.00    +0.218 C 
ATOM      8  O   UNL     1     145.371 167.316 192.498  0.00  0.00    -0.275 OA
ATOM      9  N   UNL     1     145.719 165.501 193.855  0.00  0.00    -0.315 N 
ATOM     10  H   UNL     1     145.248 164.721 194.317  0.00  0.00    +0.149 HD
BRANCH   7  11
ATOM     11  C   UNL     1     143.510 165.832 192.855  0.00  0.00    +0.060 C 
ATOM     12  H   UNL     1     143.499 164.763 193.112  0.00  0.00    +0.042 HD
BRANCH  11  13
ATOM     13  C   UNL     1     142.593 166.566 193.832  0.00  0.00    -0.052 C 
ATOM     14  H   UNL     1     142.890 167.606 193.982  0.00  0.00    +0.024 HD
ATOM     15  H   UNL     1     141.561 166.556 193.465  0.00  0.00    +0.024 HD
ATOM     16  H   UNL     1     142.606 166.080 194.813  0.00  0.00    +0.024 HD
ENDBRANCH  11  13
BRANCH  11  17
ATOM     17  C   UNL     1     143.052 165.965 191.386  0.00  0.00    +0.081 C 
ATOM     18  H   UNL     1     143.925 166.217 190.778  0.00  0.00    +0.062 HD
BRANCH  17  19
ATOM     19  C   UNL     1     141.957 167.042 191.210  0.00  0.00    +0.038 C 
ATOM     20  H   UNL     1     141.108 166.646 190.645  0.00  0.00    +0.049 HD
ATOM     21  H   UNL     1     141.599 167.387 192.187  0.00  0.00    +0.049 HD
BRANCH  19  24
ATOM     22  C   UNL     1     142.663 169.449 191.131  0.00  0.00    +0.216 C 
ATOM     23  O   UNL     1     142.436 169.660 192.318  0.00  0.00    -0.276 OA
ATOM     24  N   UNL     1     142.371 168.252 190.511  0.00  0.00    -0.313 N 
ATOM     25  H   UNL     1     142.602 168.161 189.530  0.00  0.00    +0.149 HD
BRANCH  22  26
ATOM     26  C   UNL     1     143.370 170.432 190.221  0.00  0.00    +0.050 C 
ATOM     27  H   UNL     1     143.180 170.069 189.201  0.00  0.00    +0.038 HD
ATOM     28  H   UNL     1     142.907 171.418 190.337  0.00  0.00    +0.038 HD
BRANCH  26  33
ATOM     29  C   UNL     1     146.682 172.143 190.442  0.00  0.00    +0.066 C 
ATOM     30  C   UNL     1     147.582 171.181 189.656  0.00  0.00    -0.026 C 
ATOM     31  C   UNL     1     147.176 169.721 189.845  0.00  0.00    -0.046 C 
ATOM     32  C   UNL     1     145.674 169.517 189.606  0.00  0.00    -0.017 C 
ATOM     33  C   UNL     1     144.879 170.512 190.484  0.00  0.00    +0.070 C 
ATOM     34  O   UNL     1     145.293 171.858 190.209  0.00  0.00    -0.372 OA
ATOM     35  H   UNL     1     146.836 173.147 190.030  0.00  0.00    +0.060 HD
ATOM     36  H   UNL     1     148.637 171.313 189.919  0.00  0.00    +0.029 HD
ATOM     37  H   UNL     1     147.499 171.425 188.589  0.00  0.00    +0.029 HD
ATOM     38  H   UNL     1     147.422 169.406 190.868  0.00  0.00    +0.027 HD
ATOM     39  H   UNL     1     147.767 169.082 189.175  0.00  0.00    +0.027 HD
ATOM     40  H   UNL     1     145.422 168.492 189.914  0.00  0.00    +0.032 HD
ATOM     41  H   UNL     1     145.094 170.283 191.536  0.00  0.00    +0.060 HD
BRANCH  32  42
ATOM     42  C   UNL     1     145.348 169.636 188.106  0.00  0.00    -0.060 C 
ATOM     43  H   UNL     1     146.229 169.452 187.480  0.00  0.00    +0.023 HD
ATOM     44  H   UNL     1     144.971 170.636 187.869  0.00  0.00    +0.023 HD
ATOM     45  H   UNL     1     144.570 168.918 187.823  0.00  0.00    +0.023 HD
ENDBRANCH  32  42
BRANCH  29  46
ATOM     46  C   UNL     1     146.998 172.191 191.943  0.00  0.00    +0.036 C 
ATOM     47  H   UNL     1     146.767 171.235 192.426  0.00  0.00    +0.037 HD
ATOM     48  H   UNL     1     146.371 172.951 192.433  0.00  0.00    +0.037 HD
BRANCH  46  49
ATOM     49  C   UNL     1     148.449 172.559 192.190  0.00  0.00    +0.158 C 
ATOM     50  O   UNL     1     148.879 173.695 192.013  0.00  0.00    -0.293 OA
BRANCH  49  52
ATOM     51  C   UNL     1     150.281 170.939 191.903  0.00  0.00    -0.084 C 
ATOM     52  C   UNL     1     149.339 171.472 192.695  0.00  0.00    -0.023 C 
ATOM     53  H   UNL     1     150.402 171.306 190.883  0.00  0.00    +0.057 HD
ATOM     54  H   UNL     1     149.185 171.134 193.712  0.00  0.00    +0.065 HD
BRANCH  51  55
ATOM     55  C   UNL     1     151.216 169.850 192.318  0.00  0.00    -0.046 C 
ATOM     56  H   UNL     1     150.647 168.999 192.706  0.00  0.00    +0.027 HD
ATOM     57  H   UNL     1     151.919 170.174 193.092  0.00  0.00    +0.027 HD
ATOM     58  H   UNL     1     151.795 169.508 191.454  0.00  0.00    +0.027 HD
ENDBRANCH  51  55
ENDBRANCH  49  52
ENDBRANCH  46  49
ENDBRANCH  29  46
ENDBRANCH  26  33
ENDBRANCH  22  26
ENDBRANCH  19  24
ENDBRANCH  17  19
BRANCH  17  59
ATOM     59  O   UNL     1     142.575 164.691 190.935  0.00  0.00    -0.390 OA
ATOM     60  H   UNL     1     142.903 164.589 190.012  0.00  0.00    +0.210 HD
ENDBRANCH  17  59
ENDBRANCH  11  17
ENDBRANCH   7  11
ENDBRANCH   4   9
ENDBRANCH   1   4
BRANCH   1  61
ATOM     61  C   UNL     1     149.032 166.428 192.841  0.00  0.00    -0.025 C 
ATOM     62  H   UNL     1     148.569 166.715 191.886  0.00  0.00    +0.029 HD
ATOM     63  H   UNL     1     149.019 167.310 193.488  0.00  0.00    +0.029 HD
BRANCH  61  64
ATOM     64  C   UNL     1     150.476 165.959 192.569  0.00  0.00    +0.065 C 
ATOM     65  C   UNL     1     151.437 166.388 193.704  0.00  0.00    -0.017 C 
ATOM     66  C   UNL     1     152.889 166.466 193.204  0.00  0.00    -0.043 C 
ATOM     67  C   UNL     1     153.080 165.588 191.973  0.00  0.00    +0.002 C 
ATOM     68  C   UNL     1     152.132 166.019 190.827  0.00  0.00    +0.171 C 
ATOM     69  O   UNL     1     150.908 166.561 191.345  0.00  0.00    -0.345 OA
ATOM     70  C   UNL     1     152.796 167.135 189.989  0.00  0.00    +0.002 C 
ATOM     71  C   UNL     1     153.653 166.566 188.879  0.00  0.00    -0.046 C 
ATOM     72  C   UNL     1     152.840 165.640 187.979  0.00  0.00    -0.026 C 
ATOM     73  C   UNL     1     151.613 165.021 188.663  0.00  0.00    +0.062 C 
ATOM     74  O   UNL     1     151.873 164.838 190.058  0.00  0.00    -0.345 OA
ATOM     75  H   UNL     1     150.490 164.871 192.451  0.00  0.00    +0.060 HD
ATOM     76  H   UNL     1     151.158 167.392 194.054  0.00  0.00    +0.032 HD
ATOM     77  H   UNL     1     153.122 167.508 192.944  0.00  0.00    +0.027 HD
ATOM     78  H   UNL     1     153.600 166.177 193.985  0.00  0.00    +0.027 HD
ATOM     79  H   UNL     1     152.888 164.542 192.246  0.00  0.00    +0.032 HD
ATOM     80  H   UNL     1     154.124 165.608 191.643  0.00  0.00    +0.032 HD
ATOM     81  H   UNL     1     153.392 167.799 190.627  0.00  0.00    +0.032 HD
ATOM     82  H   UNL     1     152.038 167.792 189.547  0.00  0.00    +0.032 HD
ATOM     83  H   UNL     1     154.491 166.006 189.310  0.00  0.00    +0.027 HD
ATOM     84  H   UNL     1     154.094 167.372 188.279  0.00  0.00    +0.027 HD
ATOM     85  H   UNL     1     153.508 164.828 187.657  0.00  0.00    +0.029 HD
ATOM     86  H   UNL     1     152.569 166.162 187.056  0.00  0.00    +0.029 HD
ATOM     87  H   UNL     1     151.506 164.010 188.252  0.00  0.00    +0.060 HD
BRANCH  65  88
ATOM     88  C   UNL     1     151.332 165.441 194.905  0.00  0.00    -0.060 C 
ATOM     89  H   UNL     1     150.371 164.916 194.914  0.00  0.00    +0.023 HD
ATOM     90  H   UNL     1     151.432 165.975 195.854  0.00  0.00    +0.023 HD
ATOM     91  H   UNL     1     152.125 164.683 194.871  0.00  0.00    +0.023 HD
ENDBRANCH  65  88
BRANCH  73  92
ATOM     92  C   UNL     1     150.268 165.727 188.419  0.00  0.00    -0.026 C 
ATOM     93  H   UNL     1     149.499 164.949 188.327  0.00  0.00    +0.029 HD
ATOM     94  H   UNL     1     149.981 166.321 189.288  0.00  0.00    +0.029 HD
BRANCH  92  95
ATOM     95  C   UNL     1     150.227 166.621 187.171  0.00  0.00    -0.045 C 
ATOM     96  H   UNL     1     150.768 167.553 187.369  0.00  0.00    +0.027 HD
ATOM     97  H   UNL     1     150.760 166.114 186.366  0.00  0.00    +0.027 HD
BRANCH  95  98
ATOM     98  C   UNL     1     148.788 166.983 186.743  0.00  0.00    -0.025 C 
ATOM     99  H   UNL     1     148.568 166.370 185.857  0.00  0.00    +0.034 HD
BRANCH  98 100
ATOM    100  C   UNL     1     148.618 168.441 186.318  0.00  0.00    -0.059 C 
ATOM    101  H   UNL     1     147.602 168.792 186.523  0.00  0.00    +0.024 HD
ATOM    102  H   UNL     1     148.811 168.576 185.252  0.00  0.00    +0.024 HD
ATOM    103  H   UNL     1     149.303 169.095 186.864  0.00  0.00    +0.024 HD
ENDBRANCH  98 100
BRANCH  98 104
ATOM    104  C   UNL     1     147.727 166.590 187.756  0.00  0.00    -0.080 C 
ATOM    105  C   UNL     1     146.467 166.130 187.581  0.00  0.00    -0.048 C 
ATOM    106  H   UNL     1     148.090 166.705 188.778  0.00  0.00    +0.058 HD
BRANCH 105 107
ATOM    107  C   UNL     1     145.888 165.806 186.230  0.00  0.00    -0.041 C 
ATOM    108  H   UNL     1     145.851 166.671 185.566  0.00  0.00    +0.028 HD
ATOM    109  H   UNL     1     146.501 165.058 185.715  0.00  0.00    +0.028 HD
ATOM    110  H   UNL     1     144.874 165.401 186.344  0.00  0.00    +0.028 HD
ENDBRANCH 105 107
BRANCH 105 111
ATOM    111  C   UNL     1     145.530 165.834 188.750  0.00  0.00    +0.073 C 
ATOM    112  H   UNL     1     145.139 166.780 189.141  0.00  0.00    +0.064 HD
BRANCH 111 113
ATOM    113  C   UNL     1     146.210 165.066 189.884  0.00  0.00    -0.035 C 
ATOM    114  H   UNL     1     146.407 165.730 190.733  0.00  0.00    +0.026 HD
ATOM    115  H   UNL     1     145.570 164.257 190.254  0.00  0.00    +0.026 HD
ATOM    116  H   UNL     1     147.163 164.634 189.560  0.00  0.00    +0.026 HD
ENDBRANCH 111 113
BRANCH 111 117
ATOM    117  O   UNL     1     144.401 165.065 188.330  0.00  0.00    -0.388 OA
ATOM    118  H   UNL     1     144.124 165.416 187.465  0.00  0.00    +0.210 HD
ENDBRANCH 111 117
ENDBRANCH 105 111
ENDBRANCH  98 104
ENDBRANCH  95  98
ENDBRANCH  92  95
ENDBRANCH  73  92
ENDBRANCH  61  64
ENDBRANCH   1  61
TORSDOF 27
ENDMDL
MODEL 4
REMARK VINA RESULT:      -6.3      2.753      9.405
REMARK  Name = Bistramide A_conf1
REMARK  27 active torsions:
REMARK  status: ('A' for Active; 'I' for Inactive)
REMARK    1  A    between atoms: C_1  and  C_2
REMARK    2  A    between atoms: C_3  and  C_4
REMARK    3  A    between atoms: C_4  and  C_6
REMARK    4  A    between atoms: C_6  and  C_7
REMARK    5  A    between atoms: C_10  and  C_50
REMARK    6  A    between atoms: C_11  and  C_13
REMARK    7  A    between atoms: C_13  and  C_14
REMARK    8  A    between atoms: N_16  and  C_17
REMARK    9  A    between atoms: C_17  and  C_18
REMARK   10  A    between atoms: C_18  and  C_19
REMARK   11  A    between atoms: C_18  and  O_49
REMARK   12  A    between atoms: C_19  and  C_20
REMARK   13  A    between atoms: C_19  and  C_21
REMARK   14  A    between atoms: N_23  and  C_24
REMARK   15  A    between atoms: C_24  and  C_25
REMARK   16  A    between atoms: C_25  and  C_26
REMARK   17  A    between atoms: C_26  and  C_27
REMARK   18  A    between atoms: C_28  and  C_48
REMARK   19  A    between atoms: C_36  and  C_38
REMARK   20  A    between atoms: C_38  and  C_39
REMARK   21  A    between atoms: C_39  and  C_40
REMARK   22  A    between atoms: C_40  and  C_41
REMARK   23  A    between atoms: C_40  and  C_42
REMARK   24  A    between atoms: C_43  and  C_44
REMARK   25  A    between atoms: C_43  and  C_45
REMARK   26  A    between atoms: C_45  and  C_46
REMARK   27  A    between atoms: C_45  and  O_47
REMARK                            x       y       z     vdW  Elec       q    Type
REMARK                         _______ _______ _______ _____ _____    ______ ____
ROOT
ATOM      1  C   UNL     1     146.046 167.898 189.919  0.00  0.00    -0.035 C 
ATOM      2  H   UNL     1     146.283 168.966 189.820  0.00  0.00    +0.028 HD
ATOM      3  H   UNL     1     146.927 167.435 190.377  0.00  0.00    +0.028 HD
ENDROOT
BRANCH   1   4
ATOM      4  C   UNL     1     145.790 167.331 188.526  0.00  0.00    +0.012 C 
ATOM      5  H   UNL     1     145.246 166.380 188.565  0.00  0.00    +0.046 HD
ATOM      6  H   UNL     1     145.175 168.025 187.937  0.00  0.00    +0.046 HD
BRANCH   4   9
ATOM      7  C   UNL     1     147.756 165.926 188.044  0.00  0.00    +0.218 C 
ATOM      8  O   UNL     1     147.366 164.995 188.744  0.00  0.00    -0.275 OA
ATOM      9  N   UNL     1     147.013 167.057 187.806  0.00  0.00    -0.315 N 
ATOM     10  H   UNL     1     147.466 167.805 187.279  0.00  0.00    +0.149 HD
BRANCH   7  11
ATOM     11  C   UNL     1     149.136 165.910 187.394  0.00  0.00    +0.060 C 
ATOM     12  H   UNL     1     149.443 164.856 187.355  0.00  0.00    +0.042 HD
BRANCH  11  13
ATOM     13  C   UNL     1     149.050 166.434 185.961  0.00  0.00    -0.052 C 
ATOM     14  H   UNL     1     148.101 166.184 185.481  0.00  0.00    +0.024 HD
ATOM     15  H   UNL     1     149.163 167.523 185.947  0.00  0.00    +0.024 HD
ATOM     16  H   UNL     1     149.847 166.004 185.345  0.00  0.00    +0.024 HD
ENDBRANCH  11  13
BRANCH  11  17
ATOM     17  C   UNL     1     150.174 166.669 188.249  0.00  0.00    +0.081 C 
ATOM     18  H   UNL     1     150.915 167.108 187.576  0.00  0.00    +0.062 HD
BRANCH  17  19
ATOM     19  C   UNL     1     150.873 165.747 189.274  0.00  0.00    +0.038 C 
ATOM     20  H   UNL     1     150.246 165.604 190.160  0.00  0.00    +0.049 HD
ATOM     21  H   UNL     1     151.082 164.768 188.829  0.00  0.00    +0.049 HD
BRANCH  19  24
ATOM     22  C   UNL     1     153.144 165.401 190.285  0.00  0.00    +0.216 C 
ATOM     23  O   UNL     1     152.963 164.214 190.535  0.00  0.00    -0.276 OA
ATOM     24  N   UNL     1     152.160 166.219 189.770  0.00  0.00    -0.313 N 
ATOM     25  H   UNL     1     152.399 167.185 189.584  0.00  0.00    +0.149 HD
BRANCH  22  26
ATOM     26  C   UNL     1     154.483 166.096 190.421  0.00  0.00    +0.050 C 
ATOM     27  H   UNL     1     154.248 167.103 190.796  0.00  0.00    +0.038 HD
ATOM     28  H   UNL     1     155.081 165.570 191.173  0.00  0.00    +0.038 HD
BRANCH  26  33
ATOM     29  C   UNL     1     154.913 165.727 186.730  0.00  0.00    +0.066 C 
ATOM     30  C   UNL     1     156.262 165.001 186.645  0.00  0.00    -0.026 C 
ATOM     31  C   UNL     1     157.228 165.441 187.743  0.00  0.00    -0.046 C 
ATOM     32  C   UNL     1     156.570 165.388 189.129  0.00  0.00    -0.017 C 
ATOM     33  C   UNL     1     155.246 166.189 189.094  0.00  0.00    +0.070 C 
ATOM     34  O   UNL     1     154.384 165.681 188.065  0.00  0.00    -0.372 OA
ATOM     35  H   UNL     1     154.197 165.160 186.124  0.00  0.00    +0.060 HD
ATOM     36  H   UNL     1     156.727 165.134 185.663  0.00  0.00    +0.029 HD
ATOM     37  H   UNL     1     156.081 163.924 186.757  0.00  0.00    +0.029 HD
ATOM     38  H   UNL     1     157.560 166.468 187.543  0.00  0.00    +0.027 HD
ATOM     39  H   UNL     1     158.129 164.814 187.717  0.00  0.00    +0.027 HD
ATOM     40  H   UNL     1     157.255 165.866 189.843  0.00  0.00    +0.032 HD
ATOM     41  H   UNL     1     155.489 167.236 188.868  0.00  0.00    +0.060 HD
BRANCH  32  42
ATOM     42  C   UNL     1     156.384 163.928 189.580  0.00  0.00    -0.060 C 
ATOM     43  H   UNL     1     156.181 163.854 190.654  0.00  0.00    +0.023 HD
ATOM     44  H   UNL     1     157.281 163.338 189.367  0.00  0.00    +0.023 HD
ATOM     45  H   UNL     1     155.551 163.462 189.039  0.00  0.00    +0.023 HD
ENDBRANCH  32  42
BRANCH  29  46
ATOM     46  C   UNL     1     154.955 167.165 186.196  0.00  0.00    +0.036 C 
ATOM     47  H   UNL     1     155.454 167.835 186.904  0.00  0.00    +0.037 HD
ATOM     48  H   UNL     1     153.931 167.547 186.068  0.00  0.00    +0.037 HD
BRANCH  46  49
ATOM     49  C   UNL     1     155.644 167.232 184.846  0.00  0.00    +0.158 C 
ATOM     50  O   UNL     1     155.216 166.643 183.858  0.00  0.00    -0.293 OA
BRANCH  49  52
ATOM     51  C   UNL     1     156.780 169.417 184.863  0.00  0.00    -0.084 C 
ATOM     52  C   UNL     1     156.869 168.083 184.761  0.00  0.00    -0.023 C 
ATOM     53  H   UNL     1     155.807 169.885 185.015  0.00  0.00    +0.057 HD
ATOM     54  H   UNL     1     157.815 167.579 184.607  0.00  0.00    +0.065 HD
BRANCH  51  55
ATOM     55  C   UNL     1     157.946 170.348 184.791  0.00  0.00    -0.046 C 
ATOM     56  H   UNL     1     158.880 169.780 184.854  0.00  0.00    +0.027 HD
ATOM     57  H   UNL     1     157.941 171.090 185.597  0.00  0.00    +0.027 HD
ATOM     58  H   UNL     1     157.935 170.884 183.836  0.00  0.00    +0.027 HD
ENDBRANCH  51  55
ENDBRANCH  49  52
ENDBRANCH  46  49
ENDBRANCH  29  46
ENDBRANCH  26  33
ENDBRANCH  22  26
ENDBRANCH  19  24
ENDBRANCH  17  19
BRANCH  17  59
ATOM     59  O   UNL     1     149.516 167.751 188.919  0.00  0.00    -0.390 OA
ATOM     60  H   UNL     1     148.756 167.351 189.401  0.00  0.00    +0.210 HD
ENDBRANCH  17  59
ENDBRANCH  11  17
ENDBRANCH   7  11
ENDBRANCH   4   9
ENDBRANCH   1   4
BRANCH   1  61
ATOM     61  C   UNL     1     144.830 167.733 190.842  0.00  0.00    -0.025 C 
ATOM     62  H   UNL     1     144.649 168.706 191.320  0.00  0.00    +0.029 HD
ATOM     63  H   UNL     1     143.949 167.498 190.237  0.00  0.00    +0.029 HD
BRANCH  61  64
ATOM     64  C   UNL     1     145.048 166.674 191.941  0.00  0.00    +0.065 C 
ATOM     65  C   UNL     1     143.769 166.456 192.784  0.00  0.00    -0.017 C 
ATOM     66  C   UNL     1     144.107 165.898 194.177  0.00  0.00    -0.043 C 
ATOM     67  C   UNL     1     145.457 165.190 194.156  0.00  0.00    +0.002 C 
ATOM     68  C   UNL     1     146.586 166.153 193.714  0.00  0.00    +0.171 C 
ATOM     69  O   UNL     1     146.093 167.143 192.800  0.00  0.00    -0.345 OA
ATOM     70  C   UNL     1     147.136 166.914 194.942  0.00  0.00    +0.002 C 
ATOM     71  C   UNL     1     148.248 166.146 195.625  0.00  0.00    -0.046 C 
ATOM     72  C   UNL     1     149.376 165.831 194.647  0.00  0.00    -0.026 C 
ATOM     73  C   UNL     1     148.937 165.788 193.177  0.00  0.00    +0.062 C 
ATOM     74  O   UNL     1     147.582 165.337 193.085  0.00  0.00    -0.345 OA
ATOM     75  H   UNL     1     145.364 165.732 191.482  0.00  0.00    +0.060 HD
ATOM     76  H   UNL     1     143.266 167.423 192.934  0.00  0.00    +0.032 HD
ATOM     77  H   UNL     1     144.146 166.729 194.895  0.00  0.00    +0.027 HD
ATOM     78  H   UNL     1     143.330 165.215 194.537  0.00  0.00    +0.027 HD
ATOM     79  H   UNL     1     145.402 164.335 193.470  0.00  0.00    +0.032 HD
ATOM     80  H   UNL     1     145.678 164.754 195.136  0.00  0.00    +0.032 HD
ATOM     81  H   UNL     1     146.333 167.135 195.656  0.00  0.00    +0.032 HD
ATOM     82  H   UNL     1     147.517 167.899 194.649  0.00  0.00    +0.032 HD
ATOM     83  H   UNL     1     147.852 165.209 196.033  0.00  0.00    +0.027 HD
ATOM     84  H   UNL     1     148.643 166.714 196.476  0.00  0.00    +0.027 HD
ATOM     85  H   UNL     1     149.780 164.846 194.920  0.00  0.00    +0.029 HD
ATOM     86  H   UNL     1     150.207 166.527 194.801  0.00  0.00    +0.029 HD
ATOM     87  H   UNL     1     149.537 165.007 192.696  0.00  0.00    +0.060 HD
BRANCH  65  88
ATOM     88  C   UNL     1     142.779 165.535 192.061  0.00  0.00    -0.060 C 
ATOM     89  H   UNL     1     141.983 166.110 191.576  0.00  0.00    +0.023 HD
ATOM     90  H   UNL     1     142.311 164.823 192.747  0.00  0.00    +0.023 HD
ATOM     91  H   UNL     1     143.290 164.952 191.285  0.00  0.00    +0.023 HD
ENDBRANCH  65  88
BRANCH  73  92
ATOM     92  C   UNL     1     149.169 167.070 192.358  0.00  0.00    -0.026 C 
ATOM     93  H   UNL     1     149.187 166.787 191.298  0.00  0.00    +0.029 HD
ATOM     94  H   UNL     1     148.327 167.755 192.464  0.00  0.00    +0.029 HD
BRANCH  92  95
ATOM     95  C   UNL     1     150.466 167.823 192.695  0.00  0.00    -0.045 C 
ATOM     96  H   UNL     1     150.496 168.040 193.768  0.00  0.00    +0.027 HD
ATOM     97  H   UNL     1     151.310 167.166 192.483  0.00  0.00    +0.027 HD
BRANCH  95  98
ATOM     98  C   UNL     1     150.596 169.159 191.931  0.00  0.00    -0.025 C 
ATOM     99  H   UNL     1     150.047 169.027 190.987  0.00  0.00    +0.034 HD
BRANCH  98 100
ATOM    100  C   UNL     1     152.033 169.517 191.553  0.00  0.00    -0.059 C 
ATOM    101  H   UNL     1     152.582 168.631 191.219  0.00  0.00    +0.024 HD
ATOM    102  H   UNL     1     152.575 169.950 192.396  0.00  0.00    +0.024 HD
ATOM    103  H   UNL     1     152.058 170.243 190.735  0.00  0.00    +0.024 HD
ENDBRANCH  98 100
BRANCH  98 104
ATOM    104  C   UNL     1     149.911 170.329 192.615  0.00  0.00    -0.080 C 
ATOM    105  C   UNL     1     148.878 171.103 192.214  0.00  0.00    -0.048 C 
ATOM    106  H   UNL     1     150.355 170.535 193.590  0.00  0.00    +0.058 HD
BRANCH 105 107
ATOM    107  C   UNL     1     148.096 170.848 190.954  0.00  0.00    -0.041 C 
ATOM    108  H   UNL     1     148.437 169.961 190.415  0.00  0.00    +0.028 HD
ATOM    109  H   UNL     1     147.039 170.672 191.182  0.00  0.00    +0.028 HD
ATOM    110  H   UNL     1     148.163 171.717 190.287  0.00  0.00    +0.028 HD
ENDBRANCH 105 107
BRANCH 105 111
ATOM    111  C   UNL     1     148.362 172.279 193.041  0.00  0.00    +0.073 C 
ATOM    112  H   UNL     1     147.363 172.037 193.419  0.00  0.00    +0.064 HD
BRANCH 111 113
ATOM    113  C   UNL     1     148.295 173.585 192.248  0.00  0.00    -0.035 C 
ATOM    114  H   UNL     1     148.387 174.447 192.919  0.00  0.00    +0.026 HD
ATOM    115  H   UNL     1     149.117 173.654 191.527  0.00  0.00    +0.026 HD
ATOM    116  H   UNL     1     147.348 173.676 191.705  0.00  0.00    +0.026 HD
ENDBRANCH 111 113
BRANCH 111 117
ATOM    117  O   UNL     1     149.188 172.514 194.183  0.00  0.00    -0.388 OA
ATOM    118  H   UNL     1     148.729 172.129 194.950  0.00  0.00    +0.210 HD
ENDBRANCH 111 117
ENDBRANCH 105 111
ENDBRANCH  98 104
ENDBRANCH  95  98
ENDBRANCH  92  95
ENDBRANCH  73  92
ENDBRANCH  61  64
ENDBRANCH   1  61
TORSDOF 27
ENDMDL
MODEL 5
REMARK VINA RESULT:      -6.3      3.585      8.078
REMARK  Name = Bistramide A_conf1
REMARK  27 active torsions:
REMARK  status: ('A' for Active; 'I' for Inactive)
REMARK    1  A    between atoms: C_1  and  C_2
REMARK    2  A    between atoms: C_3  and  C_4
REMARK    3  A    between atoms: C_4  and  C_6
REMARK    4  A    between atoms: C_6  and  C_7
REMARK    5  A    between atoms: C_10  and  C_50
REMARK    6  A    between atoms: C_11  and  C_13
REMARK    7  A    between atoms: C_13  and  C_14
REMARK    8  A    between atoms: N_16  and  C_17
REMARK    9  A    between atoms: C_17  and  C_18
REMARK   10  A    between atoms: C_18  and  C_19
REMARK   11  A    between atoms: C_18  and  O_49
REMARK   12  A    between atoms: C_19  and  C_20
REMARK   13  A    between atoms: C_19  and  C_21
REMARK   14  A    between atoms: N_23  and  C_24
REMARK   15  A    between atoms: C_24  and  C_25
REMARK   16  A    between atoms: C_25  and  C_26
REMARK   17  A    between atoms: C_26  and  C_27
REMARK   18  A    between atoms: C_28  and  C_48
REMARK   19  A    between atoms: C_36  and  C_38
REMARK   20  A    between atoms: C_38  and  C_39
REMARK   21  A    between atoms: C_39  and  C_40
REMARK   22  A    between atoms: C_40  and  C_41
REMARK   23  A    between atoms: C_40  and  C_42
REMARK   24  A    between atoms: C_43  and  C_44
REMARK   25  A    between atoms: C_43  and  C_45
REMARK   26  A    between atoms: C_45  and  C_46
REMARK   27  A    between atoms: C_45  and  O_47
REMARK                            x       y       z     vdW  Elec       q    Type
REMARK                         _______ _______ _______ _____ _____    ______ ____
ROOT
ATOM      1  C   UNL     1     146.844 167.186 189.965  0.00  0.00    -0.035 C 
ATOM      2  H   UNL     1     146.921 168.036 189.273  0.00  0.00    +0.028 HD
ATOM      3  H   UNL     1     147.873 166.891 190.197  0.00  0.00    +0.028 HD
ENDROOT
BRANCH   1   4
ATOM      4  C   UNL     1     146.095 166.058 189.260  0.00  0.00    +0.012 C 
ATOM      5  H   UNL     1     146.704 165.588 188.480  0.00  0.00    +0.046 HD
ATOM      6  H   UNL     1     145.832 165.267 189.976  0.00  0.00    +0.046 HD
BRANCH   4   9
ATOM      7  C   UNL     1     144.015 165.645 188.007  0.00  0.00    +0.218 C 
ATOM      8  O   UNL     1     144.084 164.425 188.131  0.00  0.00    -0.275 OA
ATOM      9  N   UNL     1     144.894 166.518 188.602  0.00  0.00    -0.315 N 
ATOM     10  H   UNL     1     144.796 167.506 188.365  0.00  0.00    +0.149 HD
BRANCH   7  11
ATOM     11  C   UNL     1     142.941 166.299 187.143  0.00  0.00    +0.060 C 
ATOM     12  H   UNL     1     143.235 167.353 187.038  0.00  0.00    +0.042 HD
BRANCH  11  13
ATOM     13  C   UNL     1     142.924 165.668 185.752  0.00  0.00    -0.052 C 
ATOM     14  H   UNL     1     143.134 166.393 184.962  0.00  0.00    +0.024 HD
ATOM     15  H   UNL     1     143.671 164.869 185.689  0.00  0.00    +0.024 HD
ATOM     16  H   UNL     1     141.944 165.230 185.540  0.00  0.00    +0.024 HD
ENDBRANCH  11  13
BRANCH  11  17
ATOM     17  C   UNL     1     141.560 166.266 187.834  0.00  0.00    +0.081 C 
ATOM     18  H   UNL     1     140.878 165.686 187.208  0.00  0.00    +0.062 HD
BRANCH  17  19
ATOM     19  C   UNL     1     140.988 167.684 188.065  0.00  0.00    +0.038 C 
ATOM     20  H   UNL     1     140.666 168.133 187.121  0.00  0.00    +0.049 HD
ATOM     21  H   UNL     1     140.130 167.645 188.747  0.00  0.00    +0.049 HD
BRANCH  19  24
ATOM     22  C   UNL     1     142.231 168.670 190.009  0.00  0.00    +0.216 C 
ATOM     23  O   UNL     1     141.647 167.999 190.854  0.00  0.00    -0.276 OA
ATOM     24  N   UNL     1     141.905 168.642 188.670  0.00  0.00    -0.313 N 
ATOM     25  H   UNL     1     142.447 169.221 188.041  0.00  0.00    +0.149 HD
BRANCH  22  26
ATOM     26  C   UNL     1     143.434 169.541 190.310  0.00  0.00    +0.050 C 
ATOM     27  H   UNL     1     144.089 168.920 190.937  0.00  0.00    +0.038 HD
ATOM     28  H   UNL     1     143.953 169.765 189.372  0.00  0.00    +0.038 HD
BRANCH  26  33
ATOM     29  C   UNL     1     141.276 172.479 191.118  0.00  0.00    +0.066 C 
ATOM     30  C   UNL     1     142.285 173.633 191.051  0.00  0.00    -0.026 C 
ATOM     31  C   UNL     1     143.670 173.223 191.544  0.00  0.00    -0.046 C 
ATOM     32  C   UNL     1     144.148 171.928 190.872  0.00  0.00    -0.017 C 
ATOM     33  C   UNL     1     143.066 170.835 191.045  0.00  0.00    +0.070 C 
ATOM     34  O   UNL     1     141.812 171.289 190.517  0.00  0.00    -0.372 OA
ATOM     35  H   UNL     1     140.423 172.753 190.487  0.00  0.00    +0.060 HD
ATOM     36  H   UNL     1     141.932 174.507 191.611  0.00  0.00    +0.029 HD
ATOM     37  H   UNL     1     142.373 173.954 190.005  0.00  0.00    +0.029 HD
ATOM     38  H   UNL     1     143.637 173.070 192.631  0.00  0.00    +0.027 HD
ATOM     39  H   UNL     1     144.384 174.039 191.368  0.00  0.00    +0.027 HD
ATOM     40  H   UNL     1     145.065 171.603 191.384  0.00  0.00    +0.032 HD
ATOM     41  H   UNL     1     142.949 170.642 192.119  0.00  0.00    +0.060 HD
BRANCH  32  42
ATOM     42  C   UNL     1     144.515 172.192 189.400  0.00  0.00    -0.060 C 
ATOM     43  H   UNL     1     143.780 172.837 188.905  0.00  0.00    +0.023 HD
ATOM     44  H   UNL     1     144.569 171.253 188.839  0.00  0.00    +0.023 HD
ATOM     45  H   UNL     1     145.498 172.672 189.329  0.00  0.00    +0.023 HD
ENDBRANCH  32  42
BRANCH  29  46
ATOM     46  C   UNL     1     140.752 172.203 192.533  0.00  0.00    +0.036 C 
ATOM     47  H   UNL     1     141.562 172.248 193.270  0.00  0.00    +0.037 HD
ATOM     48  H   UNL     1     140.334 171.186 192.585  0.00  0.00    +0.037 HD
BRANCH  46  49
ATOM     49  C   UNL     1     139.651 173.175 192.913  0.00  0.00    +0.158 C 
ATOM     50  O   UNL     1     138.653 173.343 192.220  0.00  0.00    -0.293 OA
BRANCH  49  52
ATOM     51  C   UNL     1     140.926 174.631 194.436  0.00  0.00    -0.084 C 
ATOM     52  C   UNL     1     139.822 173.907 194.204  0.00  0.00    -0.023 C 
ATOM     53  H   UNL     1     141.705 174.690 193.675  0.00  0.00    +0.057 HD
ATOM     54  H   UNL     1     139.027 173.820 194.934  0.00  0.00    +0.065 HD
BRANCH  51  55
ATOM     55  C   UNL     1     141.185 175.396 195.693  0.00  0.00    -0.046 C 
ATOM     56  H   UNL     1     140.408 175.172 196.431  0.00  0.00    +0.027 HD
ATOM     57  H   UNL     1     141.202 176.478 195.529  0.00  0.00    +0.027 HD
ATOM     58  H   UNL     1     142.152 175.101 196.115  0.00  0.00    +0.027 HD
ENDBRANCH  51  55
ENDBRANCH  49  52
ENDBRANCH  46  49
ENDBRANCH  29  46
ENDBRANCH  26  33
ENDBRANCH  22  26
ENDBRANCH  19  24
ENDBRANCH  17  19
BRANCH  17  59
ATOM     59  O   UNL     1     141.685 165.571 189.081  0.00  0.00    -0.390 OA
ATOM     60  H   UNL     1     140.954 164.911 189.099  0.00  0.00    +0.210 HD
ENDBRANCH  17  59
ENDBRANCH  11  17
ENDBRANCH   7  11
ENDBRANCH   4   9
ENDBRANCH   1   4
BRANCH   1  61
ATOM     61  C   UNL     1     146.130 167.640 191.246  0.00  0.00    -0.025 C 
ATOM     62  H   UNL     1     146.682 168.506 191.638  0.00  0.00    +0.029 HD
ATOM     63  H   UNL     1     145.122 167.983 190.993  0.00  0.00    +0.029 HD
BRANCH  61  64
ATOM     64  C   UNL     1     146.088 166.547 192.333  0.00  0.00    +0.065 C 
ATOM     65  C   UNL     1     144.657 166.347 192.886  0.00  0.00    -0.017 C 
ATOM     66  C   UNL     1     144.686 165.743 194.300  0.00  0.00    -0.043 C 
ATOM     67  C   UNL     1     145.992 164.994 194.536  0.00  0.00    +0.002 C 
ATOM     68  C   UNL     1     147.212 165.933 194.368  0.00  0.00    +0.171 C 
ATOM     69  O   UNL     1     146.945 166.961 193.403  0.00  0.00    -0.345 OA
ATOM     70  C   UNL     1     147.515 166.645 195.706  0.00  0.00    +0.002 C 
ATOM     71  C   UNL     1     148.441 165.825 196.579  0.00  0.00    -0.046 C 
ATOM     72  C   UNL     1     149.740 165.501 195.845  0.00  0.00    -0.026 C 
ATOM     73  C   UNL     1     149.614 165.510 194.315  0.00  0.00    +0.062 C 
ATOM     74  O   UNL     1     148.296 165.103 193.932  0.00  0.00    -0.345 OA
ATOM     75  H   UNL     1     146.470 165.607 191.919  0.00  0.00    +0.060 HD
ATOM     76  H   UNL     1     144.158 167.324 192.959  0.00  0.00    +0.032 HD
ATOM     77  H   UNL     1     144.596 166.553 195.037  0.00  0.00    +0.027 HD
ATOM     78  H   UNL     1     143.835 165.075 194.470  0.00  0.00    +0.027 HD
ATOM     79  H   UNL     1     146.059 164.159 193.827  0.00  0.00    +0.032 HD
ATOM     80  H   UNL     1     145.995 164.526 195.526  0.00  0.00    +0.032 HD
ATOM     81  H   UNL     1     146.587 166.871 196.245  0.00  0.00    +0.032 HD
ATOM     82  H   UNL     1     147.973 167.625 195.529  0.00  0.00    +0.032 HD
ATOM     83  H   UNL     1     147.947 164.891 196.866  0.00  0.00    +0.027 HD
ATOM     84  H   UNL     1     148.666 166.359 197.511  0.00  0.00    +0.027 HD
ATOM     85  H   UNL     1     150.053 164.497 196.165  0.00  0.00    +0.029 HD
ATOM     86  H   UNL     1     150.537 166.166 196.190  0.00  0.00    +0.029 HD
ATOM     87  H   UNL     1     150.281 164.723 193.945  0.00  0.00    +0.060 HD
BRANCH  65  88
ATOM     88  C   UNL     1     143.817 165.475 191.946  0.00  0.00    -0.060 C 
ATOM     89  H   UNL     1     144.013 164.410 192.111  0.00  0.00    +0.023 HD
ATOM     90  H   UNL     1     144.021 165.696 190.895  0.00  0.00    +0.023 HD
ATOM     91  H   UNL     1     142.746 165.646 192.114  0.00  0.00    +0.023 HD
ENDBRANCH  65  88
BRANCH  73  92
ATOM     92  C   UNL     1     150.043 166.805 193.603  0.00  0.00    -0.026 C 
ATOM     93  H   UNL     1     149.416 167.618 193.991  0.00  0.00    +0.029 HD
ATOM     94  H   UNL     1     151.066 167.071 193.870  0.00  0.00    +0.029 HD
BRANCH  92  95
ATOM     95  C   UNL     1     149.924 166.768 192.072  0.00  0.00    -0.045 C 
ATOM     96  H   UNL     1     150.661 166.069 191.663  0.00  0.00    +0.027 HD
ATOM     97  H   UNL     1     148.940 166.373 191.813  0.00  0.00    +0.027 HD
BRANCH  95  98
ATOM     98  C   UNL     1     150.158 168.148 191.422  0.00  0.00    -0.025 C 
ATOM     99  H   UNL     1     149.522 168.177 190.525  0.00  0.00    +0.034 HD
BRANCH  98 100
ATOM    100  C   UNL     1     151.593 168.372 190.947  0.00  0.00    -0.059 C 
ATOM    101  H   UNL     1     151.847 167.688 190.132  0.00  0.00    +0.024 HD
ATOM    102  H   UNL     1     152.313 168.217 191.753  0.00  0.00    +0.024 HD
ATOM    103  H   UNL     1     151.732 169.390 190.572  0.00  0.00    +0.024 HD
ENDBRANCH  98 100
BRANCH  98 104
ATOM    104  C   UNL     1     149.682 169.316 192.268  0.00  0.00    -0.080 C 
ATOM    105  C   UNL     1     148.893 170.369 191.955  0.00  0.00    -0.048 C 
ATOM    106  H   UNL     1     150.055 169.246 193.290  0.00  0.00    +0.058 HD
BRANCH 105 107
ATOM    107  C   UNL     1     148.211 170.521 190.621  0.00  0.00    -0.041 C 
ATOM    108  H   UNL     1     147.143 170.729 190.713  0.00  0.00    +0.028 HD
ATOM    109  H   UNL     1     148.634 171.362 190.063  0.00  0.00    +0.028 HD
ATOM    110  H   UNL     1     148.345 169.609 190.025  0.00  0.00    +0.028 HD
ENDBRANCH 105 107
BRANCH 105 111
ATOM    111  C   UNL     1     148.567 171.478 192.952  0.00  0.00    +0.073 C 
ATOM    112  H   UNL     1     148.141 171.030 193.856  0.00  0.00    +0.064 HD
BRANCH 111 113
ATOM    113  C   UNL     1     147.588 172.514 192.398  0.00  0.00    -0.035 C 
ATOM    114  H   UNL     1     148.037 173.058 191.559  0.00  0.00    +0.026 HD
ATOM    115  H   UNL     1     146.678 172.036 192.017  0.00  0.00    +0.026 HD
ATOM    116  H   UNL     1     147.302 173.244 193.163  0.00  0.00    +0.026 HD
ENDBRANCH 111 113
BRANCH 111 117
ATOM    117  O   UNL     1     149.746 172.178 193.356  0.00  0.00    -0.388 OA
ATOM    118  H   UNL     1     149.454 172.995 193.797  0.00  0.00    +0.210 HD
ENDBRANCH 111 117
ENDBRANCH 105 111
ENDBRANCH  98 104
ENDBRANCH  95  98
ENDBRANCH  92  95
ENDBRANCH  73  92
ENDBRANCH  61  64
ENDBRANCH   1  61
TORSDOF 27
ENDMDL
MODEL 6
REMARK VINA RESULT:      -6.2      3.594      8.186
REMARK  Name = Bistramide A_conf1
REMARK  27 active torsions:
REMARK  status: ('A' for Active; 'I' for Inactive)
REMARK    1  A    between atoms: C_1  and  C_2
REMARK    2  A    between atoms: C_3  and  C_4
REMARK    3  A    between atoms: C_4  and  C_6
REMARK    4  A    between atoms: C_6  and  C_7
REMARK    5  A    between atoms: C_10  and  C_50
REMARK    6  A    between atoms: C_11  and  C_13
REMARK    7  A    between atoms: C_13  and  C_14
REMARK    8  A    between atoms: N_16  and  C_17
REMARK    9  A    between atoms: C_17  and  C_18
REMARK   10  A    between atoms: C_18  and  C_19
REMARK   11  A    between atoms: C_18  and  O_49
REMARK   12  A    between atoms: C_19  and  C_20
REMARK   13  A    between atoms: C_19  and  C_21
REMARK   14  A    between atoms: N_23  and  C_24
REMARK   15  A    between atoms: C_24  and  C_25
REMARK   16  A    between atoms: C_25  and  C_26
REMARK   17  A    between atoms: C_26  and  C_27
REMARK   18  A    between atoms: C_28  and  C_48
REMARK   19  A    between atoms: C_36  and  C_38
REMARK   20  A    between atoms: C_38  and  C_39
REMARK   21  A    between atoms: C_39  and  C_40
REMARK   22  A    between atoms: C_40  and  C_41
REMARK   23  A    between atoms: C_40  and  C_42
REMARK   24  A    between atoms: C_43  and  C_44
REMARK   25  A    between atoms: C_43  and  C_45
REMARK   26  A    between atoms: C_45  and  C_46
REMARK   27  A    between atoms: C_45  and  O_47
REMARK                            x       y       z     vdW  Elec       q    Type
REMARK                         _______ _______ _______ _____ _____    ______ ____
ROOT
ATOM      1  C   UNL     1     147.264 167.539 189.269  0.00  0.00    -0.035 C 
ATOM      2  H   UNL     1     146.855 166.767 188.603  0.00  0.00    +0.028 HD
ATOM      3  H   UNL     1     148.339 167.339 189.338  0.00  0.00    +0.028 HD
ENDROOT
BRANCH   1   4
ATOM      4  C   UNL     1     146.591 167.404 190.632  0.00  0.00    +0.012 C 
ATOM      5  H   UNL     1     147.259 166.952 191.374  0.00  0.00    +0.046 HD
ATOM      6  H   UNL     1     146.309 168.392 191.020  0.00  0.00    +0.046 HD
BRANCH   4   9
ATOM      7  C   UNL     1     144.297 166.841 191.332  0.00  0.00    +0.218 C 
ATOM      8  O   UNL     1     144.137 167.893 191.945  0.00  0.00    -0.275 OA
ATOM      9  N   UNL     1     145.419 166.560 190.589  0.00  0.00    -0.315 N 
ATOM     10  H   UNL     1     145.486 165.623 190.190  0.00  0.00    +0.149 HD
BRANCH   7  11
ATOM     11  C   UNL     1     143.255 165.728 191.372  0.00  0.00    +0.060 C 
ATOM     12  H   UNL     1     143.816 164.784 191.329  0.00  0.00    +0.042 HD
BRANCH  11  13
ATOM     13  C   UNL     1     142.490 165.767 192.694  0.00  0.00    -0.052 C 
ATOM     14  H   UNL     1     142.712 164.908 193.331  0.00  0.00    +0.024 HD
ATOM     15  H   UNL     1     142.739 166.677 193.249  0.00  0.00    +0.024 HD
ATOM     16  H   UNL     1     141.410 165.767 192.514  0.00  0.00    +0.024 HD
ENDBRANCH  11  13
BRANCH  11  17
ATOM     17  C   UNL     1     142.326 165.777 190.139  0.00  0.00    +0.081 C 
ATOM     18  H   UNL     1     141.295 165.666 190.484  0.00  0.00    +0.062 HD
BRANCH  17  19
ATOM     19  C   UNL     1     142.661 164.673 189.110  0.00  0.00    +0.038 C 
ATOM     20  H   UNL     1     141.888 164.612 188.339  0.00  0.00    +0.049 HD
ATOM     21  H   UNL     1     143.624 164.878 188.628  0.00  0.00    +0.049 HD
BRANCH  19  24
ATOM     22  C   UNL     1     142.115 162.224 189.172  0.00  0.00    +0.216 C 
ATOM     23  O   UNL     1     141.207 162.302 188.351  0.00  0.00    -0.276 OA
ATOM     24  N   UNL     1     142.791 163.326 189.652  0.00  0.00    -0.313 N 
ATOM     25  H   UNL     1     143.534 163.169 190.321  0.00  0.00    +0.149 HD
BRANCH  22  26
ATOM     26  C   UNL     1     142.669 160.914 189.693  0.00  0.00    +0.050 C 
ATOM     27  H   UNL     1     142.655 161.011 190.788  0.00  0.00    +0.038 HD
ATOM     28  H   UNL     1     141.993 160.102 189.401  0.00  0.00    +0.038 HD
BRANCH  26  33
ATOM     29  C   UNL     1     145.625 161.339 187.452  0.00  0.00    +0.066 C 
ATOM     30  C   UNL     1     145.975 159.883 187.118  0.00  0.00    -0.026 C 
ATOM     31  C   UNL     1     145.714 158.940 188.291  0.00  0.00    -0.046 C 
ATOM     32  C   UNL     1     144.305 159.134 188.870  0.00  0.00    -0.017 C 
ATOM     33  C   UNL     1     144.094 160.630 189.203  0.00  0.00    +0.070 C 
ATOM     34  O   UNL     1     144.316 161.435 188.036  0.00  0.00    -0.372 OA
ATOM     35  H   UNL     1     145.551 161.883 186.503  0.00  0.00    +0.060 HD
ATOM     36  H   UNL     1     147.013 159.786 186.784  0.00  0.00    +0.029 HD
ATOM     37  H   UNL     1     145.349 159.562 186.274  0.00  0.00    +0.029 HD
ATOM     38  H   UNL     1     146.454 159.130 189.080  0.00  0.00    +0.027 HD
ATOM     39  H   UNL     1     145.863 157.900 187.971  0.00  0.00    +0.027 HD
ATOM     40  H   UNL     1     144.242 158.552 189.800  0.00  0.00    +0.032 HD
ATOM     41  H   UNL     1     144.824 160.913 189.972  0.00  0.00    +0.060 HD
BRANCH  32  42
ATOM     42  C   UNL     1     143.247 158.571 187.904  0.00  0.00    -0.060 C 
ATOM     43  H   UNL     1     143.652 158.416 186.897  0.00  0.00    +0.023 HD
ATOM     44  H   UNL     1     142.395 159.253 187.822  0.00  0.00    +0.023 HD
ATOM     45  H   UNL     1     142.863 157.612 188.271  0.00  0.00    +0.023 HD
ENDBRANCH  32  42
BRANCH  29  46
ATOM     46  C   UNL     1     146.678 162.039 188.321  0.00  0.00    +0.036 C 
ATOM     47  H   UNL     1     147.672 161.977 187.863  0.00  0.00    +0.037 HD
ATOM     48  H   UNL     1     146.748 161.539 189.299  0.00  0.00    +0.037 HD
BRANCH  46  49
ATOM     49  C   UNL     1     146.312 163.490 188.569  0.00  0.00    +0.158 C 
ATOM     50  O   UNL     1     145.889 163.886 189.651  0.00  0.00    -0.293 OA
BRANCH  49  52
ATOM     51  C   UNL     1     147.740 164.613 186.908  0.00  0.00    -0.084 C 
ATOM     52  C   UNL     1     146.519 164.437 187.433  0.00  0.00    -0.023 C 
ATOM     53  H   UNL     1     148.588 164.057 187.309  0.00  0.00    +0.057 HD
ATOM     54  H   UNL     1     145.653 164.972 187.066  0.00  0.00    +0.065 HD
BRANCH  51  55
ATOM     55  C   UNL     1     148.046 165.536 185.773  0.00  0.00    -0.046 C 
ATOM     56  H   UNL     1     148.167 166.558 186.148  0.00  0.00    +0.027 HD
ATOM     57  H   UNL     1     147.258 165.541 185.013  0.00  0.00    +0.027 HD
ATOM     58  H   UNL     1     148.982 165.236 185.291  0.00  0.00    +0.027 HD
ENDBRANCH  51  55
ENDBRANCH  49  52
ENDBRANCH  46  49
ENDBRANCH  29  46
ENDBRANCH  26  33
ENDBRANCH  22  26
ENDBRANCH  19  24
ENDBRANCH  17  19
BRANCH  17  59
ATOM     59  O   UNL     1     142.433 167.071 189.534  0.00  0.00    -0.390 OA
ATOM     60  H   UNL     1     141.813 167.066 188.769  0.00  0.00    +0.210 HD
ENDBRANCH  17  59
ENDBRANCH  11  17
ENDBRANCH   7  11
ENDBRANCH   4   9
ENDBRANCH   1   4
BRANCH   1  61
ATOM     61  C   UNL     1     147.029 168.922 188.644  0.00  0.00    -0.025 C 
ATOM     62  H   UNL     1     147.986 169.255 188.219  0.00  0.00    +0.029 HD
ATOM     63  H   UNL     1     146.320 168.826 187.816  0.00  0.00    +0.029 HD
BRANCH  61  64
ATOM     64  C   UNL     1     146.550 169.971 189.667  0.00  0.00    +0.065 C 
ATOM     65  C   UNL     1     145.388 170.826 189.106  0.00  0.00    -0.017 C 
ATOM     66  C   UNL     1     145.304 172.187 189.816  0.00  0.00    -0.043 C 
ATOM     67  C   UNL     1     145.953 172.114 191.193  0.00  0.00    +0.002 C 
ATOM     68  C   UNL     1     147.440 171.694 191.088  0.00  0.00    +0.171 C 
ATOM     69  O   UNL     1     147.656 170.831 189.963  0.00  0.00    -0.345 OA
ATOM     70  C   UNL     1     148.323 172.944 190.868  0.00  0.00    +0.002 C 
ATOM     71  C   UNL     1     148.737 173.575 192.181  0.00  0.00    -0.046 C 
ATOM     72  C   UNL     1     149.458 172.565 193.069  0.00  0.00    -0.026 C 
ATOM     73  C   UNL     1     149.100 171.102 192.773  0.00  0.00    +0.062 C 
ATOM     74  O   UNL     1     147.749 171.014 192.311  0.00  0.00    -0.345 OA
ATOM     75  H   UNL     1     146.239 169.467 190.588  0.00  0.00    +0.060 HD
ATOM     76  H   UNL     1     145.569 171.025 188.039  0.00  0.00    +0.032 HD
ATOM     77  H   UNL     1     145.827 172.939 189.210  0.00  0.00    +0.027 HD
ATOM     78  H   UNL     1     144.268 172.531 189.907  0.00  0.00    +0.027 HD
ATOM     79  H   UNL     1     145.401 171.393 191.810  0.00  0.00    +0.032 HD
ATOM     80  H   UNL     1     145.854 173.070 191.717  0.00  0.00    +0.032 HD
ATOM     81  H   UNL     1     147.807 173.680 190.240  0.00  0.00    +0.032 HD
ATOM     82  H   UNL     1     149.224 172.687 190.301  0.00  0.00    +0.032 HD
ATOM     83  H   UNL     1     147.851 173.949 192.706  0.00  0.00    +0.027 HD
ATOM     84  H   UNL     1     149.385 174.443 192.005  0.00  0.00    +0.027 HD
ATOM     85  H   UNL     1     149.182 172.790 194.109  0.00  0.00    +0.029 HD
ATOM     86  H   UNL     1     150.539 172.735 193.023  0.00  0.00    +0.029 HD
ATOM     87  H   UNL     1     149.114 170.579 193.736  0.00  0.00    +0.060 HD
BRANCH  65  88
ATOM     88  C   UNL     1     144.052 170.081 189.211  0.00  0.00    -0.060 C 
ATOM     89  H   UNL     1     144.133 169.213 189.875  0.00  0.00    +0.023 HD
ATOM     90  H   UNL     1     143.705 169.728 188.237  0.00  0.00    +0.023 HD
ATOM     91  H   UNL     1     143.273 170.739 189.617  0.00  0.00    +0.023 HD
ENDBRANCH  65  88
BRANCH  73  92
ATOM     92  C   UNL     1     150.070 170.335 191.857  0.00  0.00    -0.026 C 
ATOM     93  H   UNL     1     149.467 169.690 191.205  0.00  0.00    +0.029 HD
ATOM     94  H   UNL     1     150.593 171.020 191.188  0.00  0.00    +0.029 HD
BRANCH  92  95
ATOM     95  C   UNL     1     151.106 169.473 192.593  0.00  0.00    -0.045 C 
ATOM     96  H   UNL     1     152.111 169.718 192.234  0.00  0.00    +0.027 HD
ATOM     97  H   UNL     1     151.080 169.733 193.653  0.00  0.00    +0.027 HD
BRANCH  95  98
ATOM     98  C   UNL     1     150.878 167.960 192.387  0.00  0.00    -0.025 C 
ATOM     99  H   UNL     1     151.707 167.451 192.901  0.00  0.00    +0.034 HD
BRANCH  98 100
ATOM    100  C   UNL     1     150.937 167.520 190.924  0.00  0.00    -0.059 C 
ATOM    101  H   UNL     1     150.390 166.584 190.775  0.00  0.00    +0.024 HD
ATOM    102  H   UNL     1     151.965 167.366 190.590  0.00  0.00    +0.024 HD
ATOM    103  H   UNL     1     150.484 168.269 190.268  0.00  0.00    +0.024 HD
ENDBRANCH  98 100
BRANCH  98 104
ATOM    104  C   UNL     1     149.625 167.428 193.059  0.00  0.00    -0.080 C 
ATOM    105  C   UNL     1     149.468 166.481 194.012  0.00  0.00    -0.048 C 
ATOM    106  H   UNL     1     148.730 167.929 192.687  0.00  0.00    +0.058 HD
BRANCH 105 107
ATOM    107  C   UNL     1     150.623 165.805 194.701  0.00  0.00    -0.041 C 
ATOM    108  H   UNL     1     151.419 166.500 194.974  0.00  0.00    +0.028 HD
ATOM    109  H   UNL     1     150.297 165.339 195.637  0.00  0.00    +0.028 HD
ATOM    110  H   UNL     1     151.040 165.023 194.054  0.00  0.00    +0.028 HD
ENDBRANCH 105 107
BRANCH 105 111
ATOM    111  C   UNL     1     148.096 166.052 194.527  0.00  0.00    +0.073 C 
ATOM    112  H   UNL     1     147.327 166.661 194.042  0.00  0.00    +0.064 HD
BRANCH 111 113
ATOM    113  C   UNL     1     147.957 166.186 196.044  0.00  0.00    -0.035 C 
ATOM    114  H   UNL     1     147.737 165.214 196.498  0.00  0.00    +0.026 HD
ATOM    115  H   UNL     1     148.888 166.546 196.498  0.00  0.00    +0.026 HD
ATOM    116  H   UNL     1     147.151 166.878 196.313  0.00  0.00    +0.026 HD
ENDBRANCH 111 113
BRANCH 111 117
ATOM    117  O   UNL     1     147.816 164.692 194.191  0.00  0.00    -0.388 OA
ATOM    118  H   UNL     1     147.156 164.371 194.830  0.00  0.00    +0.210 HD
ENDBRANCH 111 117
ENDBRANCH 105 111
ENDBRANCH  98 104
ENDBRANCH  95  98
ENDBRANCH  92  95
ENDBRANCH  73  92
ENDBRANCH  61  64
ENDBRANCH   1  61
TORSDOF 27
ENDMDL
MODEL 7
REMARK VINA RESULT:      -6.1      2.702      8.631
REMARK  Name = Bistramide A_conf1
REMARK  27 active torsions:
REMARK  status: ('A' for Active; 'I' for Inactive)
REMARK    1  A    between atoms: C_1  and  C_2
REMARK    2  A    between atoms: C_3  and  C_4
REMARK    3  A    between atoms: C_4  and  C_6
REMARK    4  A    between atoms: C_6  and  C_7
REMARK    5  A    between atoms: C_10  and  C_50
REMARK    6  A    between atoms: C_11  and  C_13
REMARK    7  A    between atoms: C_13  and  C_14
REMARK    8  A    between atoms: N_16  and  C_17
REMARK    9  A    between atoms: C_17  and  C_18
REMARK   10  A    between atoms: C_18  and  C_19
REMARK   11  A    between atoms: C_18  and  O_49
REMARK   12  A    between atoms: C_19  and  C_20
REMARK   13  A    between atoms: C_19  and  C_21
REMARK   14  A    between atoms: N_23  and  C_24
REMARK   15  A    between atoms: C_24  and  C_25
REMARK   16  A    between atoms: C_25  and  C_26
REMARK   17  A    between atoms: C_26  and  C_27
REMARK   18  A    between atoms: C_28  and  C_48
REMARK   19  A    between atoms: C_36  and  C_38
REMARK   20  A    between atoms: C_38  and  C_39
REMARK   21  A    between atoms: C_39  and  C_40
REMARK   22  A    between atoms: C_40  and  C_41
REMARK   23  A    between atoms: C_40  and  C_42
REMARK   24  A    between atoms: C_43  and  C_44
REMARK   25  A    between atoms: C_43  and  C_45
REMARK   26  A    between atoms: C_45  and  C_46
REMARK   27  A    between atoms: C_45  and  O_47
REMARK                            x       y       z     vdW  Elec       q    Type
REMARK                         _______ _______ _______ _____ _____    ______ ____
ROOT
ATOM      1  C   UNL     1     147.090 167.640 189.324  0.00  0.00    -0.035 C 
ATOM      2  H   UNL     1     146.366 166.932 188.896  0.00  0.00    +0.028 HD
ATOM      3  H   UNL     1     148.080 167.267 189.038  0.00  0.00    +0.028 HD
ENDROOT
BRANCH   1   4
ATOM      4  C   UNL     1     146.921 167.643 190.840  0.00  0.00    +0.012 C 
ATOM      5  H   UNL     1     147.873 167.483 191.358  0.00  0.00    +0.046 HD
ATOM      6  H   UNL     1     146.534 168.614 191.181  0.00  0.00    +0.046 HD
BRANCH   4   9
ATOM      7  C   UNL     1     144.793 166.870 191.813  0.00  0.00    +0.218 C 
ATOM      8  O   UNL     1     144.271 167.980 191.763  0.00  0.00    -0.275 OA
ATOM      9  N   UNL     1     146.039 166.595 191.302  0.00  0.00    -0.315 N 
ATOM     10  H   UNL     1     146.413 165.660 191.471  0.00  0.00    +0.149 HD
BRANCH   7  11
ATOM     11  C   UNL     1     144.097 165.690 192.485  0.00  0.00    +0.060 C 
ATOM     12  H   UNL     1     144.687 164.800 192.224  0.00  0.00    +0.042 HD
BRANCH  11  13
ATOM     13  C   UNL     1     144.127 165.854 194.004  0.00  0.00    -0.052 C 
ATOM     14  H   UNL     1     143.665 166.788 194.332  0.00  0.00    +0.024 HD
ATOM     15  H   UNL     1     143.600 165.024 194.485  0.00  0.00    +0.024 HD
ATOM     16  H   UNL     1     145.159 165.856 194.371  0.00  0.00    +0.024 HD
ENDBRANCH  11  13
BRANCH  11  17
ATOM     17  C   UNL     1     142.670 165.484 191.931  0.00  0.00    +0.081 C 
ATOM     18  H   UNL     1     142.201 164.672 192.492  0.00  0.00    +0.062 HD
BRANCH  17  19
ATOM     19  C   UNL     1     142.671 165.153 190.422  0.00  0.00    +0.038 C 
ATOM     20  H   UNL     1     143.693 165.073 190.040  0.00  0.00    +0.049 HD
ATOM     21  H   UNL     1     142.150 164.206 190.236  0.00  0.00    +0.049 HD
BRANCH  19  24
ATOM     22  C   UNL     1     142.623 166.835 188.560  0.00  0.00    +0.216 C 
ATOM     23  O   UNL     1     143.839 166.847 188.402  0.00  0.00    -0.276 OA
ATOM     24  N   UNL     1     142.002 166.124 189.564  0.00  0.00    -0.313 N 
ATOM     25  H   UNL     1     140.991 166.163 189.614  0.00  0.00    +0.149 HD
BRANCH  22  26
ATOM     26  C   UNL     1     141.647 167.521 187.626  0.00  0.00    +0.050 C 
ATOM     27  H   UNL     1     140.872 166.769 187.417  0.00  0.00    +0.038 HD
ATOM     28  H   UNL     1     141.187 168.366 188.150  0.00  0.00    +0.038 HD
BRANCH  26  33
ATOM     29  C   UNL     1     143.363 169.965 185.384  0.00  0.00    +0.066 C 
ATOM     30  C   UNL     1     142.523 169.857 184.105  0.00  0.00    -0.026 C 
ATOM     31  C   UNL     1     142.014 168.438 183.863  0.00  0.00    -0.046 C 
ATOM     32  C   UNL     1     141.336 167.860 185.113  0.00  0.00    -0.017 C 
ATOM     33  C   UNL     1     142.298 167.989 186.319  0.00  0.00    +0.070 C 
ATOM     34  O   UNL     1     142.689 169.358 186.498  0.00  0.00    -0.372 OA
ATOM     35  H   UNL     1     143.432 171.028 185.643  0.00  0.00    +0.060 HD
ATOM     36  H   UNL     1     143.079 170.210 183.229  0.00  0.00    +0.029 HD
ATOM     37  H   UNL     1     141.655 170.521 184.206  0.00  0.00    +0.029 HD
ATOM     38  H   UNL     1     142.858 167.793 183.583  0.00  0.00    +0.027 HD
ATOM     39  H   UNL     1     141.324 168.432 183.009  0.00  0.00    +0.027 HD
ATOM     40  H   UNL     1     141.143 166.794 184.926  0.00  0.00    +0.032 HD
ATOM     41  H   UNL     1     143.193 167.390 186.105  0.00  0.00    +0.060 HD
BRANCH  32  42
ATOM     42  C   UNL     1     139.975 168.538 185.347  0.00  0.00    -0.060 C 
ATOM     43  H   UNL     1     139.154 167.811 185.371  0.00  0.00    +0.023 HD
ATOM     44  H   UNL     1     139.759 169.261 184.554  0.00  0.00    +0.023 HD
ATOM     45  H   UNL     1     139.976 169.086 186.297  0.00  0.00    +0.023 HD
ENDBRANCH  32  42
BRANCH  29  46
ATOM     46  C   UNL     1     144.789 169.420 185.230  0.00  0.00    +0.036 C 
ATOM     47  H   UNL     1     144.928 168.950 184.250  0.00  0.00    +0.037 HD
ATOM     48  H   UNL     1     144.975 168.639 185.983  0.00  0.00    +0.037 HD
BRANCH  46  49
ATOM     49  C   UNL     1     145.822 170.512 185.433  0.00  0.00    +0.158 C 
ATOM     50  O   UNL     1     147.028 170.300 185.353  0.00  0.00    -0.293 OA
BRANCH  49  52
ATOM     51  C   UNL     1     146.120 172.849 186.147  0.00  0.00    -0.084 C 
ATOM     52  C   UNL     1     145.301 171.884 185.707  0.00  0.00    -0.023 C 
ATOM     53  H   UNL     1     147.179 172.633 186.301  0.00  0.00    +0.057 HD
ATOM     54  H   UNL     1     144.244 172.057 185.545  0.00  0.00    +0.065 HD
BRANCH  51  55
ATOM     55  C   UNL     1     145.692 174.249 186.449  0.00  0.00    -0.046 C 
ATOM     56  H   UNL     1     144.627 174.367 186.228  0.00  0.00    +0.027 HD
ATOM     57  H   UNL     1     146.248 174.992 185.867  0.00  0.00    +0.027 HD
ATOM     58  H   UNL     1     145.847 174.464 187.511  0.00  0.00    +0.027 HD
ENDBRANCH  51  55
ENDBRANCH  49  52
ENDBRANCH  46  49
ENDBRANCH  29  46
ENDBRANCH  26  33
ENDBRANCH  22  26
ENDBRANCH  19  24
ENDBRANCH  17  19
BRANCH  17  59
ATOM     59  O   UNL     1     141.904 166.669 192.181  0.00  0.00    -0.390 OA
ATOM     60  H   UNL     1     142.521 167.307 192.607  0.00  0.00    +0.210 HD
ENDBRANCH  17  59
ENDBRANCH  11  17
ENDBRANCH   7  11
ENDBRANCH   4   9
ENDBRANCH   1   4
BRANCH   1  61
ATOM     61  C   UNL     1     146.858 169.029 188.714  0.00  0.00    -0.025 C 
ATOM     62  H   UNL     1     147.804 169.346 188.253  0.00  0.00    +0.029 HD
ATOM     63  H   UNL     1     146.115 168.952 187.914  0.00  0.00    +0.029 HD
BRANCH  61  64
ATOM     64  C   UNL     1     146.440 170.083 189.759  0.00  0.00    +0.065 C 
ATOM     65  C   UNL     1     145.280 170.968 189.245  0.00  0.00    -0.017 C 
ATOM     66  C   UNL     1     145.253 172.326 189.965  0.00  0.00    -0.043 C 
ATOM     67  C   UNL     1     145.949 172.230 191.317  0.00  0.00    +0.002 C 
ATOM     68  C   UNL     1     147.421 171.777 191.156  0.00  0.00    +0.171 C 
ATOM     69  O   UNL     1     147.576 170.916 190.019  0.00  0.00    -0.345 OA
ATOM     70  C   UNL     1     148.324 173.007 190.910  0.00  0.00    +0.002 C 
ATOM     71  C   UNL     1     148.800 173.620 192.211  0.00  0.00    -0.046 C 
ATOM     72  C   UNL     1     149.530 172.589 193.067  0.00  0.00    -0.026 C 
ATOM     73  C   UNL     1     149.127 171.136 192.777  0.00  0.00    +0.062 C 
ATOM     74  O   UNL     1     147.759 171.083 192.363  0.00  0.00    -0.345 OA
ATOM     75  H   UNL     1     146.152 169.581 190.688  0.00  0.00    +0.060 HD
ATOM     76  H   UNL     1     145.426 171.169 188.174  0.00  0.00    +0.032 HD
ATOM     77  H   UNL     1     145.771 173.070 189.344  0.00  0.00    +0.027 HD
ATOM     78  H   UNL     1     144.229 172.693 190.095  0.00  0.00    +0.027 HD
ATOM     79  H   UNL     1     145.404 171.518 191.950  0.00  0.00    +0.032 HD
ATOM     80  H   UNL     1     145.892 173.185 191.849  0.00  0.00    +0.032 HD
ATOM     81  H   UNL     1     147.803 173.758 190.305  0.00  0.00    +0.032 HD
ATOM     82  H   UNL     1     149.199 172.733 190.310  0.00  0.00    +0.032 HD
ATOM     83  H   UNL     1     147.943 174.011 192.770  0.00  0.00    +0.027 HD
ATOM     84  H   UNL     1     149.461 174.474 192.016  0.00  0.00    +0.027 HD
ATOM     85  H   UNL     1     149.297 172.813 194.118  0.00  0.00    +0.029 HD
ATOM     86  H   UNL     1     150.611 172.734 192.983  0.00  0.00    +0.029 HD
ATOM     87  H   UNL     1     149.163 170.607 193.736  0.00  0.00    +0.060 HD
BRANCH  65  88
ATOM     88  C   UNL     1     143.931 170.253 189.394  0.00  0.00    -0.060 C 
ATOM     89  H   UNL     1     143.112 170.972 189.508  0.00  0.00    +0.023 HD
ATOM     90  H   UNL     1     143.918 169.587 190.261  0.00  0.00    +0.023 HD
ATOM     91  H   UNL     1     143.717 169.642 188.509  0.00  0.00    +0.023 HD
ENDBRANCH  65  88
BRANCH  73  92
ATOM     92  C   UNL     1     150.045 170.353 191.822  0.00  0.00    -0.026 C 
ATOM     93  H   UNL     1     149.414 169.654 191.256  0.00  0.00    +0.029 HD
ATOM     94  H   UNL     1     150.486 171.017 191.078  0.00  0.00    +0.029 HD
BRANCH  92  95
ATOM     95  C   UNL     1     151.169 169.564 192.511  0.00  0.00    -0.045 C 
ATOM     96  H   UNL     1     152.133 169.833 192.066  0.00  0.00    +0.027 HD
ATOM     97  H   UNL     1     151.211 169.868 193.558  0.00  0.00    +0.027 HD
BRANCH  95  98
ATOM     98  C   UNL     1     150.991 168.036 192.383  0.00  0.00    -0.025 C 
ATOM     99  H   UNL     1     151.776 167.582 193.005  0.00  0.00    +0.034 HD
BRANCH  98 100
ATOM    100  C   UNL     1     151.197 167.507 190.964  0.00  0.00    -0.059 C 
ATOM    101  H   UNL     1     152.262 167.433 190.725  0.00  0.00    +0.024 HD
ATOM    102  H   UNL     1     150.730 168.154 190.220  0.00  0.00    +0.024 HD
ATOM    103  H   UNL     1     150.768 166.507 190.848  0.00  0.00    +0.024 HD
ENDBRANCH  98 100
BRANCH  98 104
ATOM    104  C   UNL     1     149.689 167.516 192.968  0.00  0.00    -0.080 C 
ATOM    105  C   UNL     1     149.457 166.544 193.879  0.00  0.00    -0.048 C 
ATOM    106  H   UNL     1     148.829 168.051 192.563  0.00  0.00    +0.058 HD
BRANCH 105 107
ATOM    107  C   UNL     1     150.555 165.817 194.607  0.00  0.00    -0.041 C 
ATOM    108  H   UNL     1     151.018 166.422 195.390  0.00  0.00    +0.028 HD
ATOM    109  H   UNL     1     150.163 164.926 195.110  0.00  0.00    +0.028 HD
ATOM    110  H   UNL     1     151.330 165.499 193.898  0.00  0.00    +0.028 HD
ENDBRANCH 105 107
BRANCH 105 111
ATOM    111  C   UNL     1     148.049 166.135 194.304  0.00  0.00    +0.073 C 
ATOM    112  H   UNL     1     147.340 166.903 193.977  0.00  0.00    +0.064 HD
BRANCH 111 113
ATOM    113  C   UNL     1     147.912 165.938 195.814  0.00  0.00    -0.035 C 
ATOM    114  H   UNL     1     146.965 166.358 196.173  0.00  0.00    +0.026 HD
ATOM    115  H   UNL     1     147.907 164.874 196.077  0.00  0.00    +0.026 HD
ATOM    116  H   UNL     1     148.728 166.426 196.357  0.00  0.00    +0.026 HD
ENDBRANCH 111 113
BRANCH 111 117
ATOM    117  O   UNL     1     147.650 164.914 193.677  0.00  0.00    -0.388 OA
ATOM    118  H   UNL     1     146.829 165.101 193.188  0.00  0.00    +0.210 HD
ENDBRANCH 111 117
ENDBRANCH 105 111
ENDBRANCH  98 104
ENDBRANCH  95  98
ENDBRANCH  92  95
ENDBRANCH  73  92
ENDBRANCH  61  64
ENDBRANCH   1  61
TORSDOF 27
ENDMDL
MODEL 8
REMARK VINA RESULT:      -6.1      4.558     11.386
REMARK  Name = Bistramide A_conf1
REMARK  27 active torsions:
REMARK  status: ('A' for Active; 'I' for Inactive)
REMARK    1  A    between atoms: C_1  and  C_2
REMARK    2  A    between atoms: C_3  and  C_4
REMARK    3  A    between atoms: C_4  and  C_6
REMARK    4  A    between atoms: C_6  and  C_7
REMARK    5  A    between atoms: C_10  and  C_50
REMARK    6  A    between atoms: C_11  and  C_13
REMARK    7  A    between atoms: C_13  and  C_14
REMARK    8  A    between atoms: N_16  and  C_17
REMARK    9  A    between atoms: C_17  and  C_18
REMARK   10  A    between atoms: C_18  and  C_19
REMARK   11  A    between atoms: C_18  and  O_49
REMARK   12  A    between atoms: C_19  and  C_20
REMARK   13  A    between atoms: C_19  and  C_21
REMARK   14  A    between atoms: N_23  and  C_24
REMARK   15  A    between atoms: C_24  and  C_25
REMARK   16  A    between atoms: C_25  and  C_26
REMARK   17  A    between atoms: C_26  and  C_27
REMARK   18  A    between atoms: C_28  and  C_48
REMARK   19  A    between atoms: C_36  and  C_38
REMARK   20  A    between atoms: C_38  and  C_39
REMARK   21  A    between atoms: C_39  and  C_40
REMARK   22  A    between atoms: C_40  and  C_41
REMARK   23  A    between atoms: C_40  and  C_42
REMARK   24  A    between atoms: C_43  and  C_44
REMARK   25  A    between atoms: C_43  and  C_45
REMARK   26  A    between atoms: C_45  and  C_46
REMARK   27  A    between atoms: C_45  and  O_47
REMARK                            x       y       z     vdW  Elec       q    Type
REMARK                         _______ _______ _______ _____ _____    ______ ____
ROOT
ATOM      1  C   UNL     1     148.122 168.056 189.093  0.00  0.00    -0.035 C 
ATOM      2  H   UNL     1     148.932 168.711 189.443  0.00  0.00    +0.028 HD
ATOM      3  H   UNL     1     147.806 167.475 189.967  0.00  0.00    +0.028 HD
ENDROOT
BRANCH   1   4
ATOM      4  C   UNL     1     148.678 167.146 188.001  0.00  0.00    +0.012 C 
ATOM      5  H   UNL     1     148.247 166.140 188.049  0.00  0.00    +0.046 HD
ATOM      6  H   UNL     1     148.436 167.548 187.008  0.00  0.00    +0.046 HD
BRANCH   4   9
ATOM      7  C   UNL     1     150.685 165.722 188.112  0.00  0.00    +0.218 C 
ATOM      8  O   UNL     1     150.067 164.688 187.868  0.00  0.00    -0.275 OA
ATOM      9  N   UNL     1     150.109 166.969 188.103  0.00  0.00    -0.315 N 
ATOM     10  H   UNL     1     150.693 167.751 188.401  0.00  0.00    +0.149 HD
BRANCH   7  11
ATOM     11  C   UNL     1     152.166 165.698 188.479  0.00  0.00    +0.060 C 
ATOM     12  H   UNL     1     152.354 166.621 189.045  0.00  0.00    +0.042 HD
BRANCH  11  13
ATOM     13  C   UNL     1     152.465 164.510 189.392  0.00  0.00    -0.052 C 
ATOM     14  H   UNL     1     151.559 163.992 189.714  0.00  0.00    +0.024 HD
ATOM     15  H   UNL     1     153.106 163.787 188.876  0.00  0.00    +0.024 HD
ATOM     16  H   UNL     1     152.988 164.840 190.295  0.00  0.00    +0.024 HD
ENDBRANCH  11  13
BRANCH  11  17
ATOM     17  C   UNL     1     153.062 165.729 187.221  0.00  0.00    +0.081 C 
ATOM     18  H   UNL     1     153.661 164.815 187.206  0.00  0.00    +0.062 HD
BRANCH  17  19
ATOM     19  C   UNL     1     153.986 166.967 187.192  0.00  0.00    +0.038 C 
ATOM     20  H   UNL     1     153.546 167.769 186.593  0.00  0.00    +0.049 HD
ATOM     21  H   UNL     1     154.158 167.341 188.209  0.00  0.00    +0.049 HD
BRANCH  19  24
ATOM     22  C   UNL     1     155.598 166.630 185.298  0.00  0.00    +0.216 C 
ATOM     23  O   UNL     1     154.726 166.531 184.440  0.00  0.00    -0.276 OA
ATOM     24  N   UNL     1     155.318 166.745 186.643  0.00  0.00    -0.313 N 
ATOM     25  H   UNL     1     156.100 166.832 187.281  0.00  0.00    +0.149 HD
BRANCH  22  26
ATOM     26  C   UNL     1     157.077 166.729 184.987  0.00  0.00    +0.050 C 
ATOM     27  H   UNL     1     157.565 166.036 185.687  0.00  0.00    +0.038 HD
ATOM     28  H   UNL     1     157.249 166.377 183.964  0.00  0.00    +0.038 HD
BRANCH  26  33
ATOM     29  C   UNL     1     157.911 170.203 183.902  0.00  0.00    +0.066 C 
ATOM     30  C   UNL     1     159.370 170.330 184.361  0.00  0.00    -0.026 C 
ATOM     31  C   UNL     1     159.636 169.579 185.663  0.00  0.00    -0.046 C 
ATOM     32  C   UNL     1     159.119 168.136 185.599  0.00  0.00    -0.017 C 
ATOM     33  C   UNL     1     157.633 168.146 185.169  0.00  0.00    +0.070 C 
ATOM     34  O   UNL     1     157.482 168.832 183.917  0.00  0.00    -0.372 OA
ATOM     35  H   UNL     1     157.872 170.498 182.847  0.00  0.00    +0.060 HD
ATOM     36  H   UNL     1     159.667 171.379 184.466  0.00  0.00    +0.029 HD
ATOM     37  H   UNL     1     160.015 169.905 183.580  0.00  0.00    +0.029 HD
ATOM     38  H   UNL     1     159.138 170.102 186.491  0.00  0.00    +0.027 HD
ATOM     39  H   UNL     1     160.711 169.598 185.888  0.00  0.00    +0.027 HD
ATOM     40  H   UNL     1     159.193 167.708 186.609  0.00  0.00    +0.032 HD
ATOM     41  H   UNL     1     157.061 168.683 185.938  0.00  0.00    +0.060 HD
BRANCH  32  42
ATOM     42  C   UNL     1     160.012 167.287 184.677  0.00  0.00    -0.060 C 
ATOM     43  H   UNL     1     160.306 166.341 185.148  0.00  0.00    +0.023 HD
ATOM     44  H   UNL     1     160.926 167.828 184.413  0.00  0.00    +0.023 HD
ATOM     45  H   UNL     1     159.488 167.056 183.741  0.00  0.00    +0.023 HD
ENDBRANCH  32  42
BRANCH  29  46
ATOM     46  C   UNL     1     156.942 171.100 184.683  0.00  0.00    +0.036 C 
ATOM     47  H   UNL     1     157.191 171.115 185.750  0.00  0.00    +0.037 HD
ATOM     48  H   UNL     1     155.918 170.704 184.603  0.00  0.00    +0.037 HD
BRANCH  46  49
ATOM     49  C   UNL     1     156.934 172.514 184.133  0.00  0.00    +0.158 C 
ATOM     50  O   UNL     1     157.965 173.151 183.940  0.00  0.00    -0.293 OA
BRANCH  49  52
ATOM     51  C   UNL     1     154.991 172.795 182.647  0.00  0.00    -0.084 C 
ATOM     52  C   UNL     1     155.599 173.097 183.803  0.00  0.00    -0.023 C 
ATOM     53  H   UNL     1     155.471 172.114 181.944  0.00  0.00    +0.057 HD
ATOM     54  H   UNL     1     155.157 173.770 184.527  0.00  0.00    +0.065 HD
BRANCH  51  55
ATOM     55  C   UNL     1     153.658 173.327 182.230  0.00  0.00    -0.046 C 
ATOM     56  H   UNL     1     153.181 173.837 183.074  0.00  0.00    +0.027 HD
ATOM     57  H   UNL     1     152.984 172.540 181.879  0.00  0.00    +0.027 HD
ATOM     58  H   UNL     1     153.785 174.053 181.421  0.00  0.00    +0.027 HD
ENDBRANCH  51  55
ENDBRANCH  49  52
ENDBRANCH  46  49
ENDBRANCH  29  46
ENDBRANCH  26  33
ENDBRANCH  22  26
ENDBRANCH  19  24
ENDBRANCH  17  19
BRANCH  17  59
ATOM     59  O   UNL     1     152.224 165.706 186.059  0.00  0.00    -0.390 OA
ATOM     60  H   UNL     1     151.297 165.707 186.391  0.00  0.00    +0.210 HD
ENDBRANCH  17  59
ENDBRANCH  11  17
ENDBRANCH   7  11
ENDBRANCH   4   9
ENDBRANCH   1   4
BRANCH   1  61
ATOM     61  C   UNL     1     146.957 168.918 188.589  0.00  0.00    -0.025 C 
ATOM     62  H   UNL     1     147.312 169.460 187.701  0.00  0.00    +0.029 HD
ATOM     63  H   UNL     1     146.139 168.265 188.268  0.00  0.00    +0.029 HD
BRANCH  61  64
ATOM     64  C   UNL     1     146.471 169.944 189.633  0.00  0.00    +0.065 C 
ATOM     65  C   UNL     1     145.286 170.783 189.098  0.00  0.00    -0.017 C 
ATOM     66  C   UNL     1     145.184 172.132 189.829  0.00  0.00    -0.043 C 
ATOM     67  C   UNL     1     145.853 172.053 191.197  0.00  0.00    +0.002 C 
ATOM     68  C   UNL     1     147.346 171.664 191.066  0.00  0.00    +0.171 C 
ATOM     69  O   UNL     1     147.564 170.821 189.926  0.00  0.00    -0.345 OA
ATOM     70  C   UNL     1     148.202 172.934 190.852  0.00  0.00    +0.002 C 
ATOM     71  C   UNL     1     148.621 173.554 192.168  0.00  0.00    -0.046 C 
ATOM     72  C   UNL     1     149.374 172.547 193.032  0.00  0.00    -0.026 C 
ATOM     73  C   UNL     1     149.041 171.082 192.721  0.00  0.00    +0.062 C 
ATOM     74  O   UNL     1     147.685 170.974 192.275  0.00  0.00    -0.345 OA
ATOM     75  H   UNL     1     146.182 169.421 190.551  0.00  0.00    +0.060 HD
ATOM     76  H   UNL     1     145.448 171.000 188.033  0.00  0.00    +0.032 HD
ATOM     77  H   UNL     1     145.685 172.903 189.226  0.00  0.00    +0.027 HD
ATOM     78  H   UNL     1     144.144 172.455 189.938  0.00  0.00    +0.027 HD
ATOM     79  H   UNL     1     145.324 171.313 191.811  0.00  0.00    +0.032 HD
ATOM     80  H   UNL     1     145.743 173.000 191.735  0.00  0.00    +0.032 HD
ATOM     81  H   UNL     1     147.663 173.668 190.241  0.00  0.00    +0.032 HD
ATOM     82  H   UNL     1     149.101 172.703 190.269  0.00  0.00    +0.032 HD
ATOM     83  H   UNL     1     147.735 173.904 192.710  0.00  0.00    +0.027 HD
ATOM     84  H   UNL     1     149.249 174.437 191.995  0.00  0.00    +0.027 HD
ATOM     85  H   UNL     1     149.108 172.752 194.079  0.00  0.00    +0.029 HD
ATOM     86  H   UNL     1     150.450 172.739 192.975  0.00  0.00    +0.029 HD
ATOM     87  H   UNL     1     149.077 170.545 193.676  0.00  0.00    +0.060 HD
BRANCH  65  88
ATOM     88  C   UNL     1     143.966 170.011 189.211  0.00  0.00    -0.060 C 
ATOM     89  H   UNL     1     143.369 170.109 188.297  0.00  0.00    +0.023 HD
ATOM     90  H   UNL     1     143.358 170.363 190.049  0.00  0.00    +0.023 HD
ATOM     91  H   UNL     1     144.155 168.942 189.372  0.00  0.00    +0.023 HD
ENDBRANCH  65  88
BRANCH  73  92
ATOM     92  C   UNL     1     150.012 170.346 191.781  0.00  0.00    -0.026 C 
ATOM     93  H   UNL     1     149.486 169.470 191.382  0.00  0.00    +0.029 HD
ATOM     94  H   UNL     1     150.253 170.963 190.914  0.00  0.00    +0.029 HD
BRANCH  92  95
ATOM     95  C   UNL     1     151.321 169.886 192.440  0.00  0.00    -0.045 C 
ATOM     96  H   UNL     1     152.173 170.334 191.918  0.00  0.00    +0.027 HD
ATOM     97  H   UNL     1     151.344 170.266 193.462  0.00  0.00    +0.027 HD
BRANCH  95  98
ATOM     98  C   UNL     1     151.495 168.351 192.414  0.00  0.00    -0.025 C 
ATOM     99  H   UNL     1     152.235 168.113 193.191  0.00  0.00    +0.034 HD
BRANCH  98 100
ATOM    100  C   UNL     1     152.056 167.815 191.097  0.00  0.00    -0.059 C 
ATOM    101  H   UNL     1     151.458 168.161 190.249  0.00  0.00    +0.024 HD
ATOM    102  H   UNL     1     152.067 166.724 191.079  0.00  0.00    +0.024 HD
ATOM    103  H   UNL     1     153.081 168.160 190.935  0.00  0.00    +0.024 HD
ENDBRANCH  98 100
BRANCH  98 104
ATOM    104  C   UNL     1     150.249 167.584 192.821  0.00  0.00    -0.080 C 
ATOM    105  C   UNL     1     150.104 166.483 193.593  0.00  0.00    -0.048 C 
ATOM    106  H   UNL     1     149.348 168.038 192.407  0.00  0.00    +0.058 HD
BRANCH 105 107
ATOM    107  C   UNL     1     151.246 165.833 194.326  0.00  0.00    -0.041 C 
ATOM    108  H   UNL     1     152.222 166.191 193.993  0.00  0.00    +0.028 HD
ATOM    109  H   UNL     1     151.195 166.055 195.398  0.00  0.00    +0.028 HD
ATOM    110  H   UNL     1     151.204 164.744 194.198  0.00  0.00    +0.028 HD
ENDBRANCH 105 107
BRANCH 105 111
ATOM    111  C   UNL     1     148.747 165.828 193.845  0.00  0.00    +0.073 C 
ATOM    112  H   UNL     1     148.531 165.132 193.028  0.00  0.00    +0.064 HD
BRANCH 111 113
ATOM    113  C   UNL     1     147.605 166.839 193.956  0.00  0.00    -0.035 C 
ATOM    114  H   UNL     1     147.080 166.722 194.910  0.00  0.00    +0.026 HD
ATOM    115  H   UNL     1     147.982 167.868 193.924  0.00  0.00    +0.026 HD
ATOM    116  H   UNL     1     146.877 166.711 193.148  0.00  0.00    +0.026 HD
ENDBRANCH 111 113
BRANCH 111 117
ATOM    117  O   UNL     1     148.756 165.060 195.049  0.00  0.00    -0.388 OA
ATOM    118  H   UNL     1     149.420 165.460 195.637  0.00  0.00    +0.210 HD
ENDBRANCH 111 117
ENDBRANCH 105 111
ENDBRANCH  98 104
ENDBRANCH  95  98
ENDBRANCH  92  95
ENDBRANCH  73  92
ENDBRANCH  61  64
ENDBRANCH   1  61
TORSDOF 27
ENDMDL
MODEL 9
REMARK VINA RESULT:      -6.1      2.581      8.470
REMARK  Name = Bistramide A_conf1
REMARK  27 active torsions:
REMARK  status: ('A' for Active; 'I' for Inactive)
REMARK    1  A    between atoms: C_1  and  C_2
REMARK    2  A    between atoms: C_3  and  C_4
REMARK    3  A    between atoms: C_4  and  C_6
REMARK    4  A    between atoms: C_6  and  C_7
REMARK    5  A    between atoms: C_10  and  C_50
REMARK    6  A    between atoms: C_11  and  C_13
REMARK    7  A    between atoms: C_13  and  C_14
REMARK    8  A    between atoms: N_16  and  C_17
REMARK    9  A    between atoms: C_17  and  C_18
REMARK   10  A    between atoms: C_18  and  C_19
REMARK   11  A    between atoms: C_18  and  O_49
REMARK   12  A    between atoms: C_19  and  C_20
REMARK   13  A    between atoms: C_19  and  C_21
REMARK   14  A    between atoms: N_23  and  C_24
REMARK   15  A    between atoms: C_24  and  C_25
REMARK   16  A    between atoms: C_25  and  C_26
REMARK   17  A    between atoms: C_26  and  C_27
REMARK   18  A    between atoms: C_28  and  C_48
REMARK   19  A    between atoms: C_36  and  C_38
REMARK   20  A    between atoms: C_38  and  C_39
REMARK   21  A    between atoms: C_39  and  C_40
REMARK   22  A    between atoms: C_40  and  C_41
REMARK   23  A    between atoms: C_40  and  C_42
REMARK   24  A    between atoms: C_43  and  C_44
REMARK   25  A    between atoms: C_43  and  C_45
REMARK   26  A    between atoms: C_45  and  C_46
REMARK   27  A    between atoms: C_45  and  O_47
REMARK                            x       y       z     vdW  Elec       q    Type
REMARK                         _______ _______ _______ _____ _____    ______ ____
ROOT
ATOM      1  C   UNL     1     147.414 167.525 189.438  0.00  0.00    -0.035 C 
ATOM      2  H   UNL     1     147.030 166.729 188.784  0.00  0.00    +0.028 HD
ATOM      3  H   UNL     1     148.495 167.362 189.508  0.00  0.00    +0.028 HD
ENDROOT
BRANCH   1   4
ATOM      4  C   UNL     1     146.749 167.387 190.805  0.00  0.00    +0.012 C 
ATOM      5  H   UNL     1     147.438 166.985 191.556  0.00  0.00    +0.046 HD
ATOM      6  H   UNL     1     146.419 168.369 191.170  0.00  0.00    +0.046 HD
BRANCH   4   9
ATOM      7  C   UNL     1     144.473 166.744 191.497  0.00  0.00    +0.218 C 
ATOM      8  O   UNL     1     144.253 167.813 192.061  0.00  0.00    -0.275 OA
ATOM      9  N   UNL     1     145.618 166.487 190.782  0.00  0.00    -0.315 N 
ATOM     10  H   UNL     1     145.737 165.538 190.425  0.00  0.00    +0.149 HD
BRANCH   7  11
ATOM     11  C   UNL     1     143.484 165.585 191.570  0.00  0.00    +0.060 C 
ATOM     12  H   UNL     1     144.090 164.674 191.675  0.00  0.00    +0.042 HD
BRANCH  11  13
ATOM     13  C   UNL     1     142.605 165.718 192.813  0.00  0.00    -0.052 C 
ATOM     14  H   UNL     1     142.197 164.759 193.140  0.00  0.00    +0.024 HD
ATOM     15  H   UNL     1     143.181 166.144 193.641  0.00  0.00    +0.024 HD
ATOM     16  H   UNL     1     141.757 166.382 192.616  0.00  0.00    +0.024 HD
ENDBRANCH  11  13
BRANCH  11  17
ATOM     17  C   UNL     1     142.666 165.455 190.267  0.00  0.00    +0.081 C 
ATOM     18  H   UNL     1     141.605 165.445 190.529  0.00  0.00    +0.062 HD
BRANCH  17  19
ATOM     19  C   UNL     1     143.027 164.178 189.475  0.00  0.00    +0.038 C 
ATOM     20  H   UNL     1     142.822 163.281 190.066  0.00  0.00    +0.049 HD
ATOM     21  H   UNL     1     142.447 164.126 188.545  0.00  0.00    +0.049 HD
BRANCH  19  24
ATOM     22  C   UNL     1     145.079 162.877 188.844  0.00  0.00    +0.216 C 
ATOM     23  O   UNL     1     144.607 161.788 189.155  0.00  0.00    -0.276 OA
ATOM     24  N   UNL     1     144.419 164.069 189.056  0.00  0.00    -0.313 N 
ATOM     25  H   UNL     1     144.879 164.921 188.760  0.00  0.00    +0.149 HD
BRANCH  22  26
ATOM     26  C   UNL     1     146.394 163.048 188.113  0.00  0.00    +0.050 C 
ATOM     27  H   UNL     1     147.170 162.911 188.880  0.00  0.00    +0.038 HD
ATOM     28  H   UNL     1     146.491 162.251 187.367  0.00  0.00    +0.038 HD
BRANCH  26  33
ATOM     29  C   UNL     1     145.515 165.745 185.685  0.00  0.00    +0.066 C 
ATOM     30  C   UNL     1     146.891 166.107 185.111  0.00  0.00    -0.026 C 
ATOM     31  C   UNL     1     148.002 165.998 186.153  0.00  0.00    -0.046 C 
ATOM     32  C   UNL     1     147.959 164.650 186.885  0.00  0.00    -0.017 C 
ATOM     33  C   UNL     1     146.537 164.424 187.452  0.00  0.00    +0.070 C 
ATOM     34  O   UNL     1     145.565 164.499 186.400  0.00  0.00    -0.372 OA
ATOM     35  H   UNL     1     144.845 165.556 184.838  0.00  0.00    +0.060 HD
ATOM     36  H   UNL     1     146.890 167.109 184.668  0.00  0.00    +0.029 HD
ATOM     37  H   UNL     1     147.117 165.410 184.293  0.00  0.00    +0.029 HD
ATOM     38  H   UNL     1     147.890 166.808 186.886  0.00  0.00    +0.027 HD
ATOM     39  H   UNL     1     148.978 166.149 185.671  0.00  0.00    +0.027 HD
ATOM     40  H   UNL     1     148.670 164.702 187.722  0.00  0.00    +0.032 HD
ATOM     41  H   UNL     1     146.332 165.218 188.182  0.00  0.00    +0.060 HD
BRANCH  32  42
ATOM     42  C   UNL     1     148.429 163.519 185.954  0.00  0.00    -0.060 C 
ATOM     43  H   UNL     1     148.420 163.824 184.901  0.00  0.00    +0.023 HD
ATOM     44  H   UNL     1     147.784 162.640 186.054  0.00  0.00    +0.023 HD
ATOM     45  H   UNL     1     149.448 163.206 186.212  0.00  0.00    +0.023 HD
ENDBRANCH  32  42
BRANCH  29  46
ATOM     46  C   UNL     1     144.896 166.856 186.542  0.00  0.00    +0.036 C 
ATOM     47  H   UNL     1     145.654 167.341 187.168  0.00  0.00    +0.037 HD
ATOM     48  H   UNL     1     144.149 166.428 187.227  0.00  0.00    +0.037 HD
BRANCH  46  49
ATOM     49  C   UNL     1     144.195 167.891 185.682  0.00  0.00    +0.158 C 
ATOM     50  O   UNL     1     143.289 167.599 184.908  0.00  0.00    -0.293 OA
BRANCH  49  52
ATOM     51  C   UNL     1     145.869 169.683 185.459  0.00  0.00    -0.084 C 
ATOM     52  C   UNL     1     144.640 169.307 185.842  0.00  0.00    -0.023 C 
ATOM     53  H   UNL     1     146.548 168.950 185.021  0.00  0.00    +0.057 HD
ATOM     54  H   UNL     1     143.938 170.003 186.284  0.00  0.00    +0.065 HD
BRANCH  51  55
ATOM     55  C   UNL     1     146.403 171.074 185.579  0.00  0.00    -0.046 C 
ATOM     56  H   UNL     1     145.689 171.700 186.125  0.00  0.00    +0.027 HD
ATOM     57  H   UNL     1     146.589 171.536 184.604  0.00  0.00    +0.027 HD
ATOM     58  H   UNL     1     147.344 171.063 186.136  0.00  0.00    +0.027 HD
ENDBRANCH  51  55
ENDBRANCH  49  52
ENDBRANCH  46  49
ENDBRANCH  29  46
ENDBRANCH  26  33
ENDBRANCH  22  26
ENDBRANCH  19  24
ENDBRANCH  17  19
BRANCH  17  59
ATOM     59  O   UNL     1     142.892 166.620 189.463  0.00  0.00    -0.390 OA
ATOM     60  H   UNL     1     143.074 166.291 188.553  0.00  0.00    +0.210 HD
ENDBRANCH  17  59
ENDBRANCH  11  17
ENDBRANCH   7  11
ENDBRANCH   4   9
ENDBRANCH   1   4
BRANCH   1  61
ATOM     61  C   UNL     1     147.132 168.889 188.793  0.00  0.00    -0.025 C 
ATOM     62  H   UNL     1     148.071 169.239 188.344  0.00  0.00    +0.029 HD
ATOM     63  H   UNL     1     146.410 168.760 187.980  0.00  0.00    +0.029 HD
BRANCH  61  64
ATOM     64  C   UNL     1     146.644 169.944 189.806  0.00  0.00    +0.065 C 
ATOM     65  C   UNL     1     145.442 170.749 189.257  0.00  0.00    -0.017 C 
ATOM     66  C   UNL     1     145.332 172.122 189.941  0.00  0.00    -0.043 C 
ATOM     67  C   UNL     1     146.017 172.099 191.302  0.00  0.00    +0.002 C 
ATOM     68  C   UNL     1     147.513 171.725 191.168  0.00  0.00    +0.171 C 
ATOM     69  O   UNL     1     147.729 170.845 190.055  0.00  0.00    -0.345 OA
ATOM     70  C   UNL     1     148.350 172.997 190.899  0.00  0.00    +0.002 C 
ATOM     71  C   UNL     1     148.776 173.669 192.188  0.00  0.00    -0.046 C 
ATOM     72  C   UNL     1     149.552 172.702 193.078  0.00  0.00    -0.026 C 
ATOM     73  C   UNL     1     149.234 171.222 192.822  0.00  0.00    +0.062 C 
ATOM     74  O   UNL     1     147.875 171.082 192.396  0.00  0.00    -0.345 OA
ATOM     75  H   UNL     1     146.373 169.451 190.745  0.00  0.00    +0.060 HD
ATOM     76  H   UNL     1     145.590 170.931 188.182  0.00  0.00    +0.032 HD
ATOM     77  H   UNL     1     145.815 172.878 189.306  0.00  0.00    +0.027 HD
ATOM     78  H   UNL     1     144.288 172.435 190.051  0.00  0.00    +0.027 HD
ATOM     79  H   UNL     1     145.504 171.375 191.948  0.00  0.00    +0.032 HD
ATOM     80  H   UNL     1     145.900 173.063 191.808  0.00  0.00    +0.032 HD
ATOM     81  H   UNL     1     147.795 173.702 190.269  0.00  0.00    +0.032 HD
ATOM     82  H   UNL     1     149.245 172.757 190.315  0.00  0.00    +0.032 HD
ATOM     83  H   UNL     1     147.892 174.026 192.728  0.00  0.00    +0.027 HD
ATOM     84  H   UNL     1     149.391 174.553 191.977  0.00  0.00    +0.027 HD
ATOM     85  H   UNL     1     149.294 172.940 194.120  0.00  0.00    +0.029 HD
ATOM     86  H   UNL     1     150.624 172.905 193.001  0.00  0.00    +0.029 HD
ATOM     87  H   UNL     1     149.287 170.720 193.795  0.00  0.00    +0.060 HD
BRANCH  65  88
ATOM     88  C   UNL     1     144.134 169.965 189.412  0.00  0.00    -0.060 C 
ATOM     89  H   UNL     1     143.437 170.192 188.597  0.00  0.00    +0.023 HD
ATOM     90  H   UNL     1     143.633 170.192 190.356  0.00  0.00    +0.023 HD
ATOM     91  H   UNL     1     144.326 168.885 189.395  0.00  0.00    +0.023 HD
ENDBRANCH  65  88
BRANCH  73  92
ATOM     92  C   UNL     1     150.204 170.466 191.897  0.00  0.00    -0.026 C 
ATOM     93  H   UNL     1     149.601 169.846 191.222  0.00  0.00    +0.029 HD
ATOM     94  H   UNL     1     150.744 171.161 191.253  0.00  0.00    +0.029 HD
BRANCH  92  95
ATOM     95  C   UNL     1     151.221 169.572 192.623  0.00  0.00    -0.045 C 
ATOM     96  H   UNL     1     152.236 169.840 192.310  0.00  0.00    +0.027 HD
ATOM     97  H   UNL     1     151.158 169.778 193.693  0.00  0.00    +0.027 HD
BRANCH  95  98
ATOM     98  C   UNL     1     151.009 168.070 192.332  0.00  0.00    -0.025 C 
ATOM     99  H   UNL     1     151.852 167.545 192.803  0.00  0.00    +0.034 HD
BRANCH  98 100
ATOM    100  C   UNL     1     151.049 167.718 190.846  0.00  0.00    -0.059 C 
ATOM    101  H   UNL     1     150.512 166.784 190.651  0.00  0.00    +0.024 HD
ATOM    102  H   UNL     1     152.073 167.597 190.487  0.00  0.00    +0.024 HD
ATOM    103  H   UNL     1     150.577 168.497 190.241  0.00  0.00    +0.024 HD
ENDBRANCH  98 100
BRANCH  98 104
ATOM    104  C   UNL     1     149.774 167.484 192.992  0.00  0.00    -0.080 C 
ATOM    105  C   UNL     1     149.646 166.491 193.901  0.00  0.00    -0.048 C 
ATOM    106  H   UNL     1     148.865 167.983 192.651  0.00  0.00    +0.058 HD
BRANCH 105 107
ATOM    107  C   UNL     1     150.821 165.808 194.547  0.00  0.00    -0.041 C 
ATOM    108  H   UNL     1     150.666 164.736 194.682  0.00  0.00    +0.028 HD
ATOM    109  H   UNL     1     151.717 165.905 193.923  0.00  0.00    +0.028 HD
ATOM    110  H   UNL     1     151.031 166.263 195.523  0.00  0.00    +0.028 HD
ENDBRANCH 105 107
BRANCH 105 111
ATOM    111  C   UNL     1     148.288 166.011 194.410  0.00  0.00    +0.073 C 
ATOM    112  H   UNL     1     147.508 166.677 194.026  0.00  0.00    +0.064 HD
BRANCH 111 113
ATOM    113  C   UNL     1     148.202 165.967 195.936  0.00  0.00    -0.035 C 
ATOM    114  H   UNL     1     147.988 164.949 196.280  0.00  0.00    +0.026 HD
ATOM    115  H   UNL     1     149.151 166.266 196.396  0.00  0.00    +0.026 HD
ATOM    116  H   UNL     1     147.412 166.626 196.312  0.00  0.00    +0.026 HD
ENDBRANCH 111 113
BRANCH 111 117
ATOM    117  O   UNL     1     147.985 164.701 193.927  0.00  0.00    -0.388 OA
ATOM    118  H   UNL     1     148.720 164.123 194.193  0.00  0.00    +0.210 HD
ENDBRANCH 111 117
ENDBRANCH 105 111
ENDBRANCH  98 104
ENDBRANCH  95  98
ENDBRANCH  92  95
ENDBRANCH  73  92
ENDBRANCH  61  64
ENDBRANCH   1  61
TORSDOF 27
ENDMDL
MODEL 10
REMARK VINA RESULT:      -6.1      1.809      2.959
REMARK  Name = Bistramide A_conf1
REMARK  27 active torsions:
REMARK  status: ('A' for Active; 'I' for Inactive)
REMARK    1  A    between atoms: C_1  and  C_2
REMARK    2  A    between atoms: C_3  and  C_4
REMARK    3  A    between atoms: C_4  and  C_6
REMARK    4  A    between atoms: C_6  and  C_7
REMARK    5  A    between atoms: C_10  and  C_50
REMARK    6  A    between atoms: C_11  and  C_13
REMARK    7  A    between atoms: C_13  and  C_14
REMARK    8  A    between atoms: N_16  and  C_17
REMARK    9  A    between atoms: C_17  and  C_18
REMARK   10  A    between atoms: C_18  and  C_19
REMARK   11  A    between atoms: C_18  and  O_49
REMARK   12  A    between atoms: C_19  and  C_20
REMARK   13  A    between atoms: C_19  and  C_21
REMARK   14  A    between atoms: N_23  and  C_24
REMARK   15  A    between atoms: C_24  and  C_25
REMARK   16  A    between atoms: C_25  and  C_26
REMARK   17  A    between atoms: C_26  and  C_27
REMARK   18  A    between atoms: C_28  and  C_48
REMARK   19  A    between atoms: C_36  and  C_38
REMARK   20  A    between atoms: C_38  and  C_39
REMARK   21  A    between atoms: C_39  and  C_40
REMARK   22  A    between atoms: C_40  and  C_41
REMARK   23  A    between atoms: C_40  and  C_42
REMARK   24  A    between atoms: C_43  and  C_44
REMARK   25  A    between atoms: C_43  and  C_45
REMARK   26  A    between atoms: C_45  and  C_46
REMARK   27  A    between atoms: C_45  and  O_47
REMARK                            x       y       z     vdW  Elec       q    Type
REMARK                         _______ _______ _______ _____ _____    ______ ____
ROOT
ATOM      1  C   UNL     1     151.121 169.551 191.454  0.00  0.00    -0.035 C 
ATOM      2  H   UNL     1     152.201 169.352 191.418  0.00  0.00    +0.028 HD
ATOM      3  H   UNL     1     150.893 170.137 190.556  0.00  0.00    +0.028 HD
ENDROOT
BRANCH   1   4
ATOM      4  C   UNL     1     150.821 170.348 192.720  0.00  0.00    +0.012 C 
ATOM      5  H   UNL     1     150.407 169.715 193.513  0.00  0.00    +0.046 HD
ATOM      6  H   UNL     1     151.742 170.794 193.119  0.00  0.00    +0.046 HD
BRANCH   4   9
ATOM      7  C   UNL     1     148.496 171.139 192.518  0.00  0.00    +0.218 C 
ATOM      8  O   UNL     1     148.013 170.071 192.884  0.00  0.00    -0.275 OA
ATOM      9  N   UNL     1     149.847 171.392 192.499  0.00  0.00    -0.315 N 
ATOM     10  H   UNL     1     150.145 172.283 192.098  0.00  0.00    +0.149 HD
BRANCH   7  11
ATOM     11  C   UNL     1     147.618 172.282 192.019  0.00  0.00    +0.060 C 
ATOM     12  H   UNL     1     146.721 172.276 192.654  0.00  0.00    +0.042 HD
BRANCH  11  13
ATOM     13  C   UNL     1     148.331 173.620 192.214  0.00  0.00    -0.052 C 
ATOM     14  H   UNL     1     149.304 173.650 191.720  0.00  0.00    +0.024 HD
ATOM     15  H   UNL     1     147.720 174.437 191.816  0.00  0.00    +0.024 HD
ATOM     16  H   UNL     1     148.501 173.814 193.278  0.00  0.00    +0.024 HD
ENDBRANCH  11  13
BRANCH  11  17
ATOM     17  C   UNL     1     147.162 172.052 190.562  0.00  0.00    +0.081 C 
ATOM     18  H   UNL     1     147.385 172.955 189.988  0.00  0.00    +0.062 HD
BRANCH  17  19
ATOM     19  C   UNL     1     145.654 171.725 190.466  0.00  0.00    +0.038 C 
ATOM     20  H   UNL     1     145.136 172.001 191.389  0.00  0.00    +0.049 HD
ATOM     21  H   UNL     1     145.196 172.266 189.630  0.00  0.00    +0.049 HD
BRANCH  19  24
ATOM     22  C   UNL     1     144.153 169.720 190.623  0.00  0.00    +0.216 C 
ATOM     23  O   UNL     1     143.337 170.261 191.363  0.00  0.00    -0.276 OA
ATOM     24  N   UNL     1     145.328 170.323 190.230  0.00  0.00    -0.313 N 
ATOM     25  H   UNL     1     145.939 169.807 189.610  0.00  0.00    +0.149 HD
BRANCH  22  26
ATOM     26  C   UNL     1     143.935 168.366 189.978  0.00  0.00    +0.050 C 
ATOM     27  H   UNL     1     142.863 168.158 190.102  0.00  0.00    +0.038 HD
ATOM     28  H   UNL     1     144.159 168.443 188.908  0.00  0.00    +0.038 HD
BRANCH  26  33
ATOM     29  C   UNL     1     146.615 166.995 192.187  0.00  0.00    +0.066 C 
ATOM     30  C   UNL     1     147.322 166.012 191.245  0.00  0.00    -0.026 C 
ATOM     31  C   UNL     1     146.352 165.333 190.280  0.00  0.00    -0.046 C 
ATOM     32  C   UNL     1     145.456 166.355 189.568  0.00  0.00    -0.017 C 
ATOM     33  C   UNL     1     144.770 167.255 190.624  0.00  0.00    +0.070 C 
ATOM     34  O   UNL     1     145.756 167.885 191.456  0.00  0.00    -0.372 OA
ATOM     35  H   UNL     1     147.385 167.643 192.622  0.00  0.00    +0.060 HD
ATOM     36  H   UNL     1     147.885 165.256 191.803  0.00  0.00    +0.029 HD
ATOM     37  H   UNL     1     148.060 166.571 190.654  0.00  0.00    +0.029 HD
ATOM     38  H   UNL     1     145.720 164.630 190.838  0.00  0.00    +0.027 HD
ATOM     39  H   UNL     1     146.913 164.733 189.551  0.00  0.00    +0.027 HD
ATOM     40  H   UNL     1     144.682 165.799 189.021  0.00  0.00    +0.032 HD
ATOM     41  H   UNL     1     144.134 166.617 191.251  0.00  0.00    +0.060 HD
BRANCH  32  42
ATOM     42  C   UNL     1     146.268 167.150 188.530  0.00  0.00    -0.060 C 
ATOM     43  H   UNL     1     146.864 167.944 188.996  0.00  0.00    +0.023 HD
ATOM     44  H   UNL     1     145.607 167.616 187.792  0.00  0.00    +0.023 HD
ATOM     45  H   UNL     1     146.949 166.486 187.984  0.00  0.00    +0.023 HD
ENDBRANCH  32  42
BRANCH  29  46
ATOM     46  C   UNL     1     145.864 166.311 193.336  0.00  0.00    +0.036 C 
ATOM     47  H   UNL     1     145.113 165.610 192.954  0.00  0.00    +0.037 HD
ATOM     48  H   UNL     1     145.320 167.064 193.928  0.00  0.00    +0.037 HD
BRANCH  46  49
ATOM     49  C   UNL     1     146.818 165.591 194.269  0.00  0.00    +0.158 C 
ATOM     50  O   UNL     1     146.959 164.373 194.255  0.00  0.00    -0.293 OA
BRANCH  49  52
ATOM     51  C   UNL     1     147.715 166.128 196.499  0.00  0.00    -0.084 C 
ATOM     52  C   UNL     1     147.616 166.445 195.200  0.00  0.00    -0.023 C 
ATOM     53  H   UNL     1     147.213 165.237 196.879  0.00  0.00    +0.057 HD
ATOM     54  H   UNL     1     148.096 167.321 194.783  0.00  0.00    +0.065 HD
BRANCH  51  55
ATOM     55  C   UNL     1     148.488 166.919 197.504  0.00  0.00    -0.046 C 
ATOM     56  H   UNL     1     149.083 166.245 198.129  0.00  0.00    +0.027 HD
ATOM     57  H   UNL     1     147.841 167.511 198.159  0.00  0.00    +0.027 HD
ATOM     58  H   UNL     1     149.172 167.603 196.992  0.00  0.00    +0.027 HD
ENDBRANCH  51  55
ENDBRANCH  49  52
ENDBRANCH  46  49
ENDBRANCH  29  46
ENDBRANCH  26  33
ENDBRANCH  22  26
ENDBRANCH  19  24
ENDBRANCH  17  19
BRANCH  17  59
ATOM     59  O   UNL     1     147.939 170.989 189.998  0.00  0.00    -0.390 OA
ATOM     60  H   UNL     1     148.880 171.207 190.192  0.00  0.00    +0.210 HD
ENDBRANCH  17  59
ENDBRANCH  11  17
ENDBRANCH   7  11
ENDBRANCH   4   9
ENDBRANCH   1   4
BRANCH   1  61
ATOM     61  C   UNL     1     150.360 168.219 191.416  0.00  0.00    -0.025 C 
ATOM     62  H   UNL     1     149.764 168.156 192.337  0.00  0.00    +0.029 HD
ATOM     63  H   UNL     1     149.660 168.228 190.574  0.00  0.00    +0.029 HD
BRANCH  61  64
ATOM     64  C   UNL     1     151.294 166.993 191.348  0.00  0.00    +0.065 C 
ATOM     65  C   UNL     1     152.108 166.824 192.653  0.00  0.00    -0.017 C 
ATOM     66  C   UNL     1     153.403 166.033 192.404  0.00  0.00    -0.043 C 
ATOM     67  C   UNL     1     153.270 165.167 191.156  0.00  0.00    +0.002 C 
ATOM     68  C   UNL     1     152.962 166.030 189.908  0.00  0.00    +0.171 C 
ATOM     69  O   UNL     1     152.203 167.196 190.260  0.00  0.00    -0.345 OA
ATOM     70  C   UNL     1     154.282 166.531 189.278  0.00  0.00    +0.002 C 
ATOM     71  C   UNL     1     154.838 165.535 188.281  0.00  0.00    -0.046 C 
ATOM     72  C   UNL     1     153.816 165.221 187.193  0.00  0.00    -0.026 C 
ATOM     73  C   UNL     1     152.358 165.447 187.618  0.00  0.00    +0.062 C 
ATOM     74  O   UNL     1     152.214 165.191 189.019  0.00  0.00    -0.345 OA
ATOM     75  H   UNL     1     150.702 166.094 191.150  0.00  0.00    +0.060 HD
ATOM     76  H   UNL     1     152.399 167.815 193.029  0.00  0.00    +0.032 HD
ATOM     77  H   UNL     1     154.233 166.740 192.266  0.00  0.00    +0.027 HD
ATOM     78  H   UNL     1     153.668 165.411 193.266  0.00  0.00    +0.027 HD
ATOM     79  H   UNL     1     152.469 164.434 191.314  0.00  0.00    +0.032 HD
ATOM     80  H   UNL     1     154.175 164.570 191.003  0.00  0.00    +0.032 HD
ATOM     81  H   UNL     1     155.026 166.748 190.053  0.00  0.00    +0.032 HD
ATOM     82  H   UNL     1     154.130 167.490 188.770  0.00  0.00    +0.032 HD
ATOM     83  H   UNL     1     155.110 164.609 188.798  0.00  0.00    +0.027 HD
ATOM     84  H   UNL     1     155.759 165.920 187.825  0.00  0.00    +0.027 HD
ATOM     85  H   UNL     1     153.941 164.163 186.922  0.00  0.00    +0.029 HD
ATOM     86  H   UNL     1     154.061 165.775 186.281  0.00  0.00    +0.029 HD
ATOM     87  H   UNL     1     151.766 164.672 187.118  0.00  0.00    +0.060 HD
BRANCH  65  88
ATOM     88  C   UNL     1     151.268 166.150 193.745  0.00  0.00    -0.060 C 
ATOM     89  H   UNL     1     151.896 165.558 194.419  0.00  0.00    +0.023 HD
ATOM     90  H   UNL     1     150.509 165.487 193.323  0.00  0.00    +0.023 HD
ATOM     91  H   UNL     1     150.746 166.901 194.350  0.00  0.00    +0.023 HD
ENDBRANCH  65  88
BRANCH  73  92
ATOM     92  C   UNL     1     151.730 166.792 187.214  0.00  0.00    -0.026 C 
ATOM     93  H   UNL     1     152.230 167.578 187.795  0.00  0.00    +0.029 HD
ATOM     94  H   UNL     1     151.944 167.020 186.169  0.00  0.00    +0.029 HD
BRANCH  92  95
ATOM     95  C   UNL     1     150.214 166.889 187.442  0.00  0.00    -0.045 C 
ATOM     96  H   UNL     1     149.860 165.986 187.951  0.00  0.00    +0.027 HD
ATOM     97  H   UNL     1     150.020 167.726 188.116  0.00  0.00    +0.027 HD
BRANCH  95  98
ATOM     98  C   UNL     1     149.421 167.041 186.126  0.00  0.00    -0.025 C 
ATOM     99  H   UNL     1     150.160 166.986 185.314  0.00  0.00    +0.034 HD
BRANCH  98 100
ATOM    100  C   UNL     1     148.713 168.388 185.983  0.00  0.00    -0.059 C 
ATOM    101  H   UNL     1     148.635 168.893 186.950  0.00  0.00    +0.024 HD
ATOM    102  H   UNL     1     147.706 168.274 185.580  0.00  0.00    +0.024 HD
ATOM    103  H   UNL     1     149.264 169.055 185.312  0.00  0.00    +0.024 HD
ENDBRANCH  98 100
BRANCH  98 104
ATOM    104  C   UNL     1     148.461 165.897 185.851  0.00  0.00    -0.080 C 
ATOM    105  C   UNL     1     148.228 165.193 184.720  0.00  0.00    -0.048 C 
ATOM    106  H   UNL     1     147.895 165.628 186.743  0.00  0.00    +0.058 HD
BRANCH 105 107
ATOM    107  C   UNL     1     149.025 165.376 183.456  0.00  0.00    -0.041 C 
ATOM    108  H   UNL     1     150.103 165.379 183.632  0.00  0.00    +0.028 HD
ATOM    109  H   UNL     1     148.838 164.553 182.757  0.00  0.00    +0.028 HD
ATOM    110  H   UNL     1     148.742 166.315 182.965  0.00  0.00    +0.028 HD
ENDBRANCH 105 107
BRANCH 105 111
ATOM    111  C   UNL     1     147.169 164.096 184.637  0.00  0.00    +0.073 C 
ATOM    112  H   UNL     1     146.876 163.806 185.651  0.00  0.00    +0.064 HD
BRANCH 111 113
ATOM    113  C   UNL     1     147.650 162.856 183.882  0.00  0.00    -0.035 C 
ATOM    114  H   UNL     1     148.204 162.188 184.551  0.00  0.00    +0.026 HD
ATOM    115  H   UNL     1     146.804 162.280 183.486  0.00  0.00    +0.026 HD
ATOM    116  H   UNL     1     148.307 163.124 183.048  0.00  0.00    +0.026 HD
ENDBRANCH 111 113
BRANCH 111 117
ATOM    117  O   UNL     1     145.987 164.562 183.984  0.00  0.00    -0.388 OA
ATOM    118  H   UNL     1     146.241 165.337 183.453  0.00  0.00    +0.210 HD
ENDBRANCH 111 117
ENDBRANCH 105 111
ENDBRANCH  98 104
ENDBRANCH  95  98
ENDBRANCH  92  95
ENDBRANCH  73  92
ENDBRANCH  61  64
ENDBRANCH   1  61
TORSDOF 27
ENDMDL
