MODEL 1
REMARK VINA RESULT:      -5.9      0.000      0.000
REMARK  Name = Bistramide A_conf2
REMARK  27 active torsions:
REMARK  status: ('A' for Active; 'I' for Inactive)
REMARK    1  A    between atoms: C_1  and  C_2
REMARK    2  A    between atoms: C_3  and  C_4
REMARK    3  A    between atoms: C_4  and  C_6
REMARK    4  A    between atoms: C_6  and  C_7
REMARK    5  A    between atoms: C_10  and  C_50
REMARK    6  A    between atoms: C_11  and  C_13
REMARK    7  A    between atoms: C_13  and  C_14
REMARK    8  A    between atoms: N_16  and  C_17
REMARK    9  A    between atoms: C_17  and  C_18
REMARK   10  A    between atoms: C_18  and  C_19
REMARK   11  A    between atoms: C_18  and  O_49
REMARK   12  A    between atoms: C_19  and  C_20
REMARK   13  A    between atoms: C_19  and  C_21
REMARK   14  A    between atoms: N_23  and  C_24
REMARK   15  A    between atoms: C_24  and  C_25
REMARK   16  A    between atoms: C_25  and  C_26
REMARK   17  A    between atoms: C_26  and  C_27
REMARK   18  A    between atoms: C_28  and  C_48
REMARK   19  A    between atoms: C_36  and  C_38
REMARK   20  A    between atoms: C_38  and  C_39
REMARK   21  A    between atoms: C_39  and  C_40
REMARK   22  A    between atoms: C_40  and  C_41
REMARK   23  A    between atoms: C_40  and  C_42
REMARK   24  A    between atoms: C_43  and  C_44
REMARK   25  A    between atoms: C_43  and  C_45
REMARK   26  A    between atoms: C_45  and  C_46
REMARK   27  A    between atoms: C_45  and  O_47
REMARK                            x       y       z     vdW  Elec       q    Type
REMARK                         _______ _______ _______ _____ _____    ______ ____
ROOT
ATOM      1  C   UNL     1     147.253 166.739 194.799  0.00  0.00    -0.035 C 
ATOM      2  H   UNL     1     146.702 167.400 195.476  0.00  0.00    +0.028 HD
ATOM      3  H   UNL     1     147.522 167.341 193.920  0.00  0.00    +0.028 HD
ENDROOT
BRANCH   1   4
ATOM      4  C   UNL     1     146.351 165.597 194.352  0.00  0.00    +0.012 C 
ATOM      5  H   UNL     1     146.917 164.655 194.313  0.00  0.00    +0.046 HD
ATOM      6  H   UNL     1     145.519 165.465 195.051  0.00  0.00    +0.046 HD
BRANCH   4   9
ATOM      7  C   UNL     1     144.493 165.984 192.765  0.00  0.00    +0.218 C 
ATOM      8  O   UNL     1     143.627 165.794 193.614  0.00  0.00    -0.275 OA
ATOM      9  N   UNL     1     145.841 165.844 193.019  0.00  0.00    -0.315 N 
ATOM     10  H   UNL     1     146.503 166.001 192.272  0.00  0.00    +0.149 HD
BRANCH   7  11
ATOM     11  C   UNL     1     144.171 166.304 191.304  0.00  0.00    +0.060 C 
ATOM     12  H   UNL     1     144.863 167.092 190.969  0.00  0.00    +0.042 HD
BRANCH  11  13
ATOM     13  C   UNL     1     144.450 165.032 190.499  0.00  0.00    -0.052 C 
ATOM     14  H   UNL     1     145.487 164.698 190.637  0.00  0.00    +0.024 HD
ATOM     15  H   UNL     1     143.801 164.210 190.819  0.00  0.00    +0.024 HD
ATOM     16  H   UNL     1     144.277 165.188 189.432  0.00  0.00    +0.024 HD
ENDBRANCH  11  13
BRANCH  11  17
ATOM     17  C   UNL     1     142.725 166.829 191.206  0.00  0.00    +0.081 C 
ATOM     18  H   UNL     1     142.439 167.027 190.164  0.00  0.00    +0.062 HD
BRANCH  17  19
ATOM     19  C   UNL     1     142.441 168.101 192.026  0.00  0.00    +0.038 C 
ATOM     20  H   UNL     1     141.463 168.030 192.517  0.00  0.00    +0.049 HD
ATOM     21  H   UNL     1     143.210 168.261 192.788  0.00  0.00    +0.049 HD
BRANCH  19  24
ATOM     22  C   UNL     1     141.355 169.842 190.595  0.00  0.00    +0.216 C 
ATOM     23  O   UNL     1     140.240 169.339 190.683  0.00  0.00    -0.276 OA
ATOM     24  N   UNL     1     142.477 169.285 191.169  0.00  0.00    -0.313 N 
ATOM     25  H   UNL     1     143.372 169.745 191.043  0.00  0.00    +0.149 HD
BRANCH  22  26
ATOM     26  C   UNL     1     141.648 171.097 189.806  0.00  0.00    +0.050 C 
ATOM     27  H   UNL     1     141.467 171.948 190.474  0.00  0.00    +0.038 HD
ATOM     28  H   UNL     1     140.928 171.210 188.987  0.00  0.00    +0.038 HD
BRANCH  26  33
ATOM     29  C   UNL     1     145.181 172.161 190.021  0.00  0.00    +0.066 C 
ATOM     30  C   UNL     1     145.685 171.625 188.687  0.00  0.00    -0.026 C 
ATOM     31  C   UNL     1     144.735 172.011 187.557  0.00  0.00    -0.046 C 
ATOM     32  C   UNL     1     143.256 171.997 187.984  0.00  0.00    -0.017 C 
ATOM     33  C   UNL     1     143.082 171.158 189.272  0.00  0.00    +0.070 C 
ATOM     34  O   UNL     1     143.894 171.634 190.362  0.00  0.00    -0.372 OA
ATOM     35  H   UNL     1     145.076 173.249 189.953  0.00  0.00    +0.060 HD
ATOM     36  H   UNL     1     146.690 171.999 188.467  0.00  0.00    +0.029 HD
ATOM     37  H   UNL     1     145.759 170.532 188.731  0.00  0.00    +0.029 HD
ATOM     38  H   UNL     1     145.018 172.994 187.165  0.00  0.00    +0.027 HD
ATOM     39  H   UNL     1     144.881 171.307 186.728  0.00  0.00    +0.027 HD
ATOM     40  H   UNL     1     142.692 171.526 187.168  0.00  0.00    +0.032 HD
ATOM     41  H   UNL     1     143.404 170.131 189.062  0.00  0.00    +0.060 HD
BRANCH  32  42
ATOM     42  C   UNL     1     142.712 173.426 188.113  0.00  0.00    -0.060 C 
ATOM     43  H   UNL     1     141.767 173.560 187.582  0.00  0.00    +0.023 HD
ATOM     44  H   UNL     1     143.425 174.151 187.718  0.00  0.00    +0.023 HD
ATOM     45  H   UNL     1     142.554 173.683 189.168  0.00  0.00    +0.023 HD
ENDBRANCH  32  42
BRANCH  29  46
ATOM     46  C   UNL     1     146.146 171.816 191.152  0.00  0.00    +0.036 C 
ATOM     47  H   UNL     1     147.159 171.636 190.778  0.00  0.00    +0.037 HD
ATOM     48  H   UNL     1     145.819 170.910 191.672  0.00  0.00    +0.037 HD
BRANCH  46  49
ATOM     49  C   UNL     1     146.240 172.969 192.130  0.00  0.00    +0.158 C 
ATOM     50  O   UNL     1     145.260 173.657 192.413  0.00  0.00    -0.293 OA
BRANCH  49  52
ATOM     51  C   UNL     1     148.402 172.257 193.087  0.00  0.00    -0.084 C 
ATOM     52  C   UNL     1     147.585 173.254 192.715  0.00  0.00    -0.023 C 
ATOM     53  H   UNL     1     148.087 171.222 192.956  0.00  0.00    +0.057 HD
ATOM     54  H   UNL     1     147.870 174.294 192.826  0.00  0.00    +0.065 HD
BRANCH  51  55
ATOM     55  C   UNL     1     149.743 172.470 193.703  0.00  0.00    -0.046 C 
ATOM     56  H   UNL     1     149.907 173.516 193.990  0.00  0.00    +0.027 HD
ATOM     57  H   UNL     1     150.539 172.178 193.003  0.00  0.00    +0.027 HD
ATOM     58  H   UNL     1     149.842 171.852 194.603  0.00  0.00    +0.027 HD
ENDBRANCH  51  55
ENDBRANCH  49  52
ENDBRANCH  46  49
ENDBRANCH  29  46
ENDBRANCH  26  33
ENDBRANCH  22  26
ENDBRANCH  19  24
ENDBRANCH  17  19
BRANCH  17  59
ATOM     59  O   UNL     1     141.862 165.778 191.676  0.00  0.00    -0.390 OA
ATOM     60  H   UNL     1     141.235 165.581 190.957  0.00  0.00    +0.210 HD
ENDBRANCH  17  59
ENDBRANCH  11  17
ENDBRANCH   7  11
ENDBRANCH   4   9
ENDBRANCH   1   4
BRANCH   1  61
ATOM     61  C   UNL     1     148.528 166.232 195.478  0.00  0.00    -0.025 C 
ATOM     62  H   UNL     1     148.859 166.991 196.200  0.00  0.00    +0.029 HD
ATOM     63  H   UNL     1     148.301 165.316 196.034  0.00  0.00    +0.029 HD
BRANCH  61  64
ATOM     64  C   UNL     1     149.650 165.965 194.458  0.00  0.00    +0.065 C 
ATOM     65  C   UNL     1     150.977 165.584 195.150  0.00  0.00    -0.017 C 
ATOM     66  C   UNL     1     152.186 165.875 194.242  0.00  0.00    -0.043 C 
ATOM     67  C   UNL     1     151.769 165.903 192.777  0.00  0.00    +0.002 C 
ATOM     68  C   UNL     1     150.664 166.955 192.527  0.00  0.00    +0.171 C 
ATOM     69  O   UNL     1     149.864 167.159 193.701  0.00  0.00    -0.345 OA
ATOM     70  C   UNL     1     151.284 168.312 192.160  0.00  0.00    +0.002 C 
ATOM     71  C   UNL     1     150.210 169.364 191.874  0.00  0.00    -0.046 C 
ATOM     72  C   UNL     1     148.927 168.741 191.331  0.00  0.00    -0.026 C 
ATOM     73  C   UNL     1     149.224 167.425 190.615  0.00  0.00    +0.062 C 
ATOM     74  O   UNL     1     149.849 166.452 191.461  0.00  0.00    -0.345 OA
ATOM     75  H   UNL     1     149.318 165.165 193.781  0.00  0.00    +0.060 HD
ATOM     76  H   UNL     1     151.106 166.201 196.050  0.00  0.00    +0.032 HD
ATOM     77  H   UNL     1     152.988 165.142 194.392  0.00  0.00    +0.027 HD
ATOM     78  H   UNL     1     152.608 166.854 194.511  0.00  0.00    +0.027 HD
ATOM     79  H   UNL     1     151.405 164.904 192.498  0.00  0.00    +0.032 HD
ATOM     80  H   UNL     1     152.639 166.086 192.130  0.00  0.00    +0.032 HD
ATOM     81  H   UNL     1     151.902 168.201 191.261  0.00  0.00    +0.032 HD
ATOM     82  H   UNL     1     151.937 168.683 192.957  0.00  0.00    +0.032 HD
ATOM     83  H   UNL     1     149.981 169.927 192.784  0.00  0.00    +0.027 HD
ATOM     84  H   UNL     1     150.609 170.093 191.159  0.00  0.00    +0.027 HD
ATOM     85  H   UNL     1     148.253 168.569 192.178  0.00  0.00    +0.029 HD
ATOM     86  H   UNL     1     148.426 169.452 190.664  0.00  0.00    +0.029 HD
ATOM     87  H   UNL     1     149.922 167.626 189.795  0.00  0.00    +0.060 HD
BRANCH  65  88
ATOM     88  C   UNL     1     150.970 164.116 195.604  0.00  0.00    -0.060 C 
ATOM     89  H   UNL     1     151.821 163.579 195.175  0.00  0.00    +0.023 HD
ATOM     90  H   UNL     1     150.052 163.613 195.285  0.00  0.00    +0.023 HD
ATOM     91  H   UNL     1     151.045 164.038 196.691  0.00  0.00    +0.023 HD
ENDBRANCH  65  88
BRANCH  73  92
ATOM     92  C   UNL     1     147.969 166.790 189.987  0.00  0.00    -0.026 C 
ATOM     93  H   UNL     1     147.524 166.108 190.727  0.00  0.00    +0.029 HD
ATOM     94  H   UNL     1     148.267 166.196 189.114  0.00  0.00    +0.029 HD
BRANCH  92  95
ATOM     95  C   UNL     1     146.904 167.822 189.591  0.00  0.00    -0.045 C 
ATOM     96  H   UNL     1     147.286 168.835 189.763  0.00  0.00    +0.027 HD
ATOM     97  H   UNL     1     146.030 167.698 190.245  0.00  0.00    +0.027 HD
BRANCH  95  98
ATOM     98  C   UNL     1     146.436 167.698 188.125  0.00  0.00    -0.025 C 
ATOM     99  H   UNL     1     146.556 166.654 187.824  0.00  0.00    +0.034 HD
BRANCH  98 100
ATOM    100  C   UNL     1     147.260 168.563 187.173  0.00  0.00    -0.059 C 
ATOM    101  H   UNL     1     146.907 168.471 186.140  0.00  0.00    +0.024 HD
ATOM    102  H   UNL     1     148.319 168.273 187.199  0.00  0.00    +0.024 HD
ATOM    103  H   UNL     1     147.206 169.619 187.457  0.00  0.00    +0.024 HD
ENDBRANCH  98 100
BRANCH  98 104
ATOM    104  C   UNL     1     144.980 168.115 188.056  0.00  0.00    -0.080 C 
ATOM    105  C   UNL     1     143.930 167.423 187.563  0.00  0.00    -0.048 C 
ATOM    106  H   UNL     1     144.790 169.088 188.509  0.00  0.00    +0.058 HD
BRANCH 105 107
ATOM    107  C   UNL     1     144.052 166.081 186.888  0.00  0.00    -0.041 C 
ATOM    108  H   UNL     1     144.658 165.401 187.496  0.00  0.00    +0.028 HD
ATOM    109  H   UNL     1     144.506 166.134 185.895  0.00  0.00    +0.028 HD
ATOM    110  H   UNL     1     143.069 165.624 186.742  0.00  0.00    +0.028 HD
ENDBRANCH 105 107
BRANCH 105 111
ATOM    111  C   UNL     1     142.525 167.976 187.686  0.00  0.00    +0.073 C 
ATOM    112  H   UNL     1     142.436 168.588 188.592  0.00  0.00    +0.064 HD
BRANCH 111 113
ATOM    113  C   UNL     1     141.472 166.877 187.743  0.00  0.00    -0.035 C 
ATOM    114  H   UNL     1     140.515 167.257 188.122  0.00  0.00    +0.026 HD
ATOM    115  H   UNL     1     141.302 166.426 186.761  0.00  0.00    +0.026 HD
ATOM    116  H   UNL     1     141.782 166.086 188.436  0.00  0.00    +0.026 HD
ENDBRANCH 111 113
BRANCH 111 117
ATOM    117  O   UNL     1     142.272 168.838 186.581  0.00  0.00    -0.388 OA
ATOM    118  H   UNL     1     142.435 168.326 185.773  0.00  0.00    +0.210 HD
ENDBRANCH 111 117
ENDBRANCH 105 111
ENDBRANCH  98 104
ENDBRANCH  95  98
ENDBRANCH  92  95
ENDBRANCH  73  92
ENDBRANCH  61  64
ENDBRANCH   1  61
TORSDOF 27
ENDMDL
MODEL 2
REMARK VINA RESULT:      -5.9      9.027     12.543
REMARK  Name = Bistramide A_conf2
REMARK  27 active torsions:
REMARK  status: ('A' for Active; 'I' for Inactive)
REMARK    1  A    between atoms: C_1  and  C_2
REMARK    2  A    between atoms: C_3  and  C_4
REMARK    3  A    between atoms: C_4  and  C_6
REMARK    4  A    between atoms: C_6  and  C_7
REMARK    5  A    between atoms: C_10  and  C_50
REMARK    6  A    between atoms: C_11  and  C_13
REMARK    7  A    between atoms: C_13  and  C_14
REMARK    8  A    between atoms: N_16  and  C_17
REMARK    9  A    between atoms: C_17  and  C_18
REMARK   10  A    between atoms: C_18  and  C_19
REMARK   11  A    between atoms: C_18  and  O_49
REMARK   12  A    between atoms: C_19  and  C_20
REMARK   13  A    between atoms: C_19  and  C_21
REMARK   14  A    between atoms: N_23  and  C_24
REMARK   15  A    between atoms: C_24  and  C_25
REMARK   16  A    between atoms: C_25  and  C_26
REMARK   17  A    between atoms: C_26  and  C_27
REMARK   18  A    between atoms: C_28  and  C_48
REMARK   19  A    between atoms: C_36  and  C_38
REMARK   20  A    between atoms: C_38  and  C_39
REMARK   21  A    between atoms: C_39  and  C_40
REMARK   22  A    between atoms: C_40  and  C_41
REMARK   23  A    between atoms: C_40  and  C_42
REMARK   24  A    between atoms: C_43  and  C_44
REMARK   25  A    between atoms: C_43  and  C_45
REMARK   26  A    between atoms: C_45  and  C_46
REMARK   27  A    between atoms: C_45  and  O_47
REMARK                            x       y       z     vdW  Elec       q    Type
REMARK                         _______ _______ _______ _____ _____    ______ ____
ROOT
ATOM      1  C   UNL     1     157.761 168.185 184.793  0.00  0.00    -0.035 C 
ATOM      2  H   UNL     1     156.675 168.276 184.883  0.00  0.00    +0.028 HD
ATOM      3  H   UNL     1     157.975 167.975 183.736  0.00  0.00    +0.028 HD
ENDROOT
BRANCH   1   4
ATOM      4  C   UNL     1     158.248 167.011 185.631  0.00  0.00    +0.012 C 
ATOM      5  H   UNL     1     158.307 166.101 185.017  0.00  0.00    +0.046 HD
ATOM      6  H   UNL     1     159.245 167.212 186.036  0.00  0.00    +0.046 HD
BRANCH   4   9
ATOM      7  C   UNL     1     156.284 165.840 186.577  0.00  0.00    +0.218 C 
ATOM      8  O   UNL     1     155.995 165.302 185.512  0.00  0.00    -0.275 OA
ATOM      9  N   UNL     1     157.322 166.737 186.711  0.00  0.00    -0.315 N 
ATOM     10  H   UNL     1     157.499 167.156 187.613  0.00  0.00    +0.149 HD
BRANCH   7  11
ATOM     11  C   UNL     1     155.465 165.650 187.855  0.00  0.00    +0.060 C 
ATOM     12  H   UNL     1     154.972 164.667 187.800  0.00  0.00    +0.042 HD
BRANCH  11  13
ATOM     13  C   UNL     1     156.458 165.636 189.020  0.00  0.00    -0.052 C 
ATOM     14  H   UNL     1     156.298 164.762 189.664  0.00  0.00    +0.024 HD
ATOM     15  H   UNL     1     157.491 165.586 188.660  0.00  0.00    +0.024 HD
ATOM     16  H   UNL     1     156.370 166.537 189.631  0.00  0.00    +0.024 HD
ENDBRANCH  11  13
BRANCH  11  17
ATOM     17  C   UNL     1     154.387 166.749 187.935  0.00  0.00    +0.081 C 
ATOM     18  H   UNL     1     154.435 167.290 188.890  0.00  0.00    +0.062 HD
BRANCH  17  19
ATOM     19  C   UNL     1     152.942 166.255 187.741  0.00  0.00    +0.038 C 
ATOM     20  H   UNL     1     152.507 166.687 186.832  0.00  0.00    +0.049 HD
ATOM     21  H   UNL     1     152.903 165.164 187.669  0.00  0.00    +0.049 HD
BRANCH  19  24
ATOM     22  C   UNL     1     150.931 165.979 189.202  0.00  0.00    +0.216 C 
ATOM     23  O   UNL     1     150.419 165.129 188.481  0.00  0.00    -0.276 OA
ATOM     24  N   UNL     1     152.118 166.607 188.897  0.00  0.00    -0.313 N 
ATOM     25  H   UNL     1     152.477 167.312 189.531  0.00  0.00    +0.149 HD
BRANCH  22  26
ATOM     26  C   UNL     1     150.301 166.480 190.482  0.00  0.00    +0.050 C 
ATOM     27  H   UNL     1     149.328 165.985 190.579  0.00  0.00    +0.038 HD
ATOM     28  H   UNL     1     150.078 167.550 190.404  0.00  0.00    +0.038 HD
BRANCH  26  33
ATOM     29  C   UNL     1     150.734 166.099 194.133  0.00  0.00    +0.066 C 
ATOM     30  C   UNL     1     152.240 165.875 194.183  0.00  0.00    -0.026 C 
ATOM     31  C   UNL     1     152.968 166.911 193.332  0.00  0.00    -0.046 C 
ATOM     32  C   UNL     1     152.199 167.285 192.053  0.00  0.00    -0.017 C 
ATOM     33  C   UNL     1     151.148 166.197 191.726  0.00  0.00    +0.070 C 
ATOM     34  O   UNL     1     150.217 165.981 192.803  0.00  0.00    -0.372 OA
ATOM     35  H   UNL     1     150.511 167.115 194.477  0.00  0.00    +0.060 HD
ATOM     36  H   UNL     1     152.609 165.919 195.213  0.00  0.00    +0.029 HD
ATOM     37  H   UNL     1     152.479 164.874 193.806  0.00  0.00    +0.029 HD
ATOM     38  H   UNL     1     153.171 167.800 193.938  0.00  0.00    +0.027 HD
ATOM     39  H   UNL     1     153.951 166.505 193.060  0.00  0.00    +0.027 HD
ATOM     40  H   UNL     1     152.934 167.330 191.238  0.00  0.00    +0.032 HD
ATOM     41  H   UNL     1     151.672 165.247 191.565  0.00  0.00    +0.060 HD
BRANCH  32  42
ATOM     42  C   UNL     1     151.599 168.693 192.168  0.00  0.00    -0.060 C 
ATOM     43  H   UNL     1     151.963 169.228 193.048  0.00  0.00    +0.023 HD
ATOM     44  H   UNL     1     150.512 168.649 192.226  0.00  0.00    +0.023 HD
ATOM     45  H   UNL     1     151.843 169.287 191.278  0.00  0.00    +0.023 HD
ENDBRANCH  32  42
BRANCH  29  46
ATOM     46  C   UNL     1     149.999 165.093 195.015  0.00  0.00    +0.036 C 
ATOM     47  H   UNL     1     150.693 164.406 195.509  0.00  0.00    +0.037 HD
ATOM     48  H   UNL     1     149.307 164.492 194.417  0.00  0.00    +0.037 HD
BRANCH  46  49
ATOM     49  C   UNL     1     149.243 165.815 196.112  0.00  0.00    +0.158 C 
ATOM     50  O   UNL     1     149.826 166.336 197.063  0.00  0.00    -0.293 OA
BRANCH  49  52
ATOM     51  C   UNL     1     147.130 165.356 194.920  0.00  0.00    -0.084 C 
ATOM     52  C   UNL     1     147.753 165.841 196.005  0.00  0.00    -0.023 C 
ATOM     53  H   UNL     1     147.715 164.929 194.106  0.00  0.00    +0.057 HD
ATOM     54  H   UNL     1     147.201 166.267 196.834  0.00  0.00    +0.065 HD
BRANCH  51  55
ATOM     55  C   UNL     1     145.651 165.376 194.735  0.00  0.00    -0.046 C 
ATOM     56  H   UNL     1     145.150 166.024 195.466  0.00  0.00    +0.027 HD
ATOM     57  H   UNL     1     145.236 164.363 194.835  0.00  0.00    +0.027 HD
ATOM     58  H   UNL     1     145.405 165.743 193.732  0.00  0.00    +0.027 HD
ENDBRANCH  51  55
ENDBRANCH  49  52
ENDBRANCH  46  49
ENDBRANCH  29  46
ENDBRANCH  26  33
ENDBRANCH  22  26
ENDBRANCH  19  24
ENDBRANCH  17  19
BRANCH  17  59
ATOM     59  O   UNL     1     154.686 167.708 186.905  0.00  0.00    -0.390 OA
ATOM     60  H   UNL     1     155.035 167.211 186.144  0.00  0.00    +0.210 HD
ENDBRANCH  17  59
ENDBRANCH  11  17
ENDBRANCH   7  11
ENDBRANCH   4   9
ENDBRANCH   1   4
BRANCH   1  61
ATOM     61  C   UNL     1     158.437 169.498 185.198  0.00  0.00    -0.025 C 
ATOM     62  H   UNL     1     157.766 170.033 185.884  0.00  0.00    +0.029 HD
ATOM     63  H   UNL     1     159.363 169.275 185.740  0.00  0.00    +0.029 HD
BRANCH  61  64
ATOM     64  C   UNL     1     158.741 170.384 183.976  0.00  0.00    +0.065 C 
ATOM     65  C   UNL     1     160.255 170.650 183.823  0.00  0.00    -0.017 C 
ATOM     66  C   UNL     1     160.519 171.935 183.016  0.00  0.00    -0.043 C 
ATOM     67  C   UNL     1     159.327 172.271 182.129  0.00  0.00    +0.002 C 
ATOM     68  C   UNL     1     158.036 172.435 182.962  0.00  0.00    +0.171 C 
ATOM     69  O   UNL     1     158.080 171.639 184.156  0.00  0.00    -0.345 OA
ATOM     70  C   UNL     1     157.857 173.898 183.399  0.00  0.00    +0.002 C 
ATOM     71  C   UNL     1     156.567 174.094 184.198  0.00  0.00    -0.046 C 
ATOM     72  C   UNL     1     155.484 173.097 183.793  0.00  0.00    -0.026 C 
ATOM     73  C   UNL     1     155.682 172.638 182.351  0.00  0.00    +0.062 C 
ATOM     74  O   UNL     1     156.951 172.008 182.129  0.00  0.00    -0.345 OA
ATOM     75  H   UNL     1     158.338 169.889 183.081  0.00  0.00    +0.060 HD
ATOM     76  H   UNL     1     160.698 170.808 184.816  0.00  0.00    +0.032 HD
ATOM     77  H   UNL     1     161.429 171.849 182.410  0.00  0.00    +0.027 HD
ATOM     78  H   UNL     1     160.691 172.766 183.714  0.00  0.00    +0.027 HD
ATOM     79  H   UNL     1     159.199 171.465 181.394  0.00  0.00    +0.032 HD
ATOM     80  H   UNL     1     159.530 173.175 181.536  0.00  0.00    +0.032 HD
ATOM     81  H   UNL     1     157.814 174.542 182.513  0.00  0.00    +0.032 HD
ATOM     82  H   UNL     1     158.703 174.240 184.007  0.00  0.00    +0.032 HD
ATOM     83  H   UNL     1     156.766 173.995 185.270  0.00  0.00    +0.027 HD
ATOM     84  H   UNL     1     156.211 175.120 184.049  0.00  0.00    +0.027 HD
ATOM     85  H   UNL     1     155.543 172.242 184.476  0.00  0.00    +0.029 HD
ATOM     86  H   UNL     1     154.496 173.549 183.933  0.00  0.00    +0.029 HD
ATOM     87  H   UNL     1     155.649 173.517 181.698  0.00  0.00    +0.060 HD
BRANCH  65  88
ATOM     88  C   UNL     1     160.974 169.447 183.193  0.00  0.00    -0.060 C 
ATOM     89  H   UNL     1     161.848 169.778 182.625  0.00  0.00    +0.023 HD
ATOM     90  H   UNL     1     160.308 168.907 182.512  0.00  0.00    +0.023 HD
ATOM     91  H   UNL     1     161.322 168.749 183.958  0.00  0.00    +0.023 HD
ENDBRANCH  65  88
BRANCH  73  92
ATOM     92  C   UNL     1     154.574 171.682 181.870  0.00  0.00    -0.026 C 
ATOM     93  H   UNL     1     154.147 171.183 182.752  0.00  0.00    +0.029 HD
ATOM     94  H   UNL     1     155.019 170.913 181.227  0.00  0.00    +0.029 HD
BRANCH  92  95
ATOM     95  C   UNL     1     153.436 172.401 181.132  0.00  0.00    -0.045 C 
ATOM     96  H   UNL     1     152.498 171.852 181.271  0.00  0.00    +0.027 HD
ATOM     97  H   UNL     1     153.652 172.393 180.056  0.00  0.00    +0.027 HD
BRANCH  95  98
ATOM     98  C   UNL     1     153.238 173.866 181.577  0.00  0.00    -0.025 C 
ATOM     99  H   UNL     1     154.027 174.107 182.294  0.00  0.00    +0.034 HD
BRANCH  98 100
ATOM    100  C   UNL     1     151.891 174.092 182.262  0.00  0.00    -0.059 C 
ATOM    101  H   UNL     1     151.202 174.649 181.617  0.00  0.00    +0.024 HD
ATOM    102  H   UNL     1     152.018 174.657 183.195  0.00  0.00    +0.024 HD
ATOM    103  H   UNL     1     151.419 173.140 182.521  0.00  0.00    +0.024 HD
ENDBRANCH  98 100
BRANCH  98 104
ATOM    104  C   UNL     1     153.336 174.750 180.350  0.00  0.00    -0.080 C 
ATOM    105  C   UNL     1     154.375 175.512 179.943  0.00  0.00    -0.048 C 
ATOM    106  H   UNL     1     152.448 174.710 179.718  0.00  0.00    +0.058 HD
BRANCH 105 107
ATOM    107  C   UNL     1     155.650 175.680 180.729  0.00  0.00    -0.041 C 
ATOM    108  H   UNL     1     155.649 176.639 181.259  0.00  0.00    +0.028 HD
ATOM    109  H   UNL     1     156.549 175.645 180.108  0.00  0.00    +0.028 HD
ATOM    110  H   UNL     1     155.766 174.882 181.467  0.00  0.00    +0.028 HD
ENDBRANCH 105 107
BRANCH 105 111
ATOM    111  C   UNL     1     154.313 176.244 178.619  0.00  0.00    +0.073 C 
ATOM    112  H   UNL     1     154.377 175.532 177.787  0.00  0.00    +0.064 HD
BRANCH 111 113
ATOM    113  C   UNL     1     155.435 177.263 178.466  0.00  0.00    -0.035 C 
ATOM    114  H   UNL     1     155.255 177.936 177.618  0.00  0.00    +0.026 HD
ATOM    115  H   UNL     1     155.561 177.868 179.368  0.00  0.00    +0.026 HD
ATOM    116  H   UNL     1     156.385 176.756 178.257  0.00  0.00    +0.026 HD
ENDBRANCH 111 113
BRANCH 111 117
ATOM    117  O   UNL     1     153.049 176.891 178.510  0.00  0.00    -0.388 OA
ATOM    118  H   UNL     1     152.383 176.283 178.870  0.00  0.00    +0.210 HD
ENDBRANCH 111 117
ENDBRANCH 105 111
ENDBRANCH  98 104
ENDBRANCH  95  98
ENDBRANCH  92  95
ENDBRANCH  73  92
ENDBRANCH  61  64
ENDBRANCH   1  61
TORSDOF 27
ENDMDL
MODEL 3
REMARK VINA RESULT:      -5.8      2.410      7.827
REMARK  Name = Bistramide A_conf2
REMARK  27 active torsions:
REMARK  status: ('A' for Active; 'I' for Inactive)
REMARK    1  A    between atoms: C_1  and  C_2
REMARK    2  A    between atoms: C_3  and  C_4
REMARK    3  A    between atoms: C_4  and  C_6
REMARK    4  A    between atoms: C_6  and  C_7
REMARK    5  A    between atoms: C_10  and  C_50
REMARK    6  A    between atoms: C_11  and  C_13
REMARK    7  A    between atoms: C_13  and  C_14
REMARK    8  A    between atoms: N_16  and  C_17
REMARK    9  A    between atoms: C_17  and  C_18
REMARK   10  A    between atoms: C_18  and  C_19
REMARK   11  A    between atoms: C_18  and  O_49
REMARK   12  A    between atoms: C_19  and  C_20
REMARK   13  A    between atoms: C_19  and  C_21
REMARK   14  A    between atoms: N_23  and  C_24
REMARK   15  A    between atoms: C_24  and  C_25
REMARK   16  A    between atoms: C_25  and  C_26
REMARK   17  A    between atoms: C_26  and  C_27
REMARK   18  A    between atoms: C_28  and  C_48
REMARK   19  A    between atoms: C_36  and  C_38
REMARK   20  A    between atoms: C_38  and  C_39
REMARK   21  A    between atoms: C_39  and  C_40
REMARK   22  A    between atoms: C_40  and  C_41
REMARK   23  A    between atoms: C_40  and  C_42
REMARK   24  A    between atoms: C_43  and  C_44
REMARK   25  A    between atoms: C_43  and  C_45
REMARK   26  A    between atoms: C_45  and  C_46
REMARK   27  A    between atoms: C_45  and  O_47
REMARK                            x       y       z     vdW  Elec       q    Type
REMARK                         _______ _______ _______ _____ _____    ______ ____
ROOT
ATOM      1  C   UNL     1     147.772 168.176 191.228  0.00  0.00    -0.035 C 
ATOM      2  H   UNL     1     148.344 168.173 190.296  0.00  0.00    +0.028 HD
ATOM      3  H   UNL     1     146.899 168.821 191.062  0.00  0.00    +0.028 HD
ENDROOT
BRANCH   1   4
ATOM      4  C   UNL     1     148.617 168.777 192.344  0.00  0.00    +0.012 C 
ATOM      5  H   UNL     1     148.421 169.855 192.434  0.00  0.00    +0.046 HD
ATOM      6  H   UNL     1     148.378 168.307 193.304  0.00  0.00    +0.046 HD
BRANCH   4   9
ATOM      7  C   UNL     1     150.773 167.586 192.578  0.00  0.00    +0.218 C 
ATOM      8  O   UNL     1     150.335 166.798 193.411  0.00  0.00    -0.275 OA
ATOM      9  N   UNL     1     150.027 168.621 192.055  0.00  0.00    -0.315 N 
ATOM     10  H   UNL     1     150.452 169.245 191.383  0.00  0.00    +0.149 HD
BRANCH   7  11
ATOM     11  C   UNL     1     152.225 167.568 192.097  0.00  0.00    +0.060 C 
ATOM     12  H   UNL     1     152.656 168.563 192.282  0.00  0.00    +0.042 HD
BRANCH  11  13
ATOM     13  C   UNL     1     152.966 166.544 192.960  0.00  0.00    -0.052 C 
ATOM     14  H   UNL     1     154.046 166.738 192.963  0.00  0.00    +0.024 HD
ATOM     15  H   UNL     1     152.629 166.585 194.002  0.00  0.00    +0.024 HD
ATOM     16  H   UNL     1     152.798 165.525 192.604  0.00  0.00    +0.024 HD
ENDBRANCH  11  13
BRANCH  11  17
ATOM     17  C   UNL     1     152.253 167.281 190.582  0.00  0.00    +0.081 C 
ATOM     18  H   UNL     1     152.197 168.209 189.997  0.00  0.00    +0.062 HD
BRANCH  17  19
ATOM     19  C   UNL     1     151.148 166.335 190.081  0.00  0.00    +0.038 C 
ATOM     20  H   UNL     1     151.574 165.368 189.788  0.00  0.00    +0.049 HD
ATOM     21  H   UNL     1     150.388 166.169 190.851  0.00  0.00    +0.049 HD
BRANCH  19  24
ATOM     22  C   UNL     1     150.741 166.641 187.632  0.00  0.00    +0.216 C 
ATOM     23  O   UNL     1     151.687 165.933 187.301  0.00  0.00    -0.276 OA
ATOM     24  N   UNL     1     150.440 166.925 188.945  0.00  0.00    -0.313 N 
ATOM     25  H   UNL     1     149.652 167.531 189.148  0.00  0.00    +0.149 HD
BRANCH  22  26
ATOM     26  C   UNL     1     149.824 167.328 186.646  0.00  0.00    +0.050 C 
ATOM     27  H   UNL     1     149.657 166.629 185.818  0.00  0.00    +0.038 HD
ATOM     28  H   UNL     1     150.325 168.195 186.200  0.00  0.00    +0.038 HD
BRANCH  26  33
ATOM     29  C   UNL     1     146.293 166.678 187.522  0.00  0.00    +0.066 C 
ATOM     30  C   UNL     1     145.921 168.042 188.089  0.00  0.00    -0.026 C 
ATOM     31  C   UNL     1     146.388 169.158 187.159  0.00  0.00    -0.046 C 
ATOM     32  C   UNL     1     147.733 168.849 186.478  0.00  0.00    -0.017 C 
ATOM     33  C   UNL     1     148.479 167.737 187.252  0.00  0.00    +0.070 C 
ATOM     34  O   UNL     1     147.708 166.526 187.369  0.00  0.00    -0.372 OA
ATOM     35  H   UNL     1     145.847 166.570 186.527  0.00  0.00    +0.060 HD
ATOM     36  H   UNL     1     144.840 168.121 188.246  0.00  0.00    +0.029 HD
ATOM     37  H   UNL     1     146.392 168.177 189.070  0.00  0.00    +0.029 HD
ATOM     38  H   UNL     1     145.611 169.357 186.412  0.00  0.00    +0.027 HD
ATOM     39  H   UNL     1     146.480 170.080 187.746  0.00  0.00    +0.027 HD
ATOM     40  H   UNL     1     148.328 169.772 186.511  0.00  0.00    +0.032 HD
ATOM     41  H   UNL     1     148.667 168.092 188.273  0.00  0.00    +0.060 HD
BRANCH  32  42
ATOM     42  C   UNL     1     147.531 168.523 184.992  0.00  0.00    -0.060 C 
ATOM     43  H   UNL     1     148.463 168.572 184.425  0.00  0.00    +0.023 HD
ATOM     44  H   UNL     1     146.823 169.214 184.535  0.00  0.00    +0.023 HD
ATOM     45  H   UNL     1     147.108 167.517 184.875  0.00  0.00    +0.023 HD
ENDBRANCH  32  42
BRANCH  29  46
ATOM     46  C   UNL     1     145.793 165.553 188.425  0.00  0.00    +0.036 C 
ATOM     47  H   UNL     1     145.296 165.943 189.319  0.00  0.00    +0.037 HD
ATOM     48  H   UNL     1     146.629 164.928 188.757  0.00  0.00    +0.037 HD
BRANCH  46  49
ATOM     49  C   UNL     1     144.773 164.707 187.691  0.00  0.00    +0.158 C 
ATOM     50  O   UNL     1     144.170 165.132 186.706  0.00  0.00    -0.293 OA
BRANCH  49  52
ATOM     51  C   UNL     1     143.297 163.006 188.703  0.00  0.00    -0.084 C 
ATOM     52  C   UNL     1     144.508 163.341 188.234  0.00  0.00    -0.023 C 
ATOM     53  H   UNL     1     142.488 163.737 188.683  0.00  0.00    +0.057 HD
ATOM     54  H   UNL     1     145.332 162.636 188.234  0.00  0.00    +0.065 HD
BRANCH  51  55
ATOM     55  C   UNL     1     142.971 161.672 189.283  0.00  0.00    -0.046 C 
ATOM     56  H   UNL     1     142.411 161.040 188.582  0.00  0.00    +0.027 HD
ATOM     57  H   UNL     1     142.372 161.784 190.197  0.00  0.00    +0.027 HD
ATOM     58  H   UNL     1     143.896 161.145 189.548  0.00  0.00    +0.027 HD
ENDBRANCH  51  55
ENDBRANCH  49  52
ENDBRANCH  46  49
ENDBRANCH  29  46
ENDBRANCH  26  33
ENDBRANCH  22  26
ENDBRANCH  19  24
ENDBRANCH  17  19
BRANCH  17  59
ATOM     59  O   UNL     1     153.532 166.689 190.289  0.00  0.00    -0.390 OA
ATOM     60  H   UNL     1     154.213 167.310 190.603  0.00  0.00    +0.210 HD
ENDBRANCH  17  59
ENDBRANCH  11  17
ENDBRANCH   7  11
ENDBRANCH   4   9
ENDBRANCH   1   4
BRANCH   1  61
ATOM     61  C   UNL     1     147.302 166.759 191.565  0.00  0.00    -0.025 C 
ATOM     62  H   UNL     1     147.048 166.248 190.626  0.00  0.00    +0.029 HD
ATOM     63  H   UNL     1     148.124 166.208 192.035  0.00  0.00    +0.029 HD
BRANCH  61  64
ATOM     64  C   UNL     1     146.075 166.771 192.495  0.00  0.00    +0.065 C 
ATOM     65  C   UNL     1     146.203 165.728 193.627  0.00  0.00    -0.017 C 
ATOM     66  C   UNL     1     144.823 165.330 194.182  0.00  0.00    -0.043 C 
ATOM     67  C   UNL     1     143.795 166.421 193.908  0.00  0.00    +0.002 C 
ATOM     68  C   UNL     1     143.683 166.721 192.396  0.00  0.00    +0.171 C 
ATOM     69  O   UNL     1     144.918 166.450 191.718  0.00  0.00    -0.345 OA
ATOM     70  C   UNL     1     142.606 165.835 191.749  0.00  0.00    +0.002 C 
ATOM     71  C   UNL     1     142.452 166.137 190.257  0.00  0.00    -0.046 C 
ATOM     72  C   UNL     1     142.799 167.585 189.924  0.00  0.00    -0.026 C 
ATOM     73  C   UNL     1     142.572 168.489 191.134  0.00  0.00    +0.062 C 
ATOM     74  O   UNL     1     143.353 168.110 192.275  0.00  0.00    -0.345 OA
ATOM     75  H   UNL     1     145.963 167.784 192.907  0.00  0.00    +0.060 HD
ATOM     76  H   UNL     1     146.655 164.810 193.226  0.00  0.00    +0.032 HD
ATOM     77  H   UNL     1     144.868 165.114 195.256  0.00  0.00    +0.027 HD
ATOM     78  H   UNL     1     144.495 164.402 193.694  0.00  0.00    +0.027 HD
ATOM     79  H   UNL     1     144.096 167.329 194.449  0.00  0.00    +0.032 HD
ATOM     80  H   UNL     1     142.817 166.145 194.328  0.00  0.00    +0.032 HD
ATOM     81  H   UNL     1     141.642 166.016 192.237  0.00  0.00    +0.032 HD
ATOM     82  H   UNL     1     142.837 164.771 191.871  0.00  0.00    +0.032 HD
ATOM     83  H   UNL     1     143.088 165.468 189.668  0.00  0.00    +0.027 HD
ATOM     84  H   UNL     1     141.421 165.917 189.956  0.00  0.00    +0.027 HD
ATOM     85  H   UNL     1     143.851 167.616 189.620  0.00  0.00    +0.029 HD
ATOM     86  H   UNL     1     142.208 167.918 189.064  0.00  0.00    +0.029 HD
ATOM     87  H   UNL     1     141.520 168.411 191.432  0.00  0.00    +0.060 HD
BRANCH  65  88
ATOM     88  C   UNL     1     147.123 166.231 194.750  0.00  0.00    -0.060 C 
ATOM     89  H   UNL     1     148.156 166.303 194.396  0.00  0.00    +0.023 HD
ATOM     90  H   UNL     1     147.103 165.550 195.608  0.00  0.00    +0.023 HD
ATOM     91  H   UNL     1     146.822 167.223 195.094  0.00  0.00    +0.023 HD
ENDBRANCH  65  88
BRANCH  73  92
ATOM     92  C   UNL     1     142.842 169.974 190.830  0.00  0.00    -0.026 C 
ATOM     93  H   UNL     1     142.601 170.557 191.731  0.00  0.00    +0.029 HD
ATOM     94  H   UNL     1     142.172 170.302 190.025  0.00  0.00    +0.029 HD
BRANCH  92  95
ATOM     95  C   UNL     1     144.304 170.257 190.456  0.00  0.00    -0.045 C 
ATOM     96  H   UNL     1     144.505 169.892 189.443  0.00  0.00    +0.027 HD
ATOM     97  H   UNL     1     144.957 169.692 191.133  0.00  0.00    +0.027 HD
BRANCH  95  98
ATOM     98  C   UNL     1     144.687 171.750 190.544  0.00  0.00    -0.025 C 
ATOM     99  H   UNL     1     144.265 172.149 191.471  0.00  0.00    +0.034 HD
BRANCH  98 100
ATOM    100  C   UNL     1     144.130 172.567 189.380  0.00  0.00    -0.059 C 
ATOM    101  H   UNL     1     144.584 173.564 189.335  0.00  0.00    +0.024 HD
ATOM    102  H   UNL     1     143.043 172.690 189.475  0.00  0.00    +0.024 HD
ATOM    103  H   UNL     1     144.317 172.066 188.425  0.00  0.00    +0.024 HD
ENDBRANCH  98 100
BRANCH  98 104
ATOM    104  C   UNL     1     146.200 171.850 190.554  0.00  0.00    -0.080 C 
ATOM    105  C   UNL     1     146.994 172.489 191.440  0.00  0.00    -0.048 C 
ATOM    106  H   UNL     1     146.673 171.287 189.749  0.00  0.00    +0.058 HD
BRANCH 105 107
ATOM    107  C   UNL     1     146.476 173.323 192.583  0.00  0.00    -0.041 C 
ATOM    108  H   UNL     1     146.516 174.388 192.329  0.00  0.00    +0.028 HD
ATOM    109  H   UNL     1     147.037 173.182 193.511  0.00  0.00    +0.028 HD
ATOM    110  H   UNL     1     145.439 173.067 192.819  0.00  0.00    +0.028 HD
ENDBRANCH 105 107
BRANCH 105 111
ATOM    111  C   UNL     1     148.502 172.378 191.333  0.00  0.00    +0.073 C 
ATOM    112  H   UNL     1     148.779 171.436 190.845  0.00  0.00    +0.064 HD
BRANCH 111 113
ATOM    113  C   UNL     1     149.185 172.435 192.693  0.00  0.00    -0.035 C 
ATOM    114  H   UNL     1     149.052 171.499 193.250  0.00  0.00    +0.026 HD
ATOM    115  H   UNL     1     150.257 172.633 192.601  0.00  0.00    +0.026 HD
ATOM    116  H   UNL     1     148.742 173.224 193.311  0.00  0.00    +0.026 HD
ENDBRANCH 111 113
BRANCH 111 117
ATOM    117  O   UNL     1     148.982 173.429 190.501  0.00  0.00    -0.388 OA
ATOM    118  H   UNL     1     148.245 174.045 190.361  0.00  0.00    +0.210 HD
ENDBRANCH 111 117
ENDBRANCH 105 111
ENDBRANCH  98 104
ENDBRANCH  95  98
ENDBRANCH  92  95
ENDBRANCH  73  92
ENDBRANCH  61  64
ENDBRANCH   1  61
TORSDOF 27
ENDMDL
MODEL 4
REMARK VINA RESULT:      -5.8      3.123      8.301
REMARK  Name = Bistramide A_conf2
REMARK  27 active torsions:
REMARK  status: ('A' for Active; 'I' for Inactive)
REMARK    1  A    between atoms: C_1  and  C_2
REMARK    2  A    between atoms: C_3  and  C_4
REMARK    3  A    between atoms: C_4  and  C_6
REMARK    4  A    between atoms: C_6  and  C_7
REMARK    5  A    between atoms: C_10  and  C_50
REMARK    6  A    between atoms: C_11  and  C_13
REMARK    7  A    between atoms: C_13  and  C_14
REMARK    8  A    between atoms: N_16  and  C_17
REMARK    9  A    between atoms: C_17  and  C_18
REMARK   10  A    between atoms: C_18  and  C_19
REMARK   11  A    between atoms: C_18  and  O_49
REMARK   12  A    between atoms: C_19  and  C_20
REMARK   13  A    between atoms: C_19  and  C_21
REMARK   14  A    between atoms: N_23  and  C_24
REMARK   15  A    between atoms: C_24  and  C_25
REMARK   16  A    between atoms: C_25  and  C_26
REMARK   17  A    between atoms: C_26  and  C_27
REMARK   18  A    between atoms: C_28  and  C_48
REMARK   19  A    between atoms: C_36  and  C_38
REMARK   20  A    between atoms: C_38  and  C_39
REMARK   21  A    between atoms: C_39  and  C_40
REMARK   22  A    between atoms: C_40  and  C_41
REMARK   23  A    between atoms: C_40  and  C_42
REMARK   24  A    between atoms: C_43  and  C_44
REMARK   25  A    between atoms: C_43  and  C_45
REMARK   26  A    between atoms: C_45  and  C_46
REMARK   27  A    between atoms: C_45  and  O_47
REMARK                            x       y       z     vdW  Elec       q    Type
REMARK                         _______ _______ _______ _____ _____    ______ ____
ROOT
ATOM      1  C   UNL     1     146.862 169.068 188.804  0.00  0.00    -0.035 C 
ATOM      2  H   UNL     1     146.117 168.926 188.016  0.00  0.00    +0.028 HD
ATOM      3  H   UNL     1     147.662 169.687 188.376  0.00  0.00    +0.028 HD
ENDROOT
BRANCH   1   4
ATOM      4  C   UNL     1     147.449 167.720 189.202  0.00  0.00    +0.012 C 
ATOM      5  H   UNL     1     147.579 167.666 190.292  0.00  0.00    +0.046 HD
ATOM      6  H   UNL     1     146.785 166.905 188.898  0.00  0.00    +0.046 HD
BRANCH   4   9
ATOM      7  C   UNL     1     149.636 166.573 189.049  0.00  0.00    +0.218 C 
ATOM      8  O   UNL     1     149.431 165.883 190.043  0.00  0.00    -0.275 OA
ATOM      9  N   UNL     1     148.757 167.539 188.607  0.00  0.00    -0.315 N 
ATOM     10  H   UNL     1     148.992 168.084 187.788  0.00  0.00    +0.149 HD
BRANCH   7  11
ATOM     11  C   UNL     1     150.935 166.507 188.243  0.00  0.00    +0.060 C 
ATOM     12  H   UNL     1     151.170 165.447 188.065  0.00  0.00    +0.042 HD
BRANCH  11  13
ATOM     13  C   UNL     1     150.656 167.180 186.897  0.00  0.00    -0.052 C 
ATOM     14  H   UNL     1     150.596 168.270 187.006  0.00  0.00    +0.024 HD
ATOM     15  H   UNL     1     151.454 166.972 186.176  0.00  0.00    +0.024 HD
ATOM     16  H   UNL     1     149.721 166.824 186.458  0.00  0.00    +0.024 HD
ENDBRANCH  11  13
BRANCH  11  17
ATOM     17  C   UNL     1     152.074 167.144 189.063  0.00  0.00    +0.081 C 
ATOM     18  H   UNL     1     152.740 167.744 188.428  0.00  0.00    +0.062 HD
BRANCH  17  19
ATOM     19  C   UNL     1     152.941 166.147 189.853  0.00  0.00    +0.038 C 
ATOM     20  H   UNL     1     153.152 165.258 189.246  0.00  0.00    +0.049 HD
ATOM     21  H   UNL     1     153.889 166.601 190.158  0.00  0.00    +0.049 HD
BRANCH  19  24
ATOM     22  C   UNL     1     152.752 166.061 192.345  0.00  0.00    +0.216 C 
ATOM     23  O   UNL     1     153.827 166.621 192.530  0.00  0.00    -0.276 OA
ATOM     24  N   UNL     1     152.272 165.751 191.092  0.00  0.00    -0.313 N 
ATOM     25  H   UNL     1     151.382 165.274 191.012  0.00  0.00    +0.149 HD
BRANCH  22  26
ATOM     26  C   UNL     1     151.847 165.596 193.463  0.00  0.00    +0.050 C 
ATOM     27  H   UNL     1     152.212 166.057 194.388  0.00  0.00    +0.038 HD
ATOM     28  H   UNL     1     151.952 164.515 193.614  0.00  0.00    +0.038 HD
BRANCH  26  33
ATOM     29  C   UNL     1     149.108 168.052 193.111  0.00  0.00    +0.066 C 
ATOM     30  C   UNL     1     147.926 167.096 193.012  0.00  0.00    -0.026 C 
ATOM     31  C   UNL     1     147.998 166.035 194.106  0.00  0.00    -0.046 C 
ATOM     32  C   UNL     1     149.438 165.590 194.418  0.00  0.00    -0.017 C 
ATOM     33  C   UNL     1     150.377 165.968 193.249  0.00  0.00    +0.070 C 
ATOM     34  O   UNL     1     150.361 167.378 192.954  0.00  0.00    -0.372 OA
ATOM     35  H   UNL     1     149.112 168.514 194.105  0.00  0.00    +0.060 HD
ATOM     36  H   UNL     1     146.976 167.636 193.085  0.00  0.00    +0.029 HD
ATOM     37  H   UNL     1     147.932 166.600 192.034  0.00  0.00    +0.029 HD
ATOM     38  H   UNL     1     147.502 166.409 195.008  0.00  0.00    +0.027 HD
ATOM     39  H   UNL     1     147.410 165.166 193.782  0.00  0.00    +0.027 HD
ATOM     40  H   UNL     1     149.419 164.497 194.525  0.00  0.00    +0.032 HD
ATOM     41  H   UNL     1     150.030 165.452 192.345  0.00  0.00    +0.060 HD
BRANCH  32  42
ATOM     42  C   UNL     1     149.899 166.146 195.772  0.00  0.00    -0.060 C 
ATOM     43  H   UNL     1     150.605 166.973 195.662  0.00  0.00    +0.023 HD
ATOM     44  H   UNL     1     150.381 165.370 196.367  0.00  0.00    +0.023 HD
ATOM     45  H   UNL     1     149.040 166.501 196.354  0.00  0.00    +0.023 HD
ENDBRANCH  32  42
BRANCH  29  46
ATOM     46  C   UNL     1     149.023 169.144 192.047  0.00  0.00    +0.036 C 
ATOM     47  H   UNL     1     148.029 169.600 192.015  0.00  0.00    +0.037 HD
ATOM     48  H   UNL     1     149.229 168.728 191.056  0.00  0.00    +0.037 HD
BRANCH  46  49
ATOM     49  C   UNL     1     150.004 170.255 192.358  0.00  0.00    +0.158 C 
ATOM     50  O   UNL     1     151.221 170.077 192.301  0.00  0.00    -0.293 OA
BRANCH  49  52
ATOM     51  C   UNL     1     148.137 171.859 192.548  0.00  0.00    -0.084 C 
ATOM     52  C   UNL     1     149.430 171.572 192.766  0.00  0.00    -0.023 C 
ATOM     53  H   UNL     1     147.492 171.121 192.073  0.00  0.00    +0.057 HD
ATOM     54  H   UNL     1     150.097 172.282 193.242  0.00  0.00    +0.065 HD
BRANCH  51  55
ATOM     55  C   UNL     1     147.506 173.162 192.904  0.00  0.00    -0.046 C 
ATOM     56  H   UNL     1     146.932 173.104 193.838  0.00  0.00    +0.027 HD
ATOM     57  H   UNL     1     146.829 173.494 192.105  0.00  0.00    +0.027 HD
ATOM     58  H   UNL     1     148.280 173.929 193.031  0.00  0.00    +0.027 HD
ENDBRANCH  51  55
ENDBRANCH  49  52
ENDBRANCH  46  49
ENDBRANCH  29  46
ENDBRANCH  26  33
ENDBRANCH  22  26
ENDBRANCH  19  24
ENDBRANCH  17  19
BRANCH  17  59
ATOM     59  O   UNL     1     151.463 168.058 189.993  0.00  0.00    -0.390 OA
ATOM     60  H   UNL     1     151.274 168.879 189.505  0.00  0.00    +0.210 HD
ENDBRANCH  17  59
ENDBRANCH  11  17
ENDBRANCH   7  11
ENDBRANCH   4   9
ENDBRANCH   1   4
BRANCH   1  61
ATOM     61  C   UNL     1     146.237 169.796 189.997  0.00  0.00    -0.025 C 
ATOM     62  H   UNL     1     146.755 169.470 190.909  0.00  0.00    +0.029 HD
ATOM     63  H   UNL     1     146.399 170.874 189.887  0.00  0.00    +0.029 HD
BRANCH  61  64
ATOM     64  C   UNL     1     144.732 169.499 190.122  0.00  0.00    +0.065 C 
ATOM     65  C   UNL     1     143.910 170.785 190.358  0.00  0.00    -0.017 C 
ATOM     66  C   UNL     1     142.564 170.473 191.038  0.00  0.00    -0.043 C 
ATOM     67  C   UNL     1     142.151 169.029 190.784  0.00  0.00    +0.002 C 
ATOM     68  C   UNL     1     143.229 168.041 191.285  0.00  0.00    +0.171 C 
ATOM     69  O   UNL     1     144.537 168.630 191.241  0.00  0.00    -0.345 OA
ATOM     70  C   UNL     1     142.959 167.642 192.744  0.00  0.00    +0.002 C 
ATOM     71  C   UNL     1     143.994 166.636 193.254  0.00  0.00    -0.046 C 
ATOM     72  C   UNL     1     144.550 165.765 192.131  0.00  0.00    -0.026 C 
ATOM     73  C   UNL     1     143.540 165.638 190.992  0.00  0.00    +0.062 C 
ATOM     74  O   UNL     1     143.177 166.901 190.418  0.00  0.00    -0.345 OA
ATOM     75  H   UNL     1     144.403 168.986 189.207  0.00  0.00    +0.060 HD
ATOM     76  H   UNL     1     144.460 171.447 191.042  0.00  0.00    +0.032 HD
ATOM     77  H   UNL     1     141.775 171.157 190.700  0.00  0.00    +0.027 HD
ATOM     78  H   UNL     1     142.665 170.630 192.121  0.00  0.00    +0.027 HD
ATOM     79  H   UNL     1     141.992 168.895 189.705  0.00  0.00    +0.032 HD
ATOM     80  H   UNL     1     141.177 168.817 191.250  0.00  0.00    +0.032 HD
ATOM     81  H   UNL     1     141.967 167.181 192.821  0.00  0.00    +0.032 HD
ATOM     82  H   UNL     1     142.962 168.515 193.405  0.00  0.00    +0.032 HD
ATOM     83  H   UNL     1     144.820 167.160 193.747  0.00  0.00    +0.027 HD
ATOM     84  H   UNL     1     143.529 166.009 194.024  0.00  0.00    +0.027 HD
ATOM     85  H   UNL     1     145.472 166.232 191.769  0.00  0.00    +0.029 HD
ATOM     86  H   UNL     1     144.825 164.781 192.528  0.00  0.00    +0.029 HD
ATOM     87  H   UNL     1     142.619 165.198 191.392  0.00  0.00    +0.060 HD
BRANCH  65  88
ATOM     88  C   UNL     1     143.699 171.562 189.050  0.00  0.00    -0.060 C 
ATOM     89  H   UNL     1     142.691 171.985 189.014  0.00  0.00    +0.023 HD
ATOM     90  H   UNL     1     143.826 170.907 188.181  0.00  0.00    +0.023 HD
ATOM     91  H   UNL     1     144.407 172.389 188.962  0.00  0.00    +0.023 HD
ENDBRANCH  65  88
BRANCH  73  92
ATOM     92  C   UNL     1     144.025 164.711 189.863  0.00  0.00    -0.026 C 
ATOM     93  H   UNL     1     144.982 164.265 190.173  0.00  0.00    +0.029 HD
ATOM     94  H   UNL     1     144.206 165.310 188.961  0.00  0.00    +0.029 HD
BRANCH  92  95
ATOM     95  C   UNL     1     143.045 163.569 189.556  0.00  0.00    -0.045 C 
ATOM     96  H   UNL     1     142.209 163.949 188.959  0.00  0.00    +0.027 HD
ATOM     97  H   UNL     1     142.621 163.205 190.501  0.00  0.00    +0.027 HD
BRANCH  95  98
ATOM     98  C   UNL     1     143.695 162.376 188.822  0.00  0.00    -0.025 C 
ATOM     99  H   UNL     1     144.735 162.308 189.152  0.00  0.00    +0.034 HD
BRANCH  98 100
ATOM    100  C   UNL     1     143.690 162.551 187.305  0.00  0.00    -0.059 C 
ATOM    101  H   UNL     1     143.083 163.412 187.002  0.00  0.00    +0.024 HD
ATOM    102  H   UNL     1     143.286 161.658 186.810  0.00  0.00    +0.024 HD
ATOM    103  H   UNL     1     144.705 162.701 186.924  0.00  0.00    +0.024 HD
ENDBRANCH  98 100
BRANCH  98 104
ATOM    104  C   UNL     1     142.928 161.122 189.189  0.00  0.00    -0.080 C 
ATOM    105  C   UNL     1     143.414 159.927 189.591  0.00  0.00    -0.048 C 
ATOM    106  H   UNL     1     141.846 161.251 189.149  0.00  0.00    +0.058 HD
BRANCH 105 107
ATOM    107  C   UNL     1     144.884 159.601 189.668  0.00  0.00    -0.041 C 
ATOM    108  H   UNL     1     145.480 160.430 189.271  0.00  0.00    +0.028 HD
ATOM    109  H   UNL     1     145.157 158.700 189.113  0.00  0.00    +0.028 HD
ATOM    110  H   UNL     1     145.193 159.421 190.702  0.00  0.00    +0.028 HD
ENDBRANCH 105 107
BRANCH 105 111
ATOM    111  C   UNL     1     142.469 158.822 190.018  0.00  0.00    +0.073 C 
ATOM    112  H   UNL     1     141.741 159.205 190.742  0.00  0.00    +0.064 HD
BRANCH 111 113
ATOM    113  C   UNL     1     143.201 157.645 190.649  0.00  0.00    -0.035 C 
ATOM    114  H   UNL     1     142.662 157.258 191.523  0.00  0.00    +0.026 HD
ATOM    115  H   UNL     1     143.342 156.825 189.938  0.00  0.00    +0.026 HD
ATOM    116  H   UNL     1     144.187 157.957 191.012  0.00  0.00    +0.026 HD
ENDBRANCH 111 113
BRANCH 111 117
ATOM    117  O   UNL     1     141.729 158.386 188.882  0.00  0.00    -0.388 OA
ATOM    118  H   UNL     1     141.823 159.068 188.199  0.00  0.00    +0.210 HD
ENDBRANCH 111 117
ENDBRANCH 105 111
ENDBRANCH  98 104
ENDBRANCH  95  98
ENDBRANCH  92  95
ENDBRANCH  73  92
ENDBRANCH  61  64
ENDBRANCH   1  61
TORSDOF 27
ENDMDL
MODEL 5
REMARK VINA RESULT:      -5.8      7.007     11.376
REMARK  Name = Bistramide A_conf2
REMARK  27 active torsions:
REMARK  status: ('A' for Active; 'I' for Inactive)
REMARK    1  A    between atoms: C_1  and  C_2
REMARK    2  A    between atoms: C_3  and  C_4
REMARK    3  A    between atoms: C_4  and  C_6
REMARK    4  A    between atoms: C_6  and  C_7
REMARK    5  A    between atoms: C_10  and  C_50
REMARK    6  A    between atoms: C_11  and  C_13
REMARK    7  A    between atoms: C_13  and  C_14
REMARK    8  A    between atoms: N_16  and  C_17
REMARK    9  A    between atoms: C_17  and  C_18
REMARK   10  A    between atoms: C_18  and  C_19
REMARK   11  A    between atoms: C_18  and  O_49
REMARK   12  A    between atoms: C_19  and  C_20
REMARK   13  A    between atoms: C_19  and  C_21
REMARK   14  A    between atoms: N_23  and  C_24
REMARK   15  A    between atoms: C_24  and  C_25
REMARK   16  A    between atoms: C_25  and  C_26
REMARK   17  A    between atoms: C_26  and  C_27
REMARK   18  A    between atoms: C_28  and  C_48
REMARK   19  A    between atoms: C_36  and  C_38
REMARK   20  A    between atoms: C_38  and  C_39
REMARK   21  A    between atoms: C_39  and  C_40
REMARK   22  A    between atoms: C_40  and  C_41
REMARK   23  A    between atoms: C_40  and  C_42
REMARK   24  A    between atoms: C_43  and  C_44
REMARK   25  A    between atoms: C_43  and  C_45
REMARK   26  A    between atoms: C_45  and  C_46
REMARK   27  A    between atoms: C_45  and  O_47
REMARK                            x       y       z     vdW  Elec       q    Type
REMARK                         _______ _______ _______ _____ _____    ______ ____
ROOT
ATOM      1  C   UNL     1     149.651 166.497 188.544  0.00  0.00    -0.035 C 
ATOM      2  H   UNL     1     150.317 166.835 189.344  0.00  0.00    +0.028 HD
ATOM      3  H   UNL     1     149.692 165.399 188.542  0.00  0.00    +0.028 HD
ENDROOT
BRANCH   1   4
ATOM      4  C   UNL     1     150.163 167.006 187.203  0.00  0.00    +0.012 C 
ATOM      5  H   UNL     1     149.449 166.762 186.403  0.00  0.00    +0.046 HD
ATOM      6  H   UNL     1     150.289 168.094 187.226  0.00  0.00    +0.046 HD
BRANCH   4   9
ATOM      7  C   UNL     1     152.601 166.702 187.491  0.00  0.00    +0.218 C 
ATOM      8  O   UNL     1     152.701 167.630 188.288  0.00  0.00    -0.275 OA
ATOM      9  N   UNL     1     151.419 166.371 186.863  0.00  0.00    -0.315 N 
ATOM     10  H   UNL     1     151.407 165.604 186.205  0.00  0.00    +0.149 HD
BRANCH   7  11
ATOM     11  C   UNL     1     153.798 165.868 187.029  0.00  0.00    +0.060 C 
ATOM     12  H   UNL     1     153.861 164.978 187.674  0.00  0.00    +0.042 HD
BRANCH  11  13
ATOM     13  C   UNL     1     153.499 165.416 185.598  0.00  0.00    -0.052 C 
ATOM     14  H   UNL     1     152.447 165.121 185.490  0.00  0.00    +0.024 HD
ATOM     15  H   UNL     1     153.682 166.223 184.881  0.00  0.00    +0.024 HD
ATOM     16  H   UNL     1     154.127 164.572 185.306  0.00  0.00    +0.024 HD
ENDBRANCH  11  13
BRANCH  11  17
ATOM     17  C   UNL     1     155.087 166.698 187.192  0.00  0.00    +0.081 C 
ATOM     18  H   UNL     1     154.921 167.752 186.930  0.00  0.00    +0.062 HD
BRANCH  17  19
ATOM     19  C   UNL     1     156.292 166.191 186.379  0.00  0.00    +0.038 C 
ATOM     20  H   UNL     1     156.682 165.261 186.810  0.00  0.00    +0.049 HD
ATOM     21  H   UNL     1     156.018 166.010 185.335  0.00  0.00    +0.049 HD
BRANCH  19  24
ATOM     22  C   UNL     1     158.508 167.059 185.610  0.00  0.00    +0.216 C 
ATOM     23  O   UNL     1     158.789 166.036 184.993  0.00  0.00    -0.276 OA
ATOM     24  N   UNL     1     157.350 167.200 186.342  0.00  0.00    -0.313 N 
ATOM     25  H   UNL     1     157.188 168.067 186.841  0.00  0.00    +0.149 HD
BRANCH  22  26
ATOM     26  C   UNL     1     159.414 168.267 185.686  0.00  0.00    +0.050 C 
ATOM     27  H   UNL     1     160.329 168.019 185.135  0.00  0.00    +0.038 HD
ATOM     28  H   UNL     1     159.733 168.439 186.721  0.00  0.00    +0.038 HD
BRANCH  26  33
ATOM     29  C   UNL     1     157.366 170.047 183.177  0.00  0.00    +0.066 C 
ATOM     30  C   UNL     1     157.578 171.479 183.653  0.00  0.00    -0.026 C 
ATOM     31  C   UNL     1     159.058 171.749 183.908  0.00  0.00    -0.046 C 
ATOM     32  C   UNL     1     159.799 170.533 184.491  0.00  0.00    -0.017 C 
ATOM     33  C   UNL     1     158.787 169.534 185.099  0.00  0.00    +0.070 C 
ATOM     34  O   UNL     1     157.803 169.088 184.146  0.00  0.00    -0.372 OA
ATOM     35  H   UNL     1     157.957 169.881 182.269  0.00  0.00    +0.060 HD
ATOM     36  H   UNL     1     157.193 172.197 182.922  0.00  0.00    +0.029 HD
ATOM     37  H   UNL     1     157.020 171.646 184.582  0.00  0.00    +0.029 HD
ATOM     38  H   UNL     1     159.531 172.085 182.979  0.00  0.00    +0.027 HD
ATOM     39  H   UNL     1     159.139 172.593 184.605  0.00  0.00    +0.027 HD
ATOM     40  H   UNL     1     160.455 170.910 185.287  0.00  0.00    +0.032 HD
ATOM     41  H   UNL     1     158.240 170.040 185.904  0.00  0.00    +0.060 HD
BRANCH  32  42
ATOM     42  C   UNL     1     160.720 169.900 183.439  0.00  0.00    -0.060 C 
ATOM     43  H   UNL     1     160.870 170.549 182.573  0.00  0.00    +0.023 HD
ATOM     44  H   UNL     1     160.312 168.954 183.084  0.00  0.00    +0.023 HD
ATOM     45  H   UNL     1     161.702 169.676 183.875  0.00  0.00    +0.023 HD
ENDBRANCH  32  42
BRANCH  29  46
ATOM     46  C   UNL     1     155.893 169.779 182.879  0.00  0.00    +0.036 C 
ATOM     47  H   UNL     1     155.240 170.231 183.631  0.00  0.00    +0.037 HD
ATOM     48  H   UNL     1     155.694 168.702 182.871  0.00  0.00    +0.037 HD
BRANCH  46  49
ATOM     49  C   UNL     1     155.511 170.387 181.545  0.00  0.00    +0.158 C 
ATOM     50  O   UNL     1     156.151 170.153 180.521  0.00  0.00    -0.293 OA
BRANCH  49  52
ATOM     51  C   UNL     1     154.423 172.548 182.039  0.00  0.00    -0.084 C 
ATOM     52  C   UNL     1     154.335 171.309 181.533  0.00  0.00    -0.023 C 
ATOM     53  H   UNL     1     155.367 172.894 182.460  0.00  0.00    +0.057 HD
ATOM     54  H   UNL     1     153.413 170.936 181.102  0.00  0.00    +0.065 HD
BRANCH  51  55
ATOM     55  C   UNL     1     153.284 173.509 182.084  0.00  0.00    -0.046 C 
ATOM     56  H   UNL     1     152.328 173.030 181.835  0.00  0.00    +0.027 HD
ATOM     57  H   UNL     1     153.448 174.335 181.379  0.00  0.00    +0.027 HD
ATOM     58  H   UNL     1     153.196 173.936 183.090  0.00  0.00    +0.027 HD
ENDBRANCH  51  55
ENDBRANCH  49  52
ENDBRANCH  46  49
ENDBRANCH  29  46
ENDBRANCH  26  33
ENDBRANCH  22  26
ENDBRANCH  19  24
ENDBRANCH  17  19
BRANCH  17  59
ATOM     59  O   UNL     1     155.432 166.672 188.589  0.00  0.00    -0.390 OA
ATOM     60  H   UNL     1     156.199 166.081 188.683  0.00  0.00    +0.210 HD
ENDBRANCH  17  59
ENDBRANCH  11  17
ENDBRANCH   7  11
ENDBRANCH   4   9
ENDBRANCH   1   4
BRANCH   1  61
ATOM     61  C   UNL     1     148.217 166.953 188.822  0.00  0.00    -0.025 C 
ATOM     62  H   UNL     1     147.883 167.573 187.979  0.00  0.00    +0.029 HD
ATOM     63  H   UNL     1     147.562 166.075 188.871  0.00  0.00    +0.029 HD
BRANCH  61  64
ATOM     64  C   UNL     1     148.117 167.760 190.129  0.00  0.00    +0.065 C 
ATOM     65  C   UNL     1     147.164 168.967 189.988  0.00  0.00    -0.017 C 
ATOM     66  C   UNL     1     147.486 170.059 191.025  0.00  0.00    -0.043 C 
ATOM     67  C   UNL     1     148.217 169.468 192.224  0.00  0.00    +0.002 C 
ATOM     68  C   UNL     1     149.520 168.758 191.793  0.00  0.00    +0.171 C 
ATOM     69  O   UNL     1     149.420 168.251 190.454  0.00  0.00    -0.345 OA
ATOM     70  C   UNL     1     150.704 169.738 191.820  0.00  0.00    +0.002 C 
ATOM     71  C   UNL     1     152.014 169.051 191.430  0.00  0.00    -0.046 C 
ATOM     72  C   UNL     1     152.015 167.569 191.794  0.00  0.00    -0.026 C 
ATOM     73  C   UNL     1     151.081 167.299 192.972  0.00  0.00    +0.062 C 
ATOM     74  O   UNL     1     149.723 167.676 192.711  0.00  0.00    -0.345 OA
ATOM     75  H   UNL     1     147.778 167.084 190.927  0.00  0.00    +0.060 HD
ATOM     76  H   UNL     1     147.302 169.425 188.999  0.00  0.00    +0.032 HD
ATOM     77  H   UNL     1     146.579 170.581 191.355  0.00  0.00    +0.027 HD
ATOM     78  H   UNL     1     148.126 170.819 190.556  0.00  0.00    +0.027 HD
ATOM     79  H   UNL     1     147.548 168.754 192.724  0.00  0.00    +0.032 HD
ATOM     80  H   UNL     1     148.423 170.247 192.974  0.00  0.00    +0.032 HD
ATOM     81  H   UNL     1     150.818 170.147 192.831  0.00  0.00    +0.032 HD
ATOM     82  H   UNL     1     150.536 170.586 191.146  0.00  0.00    +0.032 HD
ATOM     83  H   UNL     1     152.192 169.158 190.355  0.00  0.00    +0.027 HD
ATOM     84  H   UNL     1     152.845 169.564 191.928  0.00  0.00    +0.027 HD
ATOM     85  H   UNL     1     151.688 167.006 190.913  0.00  0.00    +0.029 HD
ATOM     86  H   UNL     1     153.038 167.245 192.017  0.00  0.00    +0.029 HD
ATOM     87  H   UNL     1     151.417 167.899 193.825  0.00  0.00    +0.060 HD
BRANCH  65  88
ATOM     88  C   UNL     1     145.693 168.533 190.084  0.00  0.00    -0.060 C 
ATOM     89  H   UNL     1     145.589 167.474 189.830  0.00  0.00    +0.023 HD
ATOM     90  H   UNL     1     145.069 169.113 189.396  0.00  0.00    +0.023 HD
ATOM     91  H   UNL     1     145.306 168.670 191.096  0.00  0.00    +0.023 HD
ENDBRANCH  65  88
BRANCH  73  92
ATOM     92  C   UNL     1     151.100 165.827 193.425  0.00  0.00    -0.026 C 
ATOM     93  H   UNL     1     151.747 165.265 192.736  0.00  0.00    +0.029 HD
ATOM     94  H   UNL     1     150.085 165.417 193.348  0.00  0.00    +0.029 HD
BRANCH  92  95
ATOM     95  C   UNL     1     151.644 165.641 194.848  0.00  0.00    -0.045 C 
ATOM     96  H   UNL     1     152.193 166.537 195.156  0.00  0.00    +0.027 HD
ATOM     97  H   UNL     1     152.364 164.812 194.845  0.00  0.00    +0.027 HD
BRANCH  95  98
ATOM     98  C   UNL     1     150.550 165.332 195.893  0.00  0.00    -0.025 C 
ATOM     99  H   UNL     1     150.631 166.076 196.690  0.00  0.00    +0.034 HD
BRANCH  98 100
ATOM    100  C   UNL     1     150.713 163.948 196.518  0.00  0.00    -0.059 C 
ATOM    101  H   UNL     1     150.212 163.176 195.922  0.00  0.00    +0.024 HD
ATOM    102  H   UNL     1     150.290 163.925 197.532  0.00  0.00    +0.024 HD
ATOM    103  H   UNL     1     151.771 163.678 196.603  0.00  0.00    +0.024 HD
ENDBRANCH  98 100
BRANCH  98 104
ATOM    104  C   UNL     1     149.202 165.420 195.207  0.00  0.00    -0.080 C 
ATOM    105  C   UNL     1     148.084 166.051 195.628  0.00  0.00    -0.048 C 
ATOM    106  H   UNL     1     149.182 164.934 194.231  0.00  0.00    +0.058 HD
BRANCH 105 107
ATOM    107  C   UNL     1     147.962 166.741 196.963  0.00  0.00    -0.041 C 
ATOM    108  H   UNL     1     146.936 167.093 197.119  0.00  0.00    +0.028 HD
ATOM    109  H   UNL     1     148.627 167.602 197.068  0.00  0.00    +0.028 HD
ATOM    110  H   UNL     1     148.219 166.063 197.782  0.00  0.00    +0.028 HD
ENDBRANCH 105 107
BRANCH 105 111
ATOM    111  C   UNL     1     146.860 166.114 194.738  0.00  0.00    +0.073 C 
ATOM    112  H   UNL     1     146.322 167.057 194.897  0.00  0.00    +0.064 HD
BRANCH 111 113
ATOM    113  C   UNL     1     145.897 164.962 194.992  0.00  0.00    -0.035 C 
ATOM    114  H   UNL     1     145.841 164.713 196.059  0.00  0.00    +0.026 HD
ATOM    115  H   UNL     1     144.888 165.190 194.635  0.00  0.00    +0.026 HD
ATOM    116  H   UNL     1     146.244 164.054 194.484  0.00  0.00    +0.026 HD
ENDBRANCH 111 113
BRANCH 111 117
ATOM    117  O   UNL     1     147.281 166.107 193.377  0.00  0.00    -0.388 OA
ATOM    118  H   UNL     1     146.552 166.470 192.849  0.00  0.00    +0.210 HD
ENDBRANCH 111 117
ENDBRANCH 105 111
ENDBRANCH  98 104
ENDBRANCH  95  98
ENDBRANCH  92  95
ENDBRANCH  73  92
ENDBRANCH  61  64
ENDBRANCH   1  61
TORSDOF 27
ENDMDL
MODEL 6
REMARK VINA RESULT:      -5.7      8.253     11.496
REMARK  Name = Bistramide A_conf2
REMARK  27 active torsions:
REMARK  status: ('A' for Active; 'I' for Inactive)
REMARK    1  A    between atoms: C_1  and  C_2
REMARK    2  A    between atoms: C_3  and  C_4
REMARK    3  A    between atoms: C_4  and  C_6
REMARK    4  A    between atoms: C_6  and  C_7
REMARK    5  A    between atoms: C_10  and  C_50
REMARK    6  A    between atoms: C_11  and  C_13
REMARK    7  A    between atoms: C_13  and  C_14
REMARK    8  A    between atoms: N_16  and  C_17
REMARK    9  A    between atoms: C_17  and  C_18
REMARK   10  A    between atoms: C_18  and  C_19
REMARK   11  A    between atoms: C_18  and  O_49
REMARK   12  A    between atoms: C_19  and  C_20
REMARK   13  A    between atoms: C_19  and  C_21
REMARK   14  A    between atoms: N_23  and  C_24
REMARK   15  A    between atoms: C_24  and  C_25
REMARK   16  A    between atoms: C_25  and  C_26
REMARK   17  A    between atoms: C_26  and  C_27
REMARK   18  A    between atoms: C_28  and  C_48
REMARK   19  A    between atoms: C_36  and  C_38
REMARK   20  A    between atoms: C_38  and  C_39
REMARK   21  A    between atoms: C_39  and  C_40
REMARK   22  A    between atoms: C_40  and  C_41
REMARK   23  A    between atoms: C_40  and  C_42
REMARK   24  A    between atoms: C_43  and  C_44
REMARK   25  A    between atoms: C_43  and  C_45
REMARK   26  A    between atoms: C_45  and  C_46
REMARK   27  A    between atoms: C_45  and  O_47
REMARK                            x       y       z     vdW  Elec       q    Type
REMARK                         _______ _______ _______ _____ _____    ______ ____
ROOT
ATOM      1  C   UNL     1     156.163 168.248 184.554  0.00  0.00    -0.035 C 
ATOM      2  H   UNL     1     155.146 168.454 184.208  0.00  0.00    +0.028 HD
ATOM      3  H   UNL     1     156.747 167.963 183.668  0.00  0.00    +0.028 HD
ENDROOT
BRANCH   1   4
ATOM      4  C   UNL     1     156.146 167.075 185.524  0.00  0.00    +0.012 C 
ATOM      5  H   UNL     1     155.803 166.163 185.016  0.00  0.00    +0.046 HD
ATOM      6  H   UNL     1     157.149 166.886 185.921  0.00  0.00    +0.046 HD
BRANCH   4   9
ATOM      7  C   UNL     1     154.087 166.573 186.802  0.00  0.00    +0.218 C 
ATOM      8  O   UNL     1     153.709 165.719 186.005  0.00  0.00    -0.275 OA
ATOM      9  N   UNL     1     155.225 167.328 186.614  0.00  0.00    -0.315 N 
ATOM     10  H   UNL     1     155.474 168.026 187.301  0.00  0.00    +0.149 HD
BRANCH   7  11
ATOM     11  C   UNL     1     153.288 166.963 188.047  0.00  0.00    +0.060 C 
ATOM     12  H   UNL     1     153.641 167.950 188.382  0.00  0.00    +0.042 HD
BRANCH  11  13
ATOM     13  C   UNL     1     151.825 167.087 187.614  0.00  0.00    -0.052 C 
ATOM     14  H   UNL     1     151.485 168.129 187.666  0.00  0.00    +0.024 HD
ATOM     15  H   UNL     1     151.688 166.754 186.580  0.00  0.00    +0.024 HD
ATOM     16  H   UNL     1     151.170 166.478 188.242  0.00  0.00    +0.024 HD
ENDBRANCH  11  13
BRANCH  11  17
ATOM     17  C   UNL     1     153.550 165.931 189.162  0.00  0.00    +0.081 C 
ATOM     18  H   UNL     1     152.677 165.283 189.322  0.00  0.00    +0.062 HD
BRANCH  17  19
ATOM     19  C   UNL     1     153.952 166.532 190.521  0.00  0.00    +0.038 C 
ATOM     20  H   UNL     1     155.003 166.311 190.742  0.00  0.00    +0.049 HD
ATOM     21  H   UNL     1     153.807 167.617 190.532  0.00  0.00    +0.049 HD
BRANCH  19  24
ATOM     22  C   UNL     1     153.159 166.448 192.892  0.00  0.00    +0.216 C 
ATOM     23  O   UNL     1     153.990 167.260 193.287  0.00  0.00    -0.276 OA
ATOM     24  N   UNL     1     153.101 166.006 191.588  0.00  0.00    -0.313 N 
ATOM     25  H   UNL     1     152.399 165.321 191.333  0.00  0.00    +0.149 HD
BRANCH  22  26
ATOM     26  C   UNL     1     152.135 165.794 193.790  0.00  0.00    +0.050 C 
ATOM     27  H   UNL     1     152.132 166.350 194.736  0.00  0.00    +0.038 HD
ATOM     28  H   UNL     1     152.449 164.777 194.050  0.00  0.00    +0.038 HD
BRANCH  26  33
ATOM     29  C   UNL     1     149.153 167.482 192.406  0.00  0.00    +0.066 C 
ATOM     30  C   UNL     1     148.243 166.274 192.227  0.00  0.00    -0.026 C 
ATOM     31  C   UNL     1     148.239 165.411 193.485  0.00  0.00    -0.046 C 
ATOM     32  C   UNL     1     149.611 165.356 194.180  0.00  0.00    -0.017 C 
ATOM     33  C   UNL     1     150.724 165.785 193.195  0.00  0.00    +0.070 C 
ATOM     34  O   UNL     1     150.511 167.102 192.652  0.00  0.00    -0.372 OA
ATOM     35  H   UNL     1     148.817 168.059 193.275  0.00  0.00    +0.060 HD
ATOM     36  H   UNL     1     147.219 166.585 191.990  0.00  0.00    +0.029 HD
ATOM     37  H   UNL     1     148.591 165.669 191.382  0.00  0.00    +0.029 HD
ATOM     38  H   UNL     1     147.468 165.776 194.173  0.00  0.00    +0.027 HD
ATOM     39  H   UNL     1     147.931 164.396 193.206  0.00  0.00    +0.027 HD
ATOM     40  H   UNL     1     149.777 164.313 194.479  0.00  0.00    +0.032 HD
ATOM     41  H   UNL     1     150.723 165.089 192.348  0.00  0.00    +0.060 HD
BRANCH  32  42
ATOM     42  C   UNL     1     149.599 166.177 195.477  0.00  0.00    -0.060 C 
ATOM     43  H   UNL     1     150.318 166.999 195.455  0.00  0.00    +0.023 HD
ATOM     44  H   UNL     1     149.832 165.549 196.337  0.00  0.00    +0.023 HD
ATOM     45  H   UNL     1     148.601 166.597 195.656  0.00  0.00    +0.023 HD
ENDBRANCH  32  42
BRANCH  29  46
ATOM     46  C   UNL     1     149.131 168.375 191.167  0.00  0.00    +0.036 C 
ATOM     47  H   UNL     1     148.776 167.833 190.285  0.00  0.00    +0.037 HD
ATOM     48  H   UNL     1     150.137 168.746 190.945  0.00  0.00    +0.037 HD
BRANCH  46  49
ATOM     49  C   UNL     1     148.184 169.538 191.377  0.00  0.00    +0.158 C 
ATOM     50  O   UNL     1     146.966 169.409 191.255  0.00  0.00    -0.293 OA
BRANCH  49  52
ATOM     51  C   UNL     1     148.858 171.289 192.983  0.00  0.00    -0.084 C 
ATOM     52  C   UNL     1     148.796 170.859 191.713  0.00  0.00    -0.023 C 
ATOM     53  H   UNL     1     148.464 170.666 193.785  0.00  0.00    +0.057 HD
ATOM     54  H   UNL     1     149.184 171.452 190.893  0.00  0.00    +0.065 HD
BRANCH  51  55
ATOM     55  C   UNL     1     149.429 172.606 193.385  0.00  0.00    -0.046 C 
ATOM     56  H   UNL     1     150.117 172.518 194.236  0.00  0.00    +0.027 HD
ATOM     57  H   UNL     1     148.628 173.305 193.662  0.00  0.00    +0.027 HD
ATOM     58  H   UNL     1     149.984 173.044 192.546  0.00  0.00    +0.027 HD
ENDBRANCH  51  55
ENDBRANCH  49  52
ENDBRANCH  46  49
ENDBRANCH  29  46
ENDBRANCH  26  33
ENDBRANCH  22  26
ENDBRANCH  19  24
ENDBRANCH  17  19
BRANCH  17  59
ATOM     59  O   UNL     1     154.614 165.077 188.704  0.00  0.00    -0.390 OA
ATOM     60  H   UNL     1     155.355 165.655 188.451  0.00  0.00    +0.210 HD
ENDBRANCH  17  59
ENDBRANCH  11  17
ENDBRANCH   7  11
ENDBRANCH   4   9
ENDBRANCH   1   4
BRANCH   1  61
ATOM     61  C   UNL     1     156.772 169.504 185.183  0.00  0.00    -0.025 C 
ATOM     62  H   UNL     1     155.954 170.186 185.452  0.00  0.00    +0.029 HD
ATOM     63  H   UNL     1     157.296 169.228 186.106  0.00  0.00    +0.029 HD
BRANCH  61  64
ATOM     64  C   UNL     1     157.741 170.212 184.219  0.00  0.00    +0.065 C 
ATOM     65  C   UNL     1     159.204 170.125 184.709  0.00  0.00    -0.017 C 
ATOM     66  C   UNL     1     160.061 171.259 184.117  0.00  0.00    -0.043 C 
ATOM     67  C   UNL     1     159.444 171.789 182.829  0.00  0.00    +0.002 C 
ATOM     68  C   UNL     1     158.002 172.293 183.062  0.00  0.00    +0.171 C 
ATOM     69  O   UNL     1     157.374 171.592 184.146  0.00  0.00    -0.345 OA
ATOM     70  C   UNL     1     158.004 173.785 183.428  0.00  0.00    +0.002 C 
ATOM     71  C   UNL     1     156.584 174.318 183.632  0.00  0.00    -0.046 C 
ATOM     72  C   UNL     1     155.561 173.560 182.791  0.00  0.00    -0.026 C 
ATOM     73  C   UNL     1     156.214 172.968 181.545  0.00  0.00    +0.062 C 
ATOM     74  O   UNL     1     157.281 172.059 181.846  0.00  0.00    -0.345 OA
ATOM     75  H   UNL     1     157.633 169.758 183.224  0.00  0.00    +0.060 HD
ATOM     76  H   UNL     1     159.230 170.250 185.800  0.00  0.00    +0.032 HD
ATOM     77  H   UNL     1     161.092 170.932 183.935  0.00  0.00    +0.027 HD
ATOM     78  H   UNL     1     160.122 172.079 184.846  0.00  0.00    +0.027 HD
ATOM     79  H   UNL     1     159.443 170.981 182.084  0.00  0.00    +0.032 HD
ATOM     80  H   UNL     1     160.072 172.581 182.396  0.00  0.00    +0.032 HD
ATOM     81  H   UNL     1     158.473 174.359 182.620  0.00  0.00    +0.032 HD
ATOM     82  H   UNL     1     158.585 173.974 184.338  0.00  0.00    +0.032 HD
ATOM     83  H   UNL     1     156.303 174.253 184.688  0.00  0.00    +0.027 HD
ATOM     84  H   UNL     1     156.566 175.385 183.379  0.00  0.00    +0.027 HD
ATOM     85  H   UNL     1     155.139 172.763 183.414  0.00  0.00    +0.029 HD
ATOM     86  H   UNL     1     154.734 174.229 182.525  0.00  0.00    +0.029 HD
ATOM     87  H   UNL     1     156.652 173.785 180.961  0.00  0.00    +0.060 HD
BRANCH  65  88
ATOM     88  C   UNL     1     159.817 168.751 184.396  0.00  0.00    -0.060 C 
ATOM     89  H   UNL     1     160.910 168.807 184.415  0.00  0.00    +0.023 HD
ATOM     90  H   UNL     1     159.510 168.403 183.404  0.00  0.00    +0.023 HD
ATOM     91  H   UNL     1     159.512 168.005 185.132  0.00  0.00    +0.023 HD
ENDBRANCH  65  88
BRANCH  73  92
ATOM     92  C   UNL     1     155.208 172.251 180.625  0.00  0.00    -0.026 C 
ATOM     93  H   UNL     1     155.743 171.451 180.091  0.00  0.00    +0.029 HD
ATOM     94  H   UNL     1     154.833 172.964 179.881  0.00  0.00    +0.029 HD
BRANCH  92  95
ATOM     95  C   UNL     1     154.040 171.613 181.390  0.00  0.00    -0.045 C 
ATOM     96  H   UNL     1     153.930 172.095 182.368  0.00  0.00    +0.027 HD
ATOM     97  H   UNL     1     154.276 170.558 181.581  0.00  0.00    +0.027 HD
BRANCH  95  98
ATOM     98  C   UNL     1     152.695 171.681 180.635  0.00  0.00    -0.025 C 
ATOM     99  H   UNL     1     151.903 171.412 181.340  0.00  0.00    +0.034 HD
BRANCH  98 100
ATOM    100  C   UNL     1     152.634 170.708 179.460  0.00  0.00    -0.059 C 
ATOM    101  H   UNL     1     153.278 171.035 178.635  0.00  0.00    +0.024 HD
ATOM    102  H   UNL     1     151.608 170.620 179.078  0.00  0.00    +0.024 HD
ATOM    103  H   UNL     1     152.954 169.707 179.763  0.00  0.00    +0.024 HD
ENDBRANCH  98 100
BRANCH  98 104
ATOM    104  C   UNL     1     152.508 173.098 180.130  0.00  0.00    -0.080 C 
ATOM    105  C   UNL     1     152.040 174.174 180.799  0.00  0.00    -0.048 C 
ATOM    106  H   UNL     1     152.843 173.236 179.101  0.00  0.00    +0.058 HD
BRANCH 105 107
ATOM    107  C   UNL     1     151.522 174.124 182.213  0.00  0.00    -0.041 C 
ATOM    108  H   UNL     1     152.285 174.482 182.913  0.00  0.00    +0.028 HD
ATOM    109  H   UNL     1     151.225 173.121 182.530  0.00  0.00    +0.028 HD
ATOM    110  H   UNL     1     150.632 174.749 182.328  0.00  0.00    +0.028 HD
ENDBRANCH 105 107
BRANCH 105 111
ATOM    111  C   UNL     1     152.032 175.539 180.141  0.00  0.00    +0.073 C 
ATOM    112  H   UNL     1     151.573 175.479 179.147  0.00  0.00    +0.064 HD
BRANCH 111 113
ATOM    113  C   UNL     1     153.432 176.119 179.989  0.00  0.00    -0.035 C 
ATOM    114  H   UNL     1     153.585 176.545 178.990  0.00  0.00    +0.026 HD
ATOM    115  H   UNL     1     153.633 176.896 180.732  0.00  0.00    +0.026 HD
ATOM    116  H   UNL     1     154.187 175.331 180.104  0.00  0.00    +0.026 HD
ENDBRANCH 111 113
BRANCH 111 117
ATOM    117  O   UNL     1     151.221 176.418 180.915  0.00  0.00    -0.388 OA
ATOM    118  H   UNL     1     151.795 177.132 181.234  0.00  0.00    +0.210 HD
ENDBRANCH 111 117
ENDBRANCH 105 111
ENDBRANCH  98 104
ENDBRANCH  95  98
ENDBRANCH  92  95
ENDBRANCH  73  92
ENDBRANCH  61  64
ENDBRANCH   1  61
TORSDOF 27
ENDMDL
MODEL 7
REMARK VINA RESULT:      -5.7      7.688     11.062
REMARK  Name = Bistramide A_conf2
REMARK  27 active torsions:
REMARK  status: ('A' for Active; 'I' for Inactive)
REMARK    1  A    between atoms: C_1  and  C_2
REMARK    2  A    between atoms: C_3  and  C_4
REMARK    3  A    between atoms: C_4  and  C_6
REMARK    4  A    between atoms: C_6  and  C_7
REMARK    5  A    between atoms: C_10  and  C_50
REMARK    6  A    between atoms: C_11  and  C_13
REMARK    7  A    between atoms: C_13  and  C_14
REMARK    8  A    between atoms: N_16  and  C_17
REMARK    9  A    between atoms: C_17  and  C_18
REMARK   10  A    between atoms: C_18  and  C_19
REMARK   11  A    between atoms: C_18  and  O_49
REMARK   12  A    between atoms: C_19  and  C_20
REMARK   13  A    between atoms: C_19  and  C_21
REMARK   14  A    between atoms: N_23  and  C_24
REMARK   15  A    between atoms: C_24  and  C_25
REMARK   16  A    between atoms: C_25  and  C_26
REMARK   17  A    between atoms: C_26  and  C_27
REMARK   18  A    between atoms: C_28  and  C_48
REMARK   19  A    between atoms: C_36  and  C_38
REMARK   20  A    between atoms: C_38  and  C_39
REMARK   21  A    between atoms: C_39  and  C_40
REMARK   22  A    between atoms: C_40  and  C_41
REMARK   23  A    between atoms: C_40  and  C_42
REMARK   24  A    between atoms: C_43  and  C_44
REMARK   25  A    between atoms: C_43  and  C_45
REMARK   26  A    between atoms: C_45  and  C_46
REMARK   27  A    between atoms: C_45  and  O_47
REMARK                            x       y       z     vdW  Elec       q    Type
REMARK                         _______ _______ _______ _____ _____    ______ ____
ROOT
ATOM      1  C   UNL     1     151.828 165.696 187.745  0.00  0.00    -0.035 C 
ATOM      2  H   UNL     1     152.031 164.932 188.501  0.00  0.00    +0.028 HD
ATOM      3  H   UNL     1     150.735 165.777 187.664  0.00  0.00    +0.028 HD
ENDROOT
BRANCH   1   4
ATOM      4  C   UNL     1     152.384 165.246 186.401  0.00  0.00    +0.012 C 
ATOM      5  H   UNL     1     152.491 164.153 186.377  0.00  0.00    +0.046 HD
ATOM      6  H   UNL     1     151.712 165.540 185.587  0.00  0.00    +0.046 HD
BRANCH   4   9
ATOM      7  C   UNL     1     154.847 165.049 186.275  0.00  0.00    +0.218 C 
ATOM      8  O   UNL     1     154.850 163.884 186.664  0.00  0.00    -0.275 OA
ATOM      9  N   UNL     1     153.701 165.808 186.180  0.00  0.00    -0.315 N 
ATOM     10  H   UNL     1     153.768 166.767 185.865  0.00  0.00    +0.149 HD
BRANCH   7  11
ATOM     11  C   UNL     1     156.126 165.819 185.941  0.00  0.00    +0.060 C 
ATOM     12  H   UNL     1     156.601 166.115 186.888  0.00  0.00    +0.042 HD
BRANCH  11  13
ATOM     13  C   UNL     1     157.053 164.844 185.211  0.00  0.00    -0.052 C 
ATOM     14  H   UNL     1     157.637 164.247 185.924  0.00  0.00    +0.024 HD
ATOM     15  H   UNL     1     156.484 164.143 184.592  0.00  0.00    +0.024 HD
ATOM     16  H   UNL     1     157.748 165.371 184.552  0.00  0.00    +0.024 HD
ENDBRANCH  11  13
BRANCH  11  17
ATOM     17  C   UNL     1     155.761 167.087 185.144  0.00  0.00    +0.081 C 
ATOM     18  H   UNL     1     154.766 167.000 184.685  0.00  0.00    +0.062 HD
BRANCH  17  19
ATOM     19  C   UNL     1     156.762 167.469 184.039  0.00  0.00    +0.038 C 
ATOM     20  H   UNL     1     157.542 166.704 183.946  0.00  0.00    +0.049 HD
ATOM     21  H   UNL     1     156.261 167.584 183.072  0.00  0.00    +0.049 HD
BRANCH  19  24
ATOM     22  C   UNL     1     158.338 169.343 183.527  0.00  0.00    +0.216 C 
ATOM     23  O   UNL     1     158.828 168.777 182.555  0.00  0.00    -0.276 OA
ATOM     24  N   UNL     1     157.375 168.766 184.325  0.00  0.00    -0.313 N 
ATOM     25  H   UNL     1     157.024 169.284 185.123  0.00  0.00    +0.149 HD
BRANCH  22  26
ATOM     26  C   UNL     1     158.765 170.713 184.002  0.00  0.00    +0.050 C 
ATOM     27  H   UNL     1     159.566 171.051 183.334  0.00  0.00    +0.038 HD
ATOM     28  H   UNL     1     159.222 170.647 184.996  0.00  0.00    +0.038 HD
BRANCH  26  33
ATOM     29  C   UNL     1     155.856 172.374 182.440  0.00  0.00    +0.066 C 
ATOM     30  C   UNL     1     155.577 173.434 183.498  0.00  0.00    -0.026 C 
ATOM     31  C   UNL     1     156.864 174.147 183.901  0.00  0.00    -0.046 C 
ATOM     32  C   UNL     1     158.086 173.212 183.925  0.00  0.00    -0.017 C 
ATOM     33  C   UNL     1     157.627 171.737 184.000  0.00  0.00    +0.070 C 
ATOM     34  O   UNL     1     156.759 171.368 182.912  0.00  0.00    -0.372 OA
ATOM     35  H   UNL     1     156.328 172.849 181.573  0.00  0.00    +0.060 HD
ATOM     36  H   UNL     1     154.847 174.166 183.137  0.00  0.00    +0.029 HD
ATOM     37  H   UNL     1     155.138 172.964 184.387  0.00  0.00    +0.029 HD
ATOM     38  H   UNL     1     157.035 174.994 183.228  0.00  0.00    +0.027 HD
ATOM     39  H   UNL     1     156.719 174.583 184.897  0.00  0.00    +0.027 HD
ATOM     40  H   UNL     1     158.659 173.457 184.830  0.00  0.00    +0.032 HD
ATOM     41  H   UNL     1     157.052 171.600 184.924  0.00  0.00    +0.060 HD
BRANCH  32  42
ATOM     42  C   UNL     1     159.016 173.499 182.738  0.00  0.00    -0.060 C 
ATOM     43  H   UNL     1     159.516 174.466 182.826  0.00  0.00    +0.023 HD
ATOM     44  H   UNL     1     158.462 173.492 181.799  0.00  0.00    +0.023 HD
ATOM     45  H   UNL     1     159.784 172.720 182.656  0.00  0.00    +0.023 HD
ENDBRANCH  32  42
BRANCH  29  46
ATOM     46  C   UNL     1     154.568 171.683 182.000  0.00  0.00    +0.036 C 
ATOM     47  H   UNL     1     153.780 171.782 182.753  0.00  0.00    +0.037 HD
ATOM     48  H   UNL     1     154.742 170.614 181.840  0.00  0.00    +0.037 HD
BRANCH  46  49
ATOM     49  C   UNL     1     154.042 172.319 180.730  0.00  0.00    +0.158 C 
ATOM     50  O   UNL     1     154.658 172.245 179.667  0.00  0.00    -0.293 OA
BRANCH  49  52
ATOM     51  C   UNL     1     152.456 173.793 181.918  0.00  0.00    -0.084 C 
ATOM     52  C   UNL     1     152.751 173.065 180.830  0.00  0.00    -0.023 C 
ATOM     53  H   UNL     1     153.169 173.850 182.740  0.00  0.00    +0.057 HD
ATOM     54  H   UNL     1     152.067 172.993 179.993  0.00  0.00    +0.065 HD
BRANCH  51  55
ATOM     55  C   UNL     1     151.178 174.539 182.095  0.00  0.00    -0.046 C 
ATOM     56  H   UNL     1     151.173 175.491 181.548  0.00  0.00    +0.027 HD
ATOM     57  H   UNL     1     151.001 174.753 183.158  0.00  0.00    +0.027 HD
ATOM     58  H   UNL     1     150.340 173.934 181.729  0.00  0.00    +0.027 HD
ENDBRANCH  51  55
ENDBRANCH  49  52
ENDBRANCH  46  49
ENDBRANCH  29  46
ENDBRANCH  26  33
ENDBRANCH  22  26
ENDBRANCH  19  24
ENDBRANCH  17  19
BRANCH  17  59
ATOM     59  O   UNL     1     155.683 168.171 186.088  0.00  0.00    -0.390 OA
ATOM     60  H   UNL     1     155.324 167.804 186.915  0.00  0.00    +0.210 HD
ENDBRANCH  17  59
ENDBRANCH  11  17
ENDBRANCH   7  11
ENDBRANCH   4   9
ENDBRANCH   1   4
BRANCH   1  61
ATOM     61  C   UNL     1     152.407 167.043 188.185  0.00  0.00    -0.025 C 
ATOM     62  H   UNL     1     153.296 167.251 187.574  0.00  0.00    +0.029 HD
ATOM     63  H   UNL     1     151.674 167.833 187.989  0.00  0.00    +0.029 HD
BRANCH  61  64
ATOM     64  C   UNL     1     152.793 167.039 189.675  0.00  0.00    +0.065 C 
ATOM     65  C   UNL     1     153.812 165.926 190.002  0.00  0.00    -0.017 C 
ATOM     66  C   UNL     1     153.763 165.542 191.493  0.00  0.00    -0.043 C 
ATOM     67  C   UNL     1     153.192 166.682 192.327  0.00  0.00    +0.002 C 
ATOM     68  C   UNL     1     151.778 167.077 191.844  0.00  0.00    +0.171 C 
ATOM     69  O   UNL     1     151.610 166.806 190.444  0.00  0.00    -0.345 OA
ATOM     70  C   UNL     1     150.706 166.269 192.594  0.00  0.00    +0.002 C 
ATOM     71  C   UNL     1     149.294 166.666 192.158  0.00  0.00    -0.046 C 
ATOM     72  C   UNL     1     149.222 168.119 191.697  0.00  0.00    -0.026 C 
ATOM     73  C   UNL     1     150.311 168.955 192.368  0.00  0.00    +0.062 C 
ATOM     74  O   UNL     1     151.635 168.481 192.090  0.00  0.00    -0.345 OA
ATOM     75  H   UNL     1     153.198 168.029 189.930  0.00  0.00    +0.060 HD
ATOM     76  H   UNL     1     153.553 165.019 189.438  0.00  0.00    +0.032 HD
ATOM     77  H   UNL     1     154.755 165.260 191.868  0.00  0.00    +0.027 HD
ATOM     78  H   UNL     1     153.124 164.657 191.614  0.00  0.00    +0.027 HD
ATOM     79  H   UNL     1     153.868 167.545 192.251  0.00  0.00    +0.032 HD
ATOM     80  H   UNL     1     153.182 166.414 193.394  0.00  0.00    +0.032 HD
ATOM     81  H   UNL     1     150.797 166.452 193.670  0.00  0.00    +0.032 HD
ATOM     82  H   UNL     1     150.834 165.192 192.437  0.00  0.00    +0.032 HD
ATOM     83  H   UNL     1     148.951 166.013 191.348  0.00  0.00    +0.027 HD
ATOM     84  H   UNL     1     148.605 166.499 192.994  0.00  0.00    +0.027 HD
ATOM     85  H   UNL     1     149.349 168.133 190.609  0.00  0.00    +0.029 HD
ATOM     86  H   UNL     1     148.225 168.524 191.908  0.00  0.00    +0.029 HD
ATOM     87  H   UNL     1     150.175 168.895 193.453  0.00  0.00    +0.060 HD
BRANCH  65  88
ATOM     88  C   UNL     1     155.234 166.329 189.584  0.00  0.00    -0.060 C 
ATOM     89  H   UNL     1     155.210 166.912 188.659  0.00  0.00    +0.023 HD
ATOM     90  H   UNL     1     155.857 165.443 189.413  0.00  0.00    +0.023 HD
ATOM     91  H   UNL     1     155.713 166.943 190.350  0.00  0.00    +0.023 HD
ENDBRANCH  65  88
BRANCH  73  92
ATOM     92  C   UNL     1     150.238 170.446 191.989  0.00  0.00    -0.026 C 
ATOM     93  H   UNL     1     150.278 170.523 190.893  0.00  0.00    +0.029 HD
ATOM     94  H   UNL     1     151.115 170.962 192.399  0.00  0.00    +0.029 HD
BRANCH  92  95
ATOM     95  C   UNL     1     148.948 171.127 192.468  0.00  0.00    -0.045 C 
ATOM     96  H   UNL     1     149.059 171.441 193.511  0.00  0.00    +0.027 HD
ATOM     97  H   UNL     1     148.131 170.394 192.442  0.00  0.00    +0.027 HD
BRANCH  95  98
ATOM     98  C   UNL     1     148.536 172.344 191.611  0.00  0.00    -0.025 C 
ATOM     99  H   UNL     1     149.114 172.310 190.683  0.00  0.00    +0.034 HD
BRANCH  98 100
ATOM    100  C   UNL     1     148.832 173.673 192.304  0.00  0.00    -0.059 C 
ATOM    101  H   UNL     1     148.381 173.714 193.302  0.00  0.00    +0.024 HD
ATOM    102  H   UNL     1     148.439 174.515 191.717  0.00  0.00    +0.024 HD
ATOM    103  H   UNL     1     149.910 173.828 192.411  0.00  0.00    +0.024 HD
ENDBRANCH  98 100
BRANCH  98 104
ATOM    104  C   UNL     1     147.051 172.241 191.327  0.00  0.00    -0.080 C 
ATOM    105  C   UNL     1     146.411 171.386 190.499  0.00  0.00    -0.048 C 
ATOM    106  H   UNL     1     146.451 172.937 191.914  0.00  0.00    +0.058 HD
BRANCH 105 107
ATOM    107  C   UNL     1     147.115 170.392 189.612  0.00  0.00    -0.041 C 
ATOM    108  H   UNL     1     146.550 170.239 188.686  0.00  0.00    +0.028 HD
ATOM    109  H   UNL     1     147.254 169.414 190.082  0.00  0.00    +0.028 HD
ATOM    110  H   UNL     1     148.117 170.741 189.347  0.00  0.00    +0.028 HD
ENDBRANCH 105 107
BRANCH 105 111
ATOM    111  C   UNL     1     144.897 171.373 190.436  0.00  0.00    +0.073 C 
ATOM    112  H   UNL     1     144.560 171.454 189.396  0.00  0.00    +0.064 HD
BRANCH 111 113
ATOM    113  C   UNL     1     144.273 172.510 191.234  0.00  0.00    -0.035 C 
ATOM    114  H   UNL     1     143.189 172.376 191.345  0.00  0.00    +0.026 HD
ATOM    115  H   UNL     1     144.715 172.597 192.231  0.00  0.00    +0.026 HD
ATOM    116  H   UNL     1     144.411 173.464 190.712  0.00  0.00    +0.026 HD
ENDBRANCH 111 113
BRANCH 111 117
ATOM    117  O   UNL     1     144.428 170.119 190.923  0.00  0.00    -0.388 OA
ATOM    118  H   UNL     1     143.788 170.306 191.628  0.00  0.00    +0.210 HD
ENDBRANCH 111 117
ENDBRANCH 105 111
ENDBRANCH  98 104
ENDBRANCH  95  98
ENDBRANCH  92  95
ENDBRANCH  73  92
ENDBRANCH  61  64
ENDBRANCH   1  61
TORSDOF 27
ENDMDL
MODEL 8
REMARK VINA RESULT:      -5.7      3.508      8.836
REMARK  Name = Bistramide A_conf2
REMARK  27 active torsions:
REMARK  status: ('A' for Active; 'I' for Inactive)
REMARK    1  A    between atoms: C_1  and  C_2
REMARK    2  A    between atoms: C_3  and  C_4
REMARK    3  A    between atoms: C_4  and  C_6
REMARK    4  A    between atoms: C_6  and  C_7
REMARK    5  A    between atoms: C_10  and  C_50
REMARK    6  A    between atoms: C_11  and  C_13
REMARK    7  A    between atoms: C_13  and  C_14
REMARK    8  A    between atoms: N_16  and  C_17
REMARK    9  A    between atoms: C_17  and  C_18
REMARK   10  A    between atoms: C_18  and  C_19
REMARK   11  A    between atoms: C_18  and  O_49
REMARK   12  A    between atoms: C_19  and  C_20
REMARK   13  A    between atoms: C_19  and  C_21
REMARK   14  A    between atoms: N_23  and  C_24
REMARK   15  A    between atoms: C_24  and  C_25
REMARK   16  A    between atoms: C_25  and  C_26
REMARK   17  A    between atoms: C_26  and  C_27
REMARK   18  A    between atoms: C_28  and  C_48
REMARK   19  A    between atoms: C_36  and  C_38
REMARK   20  A    between atoms: C_38  and  C_39
REMARK   21  A    between atoms: C_39  and  C_40
REMARK   22  A    between atoms: C_40  and  C_41
REMARK   23  A    between atoms: C_40  and  C_42
REMARK   24  A    between atoms: C_43  and  C_44
REMARK   25  A    between atoms: C_43  and  C_45
REMARK   26  A    between atoms: C_45  and  C_46
REMARK   27  A    between atoms: C_45  and  O_47
REMARK                            x       y       z     vdW  Elec       q    Type
REMARK                         _______ _______ _______ _____ _____    ______ ____
ROOT
ATOM      1  C   UNL     1     145.687 165.364 194.658  0.00  0.00    -0.035 C 
ATOM      2  H   UNL     1     144.711 165.407 195.150  0.00  0.00    +0.028 HD
ATOM      3  H   UNL     1     145.738 164.396 194.140  0.00  0.00    +0.028 HD
ENDROOT
BRANCH   1   4
ATOM      4  C   UNL     1     146.791 165.413 195.706  0.00  0.00    +0.012 C 
ATOM      5  H   UNL     1     146.683 166.309 196.334  0.00  0.00    +0.046 HD
ATOM      6  H   UNL     1     146.745 164.534 196.357  0.00  0.00    +0.046 HD
BRANCH   4   9
ATOM      7  C   UNL     1     149.227 165.842 195.771  0.00  0.00    +0.218 C 
ATOM      8  O   UNL     1     149.205 166.230 196.936  0.00  0.00    -0.275 OA
ATOM      9  N   UNL     1     148.092 165.490 195.073  0.00  0.00    -0.315 N 
ATOM     10  H   UNL     1     148.176 165.192 194.111  0.00  0.00    +0.149 HD
BRANCH   7  11
ATOM     11  C   UNL     1     150.505 165.799 194.931  0.00  0.00    +0.060 C 
ATOM     12  H   UNL     1     151.125 166.663 195.212  0.00  0.00    +0.042 HD
BRANCH  11  13
ATOM     13  C   UNL     1     151.246 164.517 195.317  0.00  0.00    -0.052 C 
ATOM     14  H   UNL     1     151.895 164.175 194.500  0.00  0.00    +0.024 HD
ATOM     15  H   UNL     1     151.886 164.676 196.191  0.00  0.00    +0.024 HD
ATOM     16  H   UNL     1     150.550 163.712 195.566  0.00  0.00    +0.024 HD
ENDBRANCH  11  13
BRANCH  11  17
ATOM     17  C   UNL     1     150.135 165.910 193.439  0.00  0.00    +0.081 C 
ATOM     18  H   UNL     1     149.346 165.195 193.167  0.00  0.00    +0.062 HD
BRANCH  17  19
ATOM     19  C   UNL     1     151.310 165.717 192.463  0.00  0.00    +0.038 C 
ATOM     20  H   UNL     1     152.140 166.384 192.725  0.00  0.00    +0.049 HD
ATOM     21  H   UNL     1     151.668 164.683 192.474  0.00  0.00    +0.049 HD
BRANCH  19  24
ATOM     22  C   UNL     1     151.603 166.750 190.204  0.00  0.00    +0.216 C 
ATOM     23  O   UNL     1     152.618 167.362 190.523  0.00  0.00    -0.276 OA
ATOM     24  N   UNL     1     150.885 165.975 191.088  0.00  0.00    -0.313 N 
ATOM     25  H   UNL     1     150.046 165.509 190.761  0.00  0.00    +0.149 HD
BRANCH  22  26
ATOM     26  C   UNL     1     150.987 166.812 188.825  0.00  0.00    +0.050 C 
ATOM     27  H   UNL     1     151.248 167.788 188.398  0.00  0.00    +0.038 HD
ATOM     28  H   UNL     1     149.893 166.806 188.896  0.00  0.00    +0.038 HD
BRANCH  26  33
ATOM     29  C   UNL     1     152.988 163.791 188.097  0.00  0.00    +0.066 C 
ATOM     30  C   UNL     1     152.675 163.636 186.614  0.00  0.00    -0.026 C 
ATOM     31  C   UNL     1     152.830 164.969 185.888  0.00  0.00    -0.046 C 
ATOM     32  C   UNL     1     152.383 166.171 186.738  0.00  0.00    -0.017 C 
ATOM     33  C   UNL     1     151.471 165.697 187.894  0.00  0.00    +0.070 C 
ATOM     34  O   UNL     1     152.107 164.718 188.739  0.00  0.00    -0.372 OA
ATOM     35  H   UNL     1     154.005 164.182 188.210  0.00  0.00    +0.060 HD
ATOM     36  H   UNL     1     153.326 162.887 186.152  0.00  0.00    +0.029 HD
ATOM     37  H   UNL     1     151.646 163.280 186.488  0.00  0.00    +0.029 HD
ATOM     38  H   UNL     1     153.870 165.087 185.564  0.00  0.00    +0.027 HD
ATOM     39  H   UNL     1     152.233 164.931 184.968  0.00  0.00    +0.027 HD
ATOM     40  H   UNL     1     151.809 166.835 186.077  0.00  0.00    +0.032 HD
ATOM     41  H   UNL     1     150.586 165.214 187.462  0.00  0.00    +0.060 HD
BRANCH  32  42
ATOM     42  C   UNL     1     153.595 166.983 187.215  0.00  0.00    -0.060 C 
ATOM     43  H   UNL     1     153.728 167.905 186.643  0.00  0.00    +0.023 HD
ATOM     44  H   UNL     1     154.511 166.399 187.131  0.00  0.00    +0.023 HD
ATOM     45  H   UNL     1     153.486 167.248 188.274  0.00  0.00    +0.023 HD
ENDBRANCH  32  42
BRANCH  29  46
ATOM     46  C   UNL     1     152.877 162.454 188.826  0.00  0.00    +0.036 C 
ATOM     47  H   UNL     1     152.459 161.676 188.179  0.00  0.00    +0.037 HD
ATOM     48  H   UNL     1     152.223 162.546 189.698  0.00  0.00    +0.037 HD
BRANCH  46  49
ATOM     49  C   UNL     1     154.249 161.976 189.253  0.00  0.00    +0.158 C 
ATOM     50  O   UNL     1     154.455 160.805 189.574  0.00  0.00    -0.293 OA
BRANCH  49  52
ATOM     51  C   UNL     1     156.617 162.653 189.074  0.00  0.00    -0.084 C 
ATOM     52  C   UNL     1     155.339 162.997 189.297  0.00  0.00    -0.023 C 
ATOM     53  H   UNL     1     156.867 161.617 188.850  0.00  0.00    +0.057 HD
ATOM     54  H   UNL     1     155.056 164.020 189.516  0.00  0.00    +0.065 HD
BRANCH  51  55
ATOM     55  C   UNL     1     157.756 163.614 189.130  0.00  0.00    -0.046 C 
ATOM     56  H   UNL     1     158.415 163.427 189.987  0.00  0.00    +0.027 HD
ATOM     57  H   UNL     1     157.386 164.647 189.201  0.00  0.00    +0.027 HD
ATOM     58  H   UNL     1     158.356 163.533 188.216  0.00  0.00    +0.027 HD
ENDBRANCH  51  55
ENDBRANCH  49  52
ENDBRANCH  46  49
ENDBRANCH  29  46
ENDBRANCH  26  33
ENDBRANCH  22  26
ENDBRANCH  19  24
ENDBRANCH  17  19
BRANCH  17  59
ATOM     59  O   UNL     1     149.583 167.224 193.238  0.00  0.00    -0.390 OA
ATOM     60  H   UNL     1     148.652 167.106 192.976  0.00  0.00    +0.210 HD
ENDBRANCH  17  59
ENDBRANCH  11  17
ENDBRANCH   7  11
ENDBRANCH   4   9
ENDBRANCH   1   4
BRANCH   1  61
ATOM     61  C   UNL     1     145.815 166.496 193.637  0.00  0.00    -0.025 C 
ATOM     62  H   UNL     1     145.742 167.452 194.172  0.00  0.00    +0.029 HD
ATOM     63  H   UNL     1     146.805 166.449 193.167  0.00  0.00    +0.029 HD
BRANCH  61  64
ATOM     64  C   UNL     1     144.717 166.420 192.560  0.00  0.00    +0.065 C 
ATOM     65  C   UNL     1     143.375 165.926 193.143  0.00  0.00    -0.017 C 
ATOM     66  C   UNL     1     142.482 165.311 192.049  0.00  0.00    -0.043 C 
ATOM     67  C   UNL     1     142.866 165.844 190.674  0.00  0.00    +0.002 C 
ATOM     68  C   UNL     1     144.351 165.559 190.355  0.00  0.00    +0.171 C 
ATOM     69  O   UNL     1     145.138 165.495 191.554  0.00  0.00    -0.345 OA
ATOM     70  C   UNL     1     144.500 164.206 189.642  0.00  0.00    +0.002 C 
ATOM     71  C   UNL     1     145.959 163.916 189.284  0.00  0.00    -0.046 C 
ATOM     72  C   UNL     1     146.758 165.194 189.047  0.00  0.00    -0.026 C 
ATOM     73  C   UNL     1     145.844 166.327 188.585  0.00  0.00    +0.062 C 
ATOM     74  O   UNL     1     144.809 166.635 189.527  0.00  0.00    -0.345 OA
ATOM     75  H   UNL     1     144.606 167.417 192.109  0.00  0.00    +0.060 HD
ATOM     76  H   UNL     1     143.568 165.129 193.874  0.00  0.00    +0.032 HD
ATOM     77  H   UNL     1     141.419 165.500 192.244  0.00  0.00    +0.027 HD
ATOM     78  H   UNL     1     142.608 164.220 192.056  0.00  0.00    +0.027 HD
ATOM     79  H   UNL     1     142.679 166.927 190.654  0.00  0.00    +0.032 HD
ATOM     80  H   UNL     1     142.209 165.422 189.899  0.00  0.00    +0.032 HD
ATOM     81  H   UNL     1     143.915 164.215 188.715  0.00  0.00    +0.032 HD
ATOM     82  H   UNL     1     144.118 163.385 190.258  0.00  0.00    +0.032 HD
ATOM     83  H   UNL     1     146.435 163.335 190.081  0.00  0.00    +0.027 HD
ATOM     84  H   UNL     1     145.985 163.282 188.390  0.00  0.00    +0.027 HD
ATOM     85  H   UNL     1     147.248 165.463 189.989  0.00  0.00    +0.029 HD
ATOM     86  H   UNL     1     147.553 165.003 188.317  0.00  0.00    +0.029 HD
ATOM     87  H   UNL     1     145.346 166.015 187.660  0.00  0.00    +0.060 HD
BRANCH  65  88
ATOM     88  C   UNL     1     142.639 167.052 193.885  0.00  0.00    -0.060 C 
ATOM     89  H   UNL     1     141.751 167.363 193.326  0.00  0.00    +0.023 HD
ATOM     90  H   UNL     1     143.287 167.926 194.010  0.00  0.00    +0.023 HD
ATOM     91  H   UNL     1     142.310 166.725 194.874  0.00  0.00    +0.023 HD
ENDBRANCH  65  88
BRANCH  73  92
ATOM     92  C   UNL     1     146.612 167.622 188.264  0.00  0.00    -0.026 C 
ATOM     93  H   UNL     1     145.941 168.287 187.700  0.00  0.00    +0.029 HD
ATOM     94  H   UNL     1     147.469 167.380 187.622  0.00  0.00    +0.029 HD
BRANCH  92  95
ATOM     95  C   UNL     1     147.082 168.372 189.519  0.00  0.00    -0.045 C 
ATOM     96  H   UNL     1     148.175 168.441 189.523  0.00  0.00    +0.027 HD
ATOM     97  H   UNL     1     146.798 167.789 190.405  0.00  0.00    +0.027 HD
BRANCH  95  98
ATOM     98  C   UNL     1     146.482 169.788 189.655  0.00  0.00    -0.025 C 
ATOM     99  H   UNL     1     145.656 169.733 190.370  0.00  0.00    +0.034 HD
BRANCH  98 100
ATOM    100  C   UNL     1     145.929 170.318 188.334  0.00  0.00    -0.059 C 
ATOM    101  H   UNL     1     144.888 170.646 188.437  0.00  0.00    +0.024 HD
ATOM    102  H   UNL     1     145.967 169.543 187.556  0.00  0.00    +0.024 HD
ATOM    103  H   UNL     1     146.519 171.167 187.975  0.00  0.00    +0.024 HD
ENDBRANCH  98 100
BRANCH  98 104
ATOM    104  C   UNL     1     147.570 170.716 190.157  0.00  0.00    -0.080 C 
ATOM    105  C   UNL     1     147.446 171.814 190.934  0.00  0.00    -0.048 C 
ATOM    106  H   UNL     1     148.572 170.402 189.865  0.00  0.00    +0.058 HD
BRANCH 105 107
ATOM    107  C   UNL     1     146.123 172.375 191.390  0.00  0.00    -0.041 C 
ATOM    108  H   UNL     1     146.210 172.784 192.402  0.00  0.00    +0.028 HD
ATOM    109  H   UNL     1     145.319 171.635 191.400  0.00  0.00    +0.028 HD
ATOM    110  H   UNL     1     145.785 173.175 190.725  0.00  0.00    +0.028 HD
ENDBRANCH 105 107
BRANCH 105 111
ATOM    111  C   UNL     1     148.678 172.550 191.420  0.00  0.00    +0.073 C 
ATOM    112  H   UNL     1     149.515 171.851 191.538  0.00  0.00    +0.064 HD
BRANCH 111 113
ATOM    113  C   UNL     1     148.448 173.254 192.750  0.00  0.00    -0.035 C 
ATOM    114  H   UNL     1     147.392 173.217 193.047  0.00  0.00    +0.026 HD
ATOM    115  H   UNL     1     149.049 172.815 193.552  0.00  0.00    +0.026 HD
ATOM    116  H   UNL     1     148.706 174.317 192.670  0.00  0.00    +0.026 HD
ENDBRANCH 111 113
BRANCH 111 117
ATOM    117  O   UNL     1     149.069 173.495 190.428  0.00  0.00    -0.388 OA
ATOM    118  H   UNL     1     149.890 173.911 190.735  0.00  0.00    +0.210 HD
ENDBRANCH 111 117
ENDBRANCH 105 111
ENDBRANCH  98 104
ENDBRANCH  95  98
ENDBRANCH  92  95
ENDBRANCH  73  92
ENDBRANCH  61  64
ENDBRANCH   1  61
TORSDOF 27
ENDMDL
MODEL 9
REMARK VINA RESULT:      -5.7      8.964     12.267
REMARK  Name = Bistramide A_conf2
REMARK  27 active torsions:
REMARK  status: ('A' for Active; 'I' for Inactive)
REMARK    1  A    between atoms: C_1  and  C_2
REMARK    2  A    between atoms: C_3  and  C_4
REMARK    3  A    between atoms: C_4  and  C_6
REMARK    4  A    between atoms: C_6  and  C_7
REMARK    5  A    between atoms: C_10  and  C_50
REMARK    6  A    between atoms: C_11  and  C_13
REMARK    7  A    between atoms: C_13  and  C_14
REMARK    8  A    between atoms: N_16  and  C_17
REMARK    9  A    between atoms: C_17  and  C_18
REMARK   10  A    between atoms: C_18  and  C_19
REMARK   11  A    between atoms: C_18  and  O_49
REMARK   12  A    between atoms: C_19  and  C_20
REMARK   13  A    between atoms: C_19  and  C_21
REMARK   14  A    between atoms: N_23  and  C_24
REMARK   15  A    between atoms: C_24  and  C_25
REMARK   16  A    between atoms: C_25  and  C_26
REMARK   17  A    between atoms: C_26  and  C_27
REMARK   18  A    between atoms: C_28  and  C_48
REMARK   19  A    between atoms: C_36  and  C_38
REMARK   20  A    between atoms: C_38  and  C_39
REMARK   21  A    between atoms: C_39  and  C_40
REMARK   22  A    between atoms: C_40  and  C_41
REMARK   23  A    between atoms: C_40  and  C_42
REMARK   24  A    between atoms: C_43  and  C_44
REMARK   25  A    between atoms: C_43  and  C_45
REMARK   26  A    between atoms: C_45  and  C_46
REMARK   27  A    between atoms: C_45  and  O_47
REMARK                            x       y       z     vdW  Elec       q    Type
REMARK                         _______ _______ _______ _____ _____    ______ ____
ROOT
ATOM      1  C   UNL     1     156.085 166.073 186.775  0.00  0.00    -0.035 C 
ATOM      2  H   UNL     1     157.119 166.019 186.424  0.00  0.00    +0.028 HD
ATOM      3  H   UNL     1     155.666 165.062 186.682  0.00  0.00    +0.028 HD
ENDROOT
BRANCH   1   4
ATOM      4  C   UNL     1     155.289 167.014 185.881  0.00  0.00    +0.012 C 
ATOM      5  H   UNL     1     155.003 166.506 184.949  0.00  0.00    +0.046 HD
ATOM      6  H   UNL     1     154.373 167.343 186.383  0.00  0.00    +0.046 HD
BRANCH   4   9
ATOM      7  C   UNL     1     156.321 168.504 184.196  0.00  0.00    +0.218 C 
ATOM      8  O   UNL     1     155.974 167.802 183.250  0.00  0.00    -0.275 OA
ATOM      9  N   UNL     1     156.089 168.164 185.512  0.00  0.00    -0.315 N 
ATOM     10  H   UNL     1     156.413 168.779 186.245  0.00  0.00    +0.149 HD
BRANCH   7  11
ATOM     11  C   UNL     1     157.134 169.789 184.026  0.00  0.00    +0.060 C 
ATOM     12  H   UNL     1     156.706 170.352 183.183  0.00  0.00    +0.042 HD
BRANCH  11  13
ATOM     13  C   UNL     1     156.948 170.605 185.307  0.00  0.00    -0.052 C 
ATOM     14  H   UNL     1     157.838 171.211 185.521  0.00  0.00    +0.024 HD
ATOM     15  H   UNL     1     156.102 171.294 185.219  0.00  0.00    +0.024 HD
ATOM     16  H   UNL     1     156.754 169.960 186.167  0.00  0.00    +0.024 HD
ENDBRANCH  11  13
BRANCH  11  17
ATOM     17  C   UNL     1     158.595 169.423 183.696  0.00  0.00    +0.081 C 
ATOM     18  H   UNL     1     159.302 170.024 184.284  0.00  0.00    +0.062 HD
BRANCH  17  19
ATOM     19  C   UNL     1     158.978 169.559 182.211  0.00  0.00    +0.038 C 
ATOM     20  H   UNL     1     159.788 170.288 182.088  0.00  0.00    +0.049 HD
ATOM     21  H   UNL     1     159.298 168.599 181.795  0.00  0.00    +0.049 HD
BRANCH  19  24
ATOM     22  C   UNL     1     157.889 170.893 180.396  0.00  0.00    +0.216 C 
ATOM     23  O   UNL     1     158.912 171.514 180.124  0.00  0.00    -0.276 OA
ATOM     24  N   UNL     1     157.820 169.970 181.416  0.00  0.00    -0.313 N 
ATOM     25  H   UNL     1     156.939 169.504 181.597  0.00  0.00    +0.149 HD
BRANCH  22  26
ATOM     26  C   UNL     1     156.571 171.099 179.686  0.00  0.00    +0.050 C 
ATOM     27  H   UNL     1     156.105 170.112 179.579  0.00  0.00    +0.038 HD
ATOM     28  H   UNL     1     156.740 171.455 178.664  0.00  0.00    +0.038 HD
BRANCH  26  33
ATOM     29  C   UNL     1     155.420 172.854 182.728  0.00  0.00    +0.066 C 
ATOM     30  C   UNL     1     154.163 173.514 182.174  0.00  0.00    -0.026 C 
ATOM     31  C   UNL     1     153.326 172.508 181.390  0.00  0.00    -0.046 C 
ATOM     32  C   UNL     1     154.181 171.497 180.606  0.00  0.00    -0.017 C 
ATOM     33  C   UNL     1     155.620 172.038 180.433  0.00  0.00    +0.070 C 
ATOM     34  O   UNL     1     156.258 172.337 181.689  0.00  0.00    -0.372 OA
ATOM     35  H   UNL     1     155.131 172.008 183.361  0.00  0.00    +0.060 HD
ATOM     36  H   UNL     1     153.560 173.947 182.979  0.00  0.00    +0.029 HD
ATOM     37  H   UNL     1     154.441 174.340 181.509  0.00  0.00    +0.029 HD
ATOM     38  H   UNL     1     152.644 171.991 182.075  0.00  0.00    +0.027 HD
ATOM     39  H   UNL     1     152.685 173.061 180.693  0.00  0.00    +0.027 HD
ATOM     40  H   UNL     1     153.718 171.386 179.616  0.00  0.00    +0.032 HD
ATOM     41  H   UNL     1     155.571 172.980 179.871  0.00  0.00    +0.060 HD
BRANCH  32  42
ATOM     42  C   UNL     1     154.129 170.111 181.263  0.00  0.00    -0.060 C 
ATOM     43  H   UNL     1     153.455 169.429 180.740  0.00  0.00    +0.023 HD
ATOM     44  H   UNL     1     153.797 170.184 182.298  0.00  0.00    +0.023 HD
ATOM     45  H   UNL     1     155.129 169.659 181.284  0.00  0.00    +0.023 HD
ENDBRANCH  32  42
BRANCH  29  46
ATOM     46  C   UNL     1     156.244 173.843 183.549  0.00  0.00    +0.036 C 
ATOM     47  H   UNL     1     156.379 173.497 184.579  0.00  0.00    +0.037 HD
ATOM     48  H   UNL     1     155.745 174.816 183.590  0.00  0.00    +0.037 HD
BRANCH  46  49
ATOM     49  C   UNL     1     157.628 173.993 182.953  0.00  0.00    +0.158 C 
ATOM     50  O   UNL     1     157.836 174.713 181.976  0.00  0.00    -0.293 OA
BRANCH  49  52
ATOM     51  C   UNL     1     159.950 173.159 183.035  0.00  0.00    -0.084 C 
ATOM     52  C   UNL     1     158.728 173.205 183.586  0.00  0.00    -0.023 C 
ATOM     53  H   UNL     1     160.150 173.709 182.115  0.00  0.00    +0.057 HD
ATOM     54  H   UNL     1     158.498 172.675 184.503  0.00  0.00    +0.065 HD
BRANCH  51  55
ATOM     55  C   UNL     1     161.084 172.371 183.597  0.00  0.00    -0.046 C 
ATOM     56  H   UNL     1     160.741 171.506 184.179  0.00  0.00    +0.027 HD
ATOM     57  H   UNL     1     161.703 173.000 184.252  0.00  0.00    +0.027 HD
ATOM     58  H   UNL     1     161.721 172.001 182.785  0.00  0.00    +0.027 HD
ENDBRANCH  51  55
ENDBRANCH  49  52
ENDBRANCH  46  49
ENDBRANCH  29  46
ENDBRANCH  26  33
ENDBRANCH  22  26
ENDBRANCH  19  24
ENDBRANCH  17  19
BRANCH  17  59
ATOM     59  O   UNL     1     158.788 168.054 184.096  0.00  0.00    -0.390 OA
ATOM     60  H   UNL     1     158.073 167.835 184.718  0.00  0.00    +0.210 HD
ENDBRANCH  17  59
ENDBRANCH  11  17
ENDBRANCH   7  11
ENDBRANCH   4   9
ENDBRANCH   1   4
BRANCH   1  61
ATOM     61  C   UNL     1     156.046 166.507 188.242  0.00  0.00    -0.025 C 
ATOM     62  H   UNL     1     157.080 166.592 188.604  0.00  0.00    +0.029 HD
ATOM     63  H   UNL     1     155.583 167.498 188.314  0.00  0.00    +0.029 HD
BRANCH  61  64
ATOM     64  C   UNL     1     155.274 165.500 189.115  0.00  0.00    +0.065 C 
ATOM     65  C   UNL     1     155.693 164.043 188.818  0.00  0.00    -0.017 C 
ATOM     66  C   UNL     1     154.587 163.050 189.221  0.00  0.00    -0.043 C 
ATOM     67  C   UNL     1     153.674 163.656 190.279  0.00  0.00    +0.002 C 
ATOM     68  C   UNL     1     153.035 164.973 189.783  0.00  0.00    +0.171 C 
ATOM     69  O   UNL     1     153.879 165.634 188.829  0.00  0.00    -0.345 OA
ATOM     70  C   UNL     1     151.695 164.694 189.085  0.00  0.00    +0.002 C 
ATOM     71  C   UNL     1     151.025 165.986 188.614  0.00  0.00    -0.046 C 
ATOM     72  C   UNL     1     151.395 167.178 189.492  0.00  0.00    -0.026 C 
ATOM     73  C   UNL     1     151.754 166.720 190.904  0.00  0.00    +0.062 C 
ATOM     74  O   UNL     1     152.856 165.804 190.936  0.00  0.00    -0.345 OA
ATOM     75  H   UNL     1     155.450 165.751 190.171  0.00  0.00    +0.060 HD
ATOM     76  H   UNL     1     155.844 163.922 187.737  0.00  0.00    +0.032 HD
ATOM     77  H   UNL     1     155.009 162.104 189.582  0.00  0.00    +0.027 HD
ATOM     78  H   UNL     1     153.989 162.802 188.333  0.00  0.00    +0.027 HD
ATOM     79  H   UNL     1     154.266 163.844 191.186  0.00  0.00    +0.032 HD
ATOM     80  H   UNL     1     152.901 162.934 190.582  0.00  0.00    +0.032 HD
ATOM     81  H   UNL     1     151.016 164.191 189.784  0.00  0.00    +0.032 HD
ATOM     82  H   UNL     1     151.822 164.029 188.224  0.00  0.00    +0.032 HD
ATOM     83  H   UNL     1     151.305 166.201 187.577  0.00  0.00    +0.027 HD
ATOM     84  H   UNL     1     149.938 165.841 188.611  0.00  0.00    +0.027 HD
ATOM     85  H   UNL     1     152.248 167.684 189.029  0.00  0.00    +0.029 HD
ATOM     86  H   UNL     1     150.567 167.896 189.507  0.00  0.00    +0.029 HD
ATOM     87  H   UNL     1     150.893 166.192 191.327  0.00  0.00    +0.060 HD
BRANCH  65  88
ATOM     88  C   UNL     1     157.023 163.693 189.503  0.00  0.00    -0.060 C 
ATOM     89  H   UNL     1     157.471 162.810 189.038  0.00  0.00    +0.023 HD
ATOM     90  H   UNL     1     156.871 163.481 190.566  0.00  0.00    +0.023 HD
ATOM     91  H   UNL     1     157.740 164.512 189.415  0.00  0.00    +0.023 HD
ENDBRANCH  65  88
BRANCH  73  92
ATOM     92  C   UNL     1     152.068 167.893 191.851  0.00  0.00    -0.026 C 
ATOM     93  H   UNL     1     153.151 168.084 191.812  0.00  0.00    +0.029 HD
ATOM     94  H   UNL     1     151.811 167.603 192.877  0.00  0.00    +0.029 HD
BRANCH  92  95
ATOM     95  C   UNL     1     151.343 169.190 191.466  0.00  0.00    -0.045 C 
ATOM     96  H   UNL     1     151.009 169.134 190.425  0.00  0.00    +0.027 HD
ATOM     97  H   UNL     1     152.054 170.024 191.527  0.00  0.00    +0.027 HD
BRANCH  95  98
ATOM     98  C   UNL     1     150.134 169.515 192.371  0.00  0.00    -0.025 C 
ATOM     99  H   UNL     1     150.521 169.838 193.341  0.00  0.00    +0.034 HD
BRANCH  98 100
ATOM    100  C   UNL     1     149.232 168.304 192.599  0.00  0.00    -0.059 C 
ATOM    101  H   UNL     1     149.769 167.365 192.420  0.00  0.00    +0.024 HD
ATOM    102  H   UNL     1     148.363 168.333 191.929  0.00  0.00    +0.024 HD
ATOM    103  H   UNL     1     148.850 168.287 193.624  0.00  0.00    +0.024 HD
ENDBRANCH  98 100
BRANCH  98 104
ATOM    104  C   UNL     1     149.336 170.623 191.713  0.00  0.00    -0.080 C 
ATOM    105  C   UNL     1     149.112 171.878 192.161  0.00  0.00    -0.048 C 
ATOM    106  H   UNL     1     148.940 170.347 190.735  0.00  0.00    +0.058 HD
BRANCH 105 107
ATOM    107  C   UNL     1     149.577 172.386 193.502  0.00  0.00    -0.041 C 
ATOM    108  H   UNL     1     148.728 172.496 194.184  0.00  0.00    +0.028 HD
ATOM    109  H   UNL     1     150.086 173.352 193.446  0.00  0.00    +0.028 HD
ATOM    110  H   UNL     1     150.295 171.697 193.956  0.00  0.00    +0.028 HD
ENDBRANCH 105 107
BRANCH 105 111
ATOM    111  C   UNL     1     148.372 172.878 191.296  0.00  0.00    +0.073 C 
ATOM    112  H   UNL     1     147.919 173.658 191.920  0.00  0.00    +0.064 HD
BRANCH 111 113
ATOM    113  C   UNL     1     147.272 172.227 190.468  0.00  0.00    -0.035 C 
ATOM    114  H   UNL     1     147.437 171.148 190.357  0.00  0.00    +0.026 HD
ATOM    115  H   UNL     1     146.284 172.382 190.911  0.00  0.00    +0.026 HD
ATOM    116  H   UNL     1     147.262 172.641 189.452  0.00  0.00    +0.026 HD
ENDBRANCH 111 113
BRANCH 111 117
ATOM    117  O   UNL     1     149.307 173.527 190.441  0.00  0.00    -0.388 OA
ATOM    118  H   UNL     1     148.935 173.514 189.545  0.00  0.00    +0.210 HD
ENDBRANCH 111 117
ENDBRANCH 105 111
ENDBRANCH  98 104
ENDBRANCH  95  98
ENDBRANCH  92  95
ENDBRANCH  73  92
ENDBRANCH  61  64
ENDBRANCH   1  61
TORSDOF 27
ENDMDL
MODEL 10
REMARK VINA RESULT:      -5.7      9.211     12.636
REMARK  Name = Bistramide A_conf2
REMARK  27 active torsions:
REMARK  status: ('A' for Active; 'I' for Inactive)
REMARK    1  A    between atoms: C_1  and  C_2
REMARK    2  A    between atoms: C_3  and  C_4
REMARK    3  A    between atoms: C_4  and  C_6
REMARK    4  A    between atoms: C_6  and  C_7
REMARK    5  A    between atoms: C_10  and  C_50
REMARK    6  A    between atoms: C_11  and  C_13
REMARK    7  A    between atoms: C_13  and  C_14
REMARK    8  A    between atoms: N_16  and  C_17
REMARK    9  A    between atoms: C_17  and  C_18
REMARK   10  A    between atoms: C_18  and  C_19
REMARK   11  A    between atoms: C_18  and  O_49
REMARK   12  A    between atoms: C_19  and  C_20
REMARK   13  A    between atoms: C_19  and  C_21
REMARK   14  A    between atoms: N_23  and  C_24
REMARK   15  A    between atoms: C_24  and  C_25
REMARK   16  A    between atoms: C_25  and  C_26
REMARK   17  A    between atoms: C_26  and  C_27
REMARK   18  A    between atoms: C_28  and  C_48
REMARK   19  A    between atoms: C_36  and  C_38
REMARK   20  A    between atoms: C_38  and  C_39
REMARK   21  A    between atoms: C_39  and  C_40
REMARK   22  A    between atoms: C_40  and  C_41
REMARK   23  A    between atoms: C_40  and  C_42
REMARK   24  A    between atoms: C_43  and  C_44
REMARK   25  A    between atoms: C_43  and  C_45
REMARK   26  A    between atoms: C_45  and  C_46
REMARK   27  A    between atoms: C_45  and  O_47
REMARK                            x       y       z     vdW  Elec       q    Type
REMARK                         _______ _______ _______ _____ _____    ______ ____
ROOT
ATOM      1  C   UNL     1     159.563 168.438 184.981  0.00  0.00    -0.035 C 
ATOM      2  H   UNL     1     160.565 168.015 184.863  0.00  0.00    +0.028 HD
ATOM      3  H   UNL     1     159.125 167.969 185.872  0.00  0.00    +0.028 HD
ENDROOT
BRANCH   1   4
ATOM      4  C   UNL     1     158.710 168.078 183.772  0.00  0.00    +0.012 C 
ATOM      5  H   UNL     1     158.237 168.978 183.355  0.00  0.00    +0.046 HD
ATOM      6  H   UNL     1     159.325 167.623 182.988  0.00  0.00    +0.046 HD
BRANCH   4   9
ATOM      7  C   UNL     1     156.427 167.625 184.612  0.00  0.00    +0.218 C 
ATOM      8  O   UNL     1     156.196 168.807 184.847  0.00  0.00    -0.275 OA
ATOM      9  N   UNL     1     157.645 167.172 184.152  0.00  0.00    -0.315 N 
ATOM     10  H   UNL     1     157.776 166.182 183.992  0.00  0.00    +0.149 HD
BRANCH   7  11
ATOM     11  C   UNL     1     155.422 166.507 184.895  0.00  0.00    +0.060 C 
ATOM     12  H   UNL     1     154.444 166.823 184.501  0.00  0.00    +0.042 HD
BRANCH  11  13
ATOM     13  C   UNL     1     155.892 165.278 184.114  0.00  0.00    -0.052 C 
ATOM     14  H   UNL     1     156.090 165.531 183.064  0.00  0.00    +0.024 HD
ATOM     15  H   UNL     1     156.822 164.876 184.528  0.00  0.00    +0.024 HD
ATOM     16  H   UNL     1     155.150 164.477 184.143  0.00  0.00    +0.024 HD
ENDBRANCH  11  13
BRANCH  11  17
ATOM     17  C   UNL     1     155.307 166.302 186.419  0.00  0.00    +0.081 C 
ATOM     18  H   UNL     1     155.339 165.237 186.684  0.00  0.00    +0.062 HD
BRANCH  17  19
ATOM     19  C   UNL     1     154.051 166.916 187.063  0.00  0.00    +0.038 C 
ATOM     20  H   UNL     1     153.912 167.950 186.725  0.00  0.00    +0.049 HD
ATOM     21  H   UNL     1     153.155 166.338 186.814  0.00  0.00    +0.049 HD
BRANCH  19  24
ATOM     22  C   UNL     1     153.752 165.809 189.286  0.00  0.00    +0.216 C 
ATOM     23  O   UNL     1     153.196 164.822 188.815  0.00  0.00    -0.276 OA
ATOM     24  N   UNL     1     154.152 166.883 188.522  0.00  0.00    -0.313 N 
ATOM     25  H   UNL     1     154.591 167.674 188.979  0.00  0.00    +0.149 HD
BRANCH  22  26
ATOM     26  C   UNL     1     154.019 165.995 190.763  0.00  0.00    +0.050 C 
ATOM     27  H   UNL     1     154.559 166.942 190.877  0.00  0.00    +0.038 HD
ATOM     28  H   UNL     1     154.705 165.221 191.126  0.00  0.00    +0.038 HD
BRANCH  26  33
ATOM     29  C   UNL     1     150.955 167.639 192.015  0.00  0.00    +0.066 C 
ATOM     30  C   UNL     1     150.487 166.577 193.001  0.00  0.00    -0.026 C 
ATOM     31  C   UNL     1     151.642 166.116 193.885  0.00  0.00    -0.046 C 
ATOM     32  C   UNL     1     152.986 166.060 193.138  0.00  0.00    -0.017 C 
ATOM     33  C   UNL     1     152.744 166.024 191.611  0.00  0.00    +0.070 C 
ATOM     34  O   UNL     1     151.978 167.149 191.141  0.00  0.00    -0.372 OA
ATOM     35  H   UNL     1     151.382 168.481 192.571  0.00  0.00    +0.060 HD
ATOM     36  H   UNL     1     149.672 166.954 193.627  0.00  0.00    +0.029 HD
ATOM     37  H   UNL     1     150.091 165.713 192.455  0.00  0.00    +0.029 HD
ATOM     38  H   UNL     1     151.711 166.770 194.762  0.00  0.00    +0.027 HD
ATOM     39  H   UNL     1     151.400 165.120 194.276  0.00  0.00    +0.027 HD
ATOM     40  H   UNL     1     153.485 165.131 193.445  0.00  0.00    +0.032 HD
ATOM     41  H   UNL     1     152.164 165.124 191.373  0.00  0.00    +0.060 HD
BRANCH  32  42
ATOM     42  C   UNL     1     153.905 167.207 193.580  0.00  0.00    -0.060 C 
ATOM     43  H   UNL     1     154.143 167.161 194.645  0.00  0.00    +0.023 HD
ATOM     44  H   UNL     1     153.443 168.174 193.381  0.00  0.00    +0.023 HD
ATOM     45  H   UNL     1     154.845 167.185 193.015  0.00  0.00    +0.023 HD
ENDBRANCH  32  42
BRANCH  29  46
ATOM     46  C   UNL     1     149.798 168.138 191.153  0.00  0.00    +0.036 C 
ATOM     47  H   UNL     1     149.142 167.317 190.844  0.00  0.00    +0.037 HD
ATOM     48  H   UNL     1     150.175 168.619 190.245  0.00  0.00    +0.037 HD
BRANCH  46  49
ATOM     49  C   UNL     1     148.942 169.110 191.938  0.00  0.00    +0.158 C 
ATOM     50  O   UNL     1     147.784 168.839 192.258  0.00  0.00    -0.293 OA
BRANCH  49  52
ATOM     51  C   UNL     1     148.816 171.419 192.803  0.00  0.00    -0.084 C 
ATOM     52  C   UNL     1     149.556 170.427 192.284  0.00  0.00    -0.023 C 
ATOM     53  H   UNL     1     147.753 171.263 192.983  0.00  0.00    +0.057 HD
ATOM     54  H   UNL     1     150.617 170.547 192.098  0.00  0.00    +0.065 HD
BRANCH  51  55
ATOM     55  C   UNL     1     149.358 172.765 193.145  0.00  0.00    -0.046 C 
ATOM     56  H   UNL     1     150.053 173.139 192.382  0.00  0.00    +0.027 HD
ATOM     57  H   UNL     1     149.888 172.735 194.107  0.00  0.00    +0.027 HD
ATOM     58  H   UNL     1     148.536 173.486 193.235  0.00  0.00    +0.027 HD
ENDBRANCH  51  55
ENDBRANCH  49  52
ENDBRANCH  46  49
ENDBRANCH  29  46
ENDBRANCH  26  33
ENDBRANCH  22  26
ENDBRANCH  19  24
ENDBRANCH  17  19
BRANCH  17  59
ATOM     59  O   UNL     1     156.470 166.907 187.014  0.00  0.00    -0.390 OA
ATOM     60  H   UNL     1     157.192 166.257 186.954  0.00  0.00    +0.210 HD
ENDBRANCH  17  59
ENDBRANCH  11  17
ENDBRANCH   7  11
ENDBRANCH   4   9
ENDBRANCH   1   4
BRANCH   1  61
ATOM     61  C   UNL     1     159.649 169.951 185.192  0.00  0.00    -0.025 C 
ATOM     62  H   UNL     1     158.807 170.259 185.827  0.00  0.00    +0.029 HD
ATOM     63  H   UNL     1     160.576 170.189 185.726  0.00  0.00    +0.029 HD
BRANCH  61  64
ATOM     64  C   UNL     1     159.598 170.718 183.858  0.00  0.00    +0.065 C 
ATOM     65  C   UNL     1     160.978 171.297 183.475  0.00  0.00    -0.017 C 
ATOM     66  C   UNL     1     160.836 172.492 182.514  0.00  0.00    -0.043 C 
ATOM     67  C   UNL     1     159.510 172.434 181.768  0.00  0.00    +0.002 C 
ATOM     68  C   UNL     1     158.315 172.408 182.748  0.00  0.00    +0.171 C 
ATOM     69  O   UNL     1     158.678 171.804 183.998  0.00  0.00    -0.345 OA
ATOM     70  C   UNL     1     157.839 173.837 183.056  0.00  0.00    +0.002 C 
ATOM     71  C   UNL     1     156.633 173.838 183.999  0.00  0.00    -0.046 C 
ATOM     72  C   UNL     1     155.785 172.579 183.847  0.00  0.00    -0.026 C 
ATOM     73  C   UNL     1     155.930 171.993 182.444  0.00  0.00    +0.062 C 
ATOM     74  O   UNL     1     157.281 171.642 182.117  0.00  0.00    -0.345 OA
ATOM     75  H   UNL     1     159.231 170.033 183.080  0.00  0.00    +0.060 HD
ATOM     76  H   UNL     1     161.475 171.678 184.377  0.00  0.00    +0.032 HD
ATOM     77  H   UNL     1     161.669 172.537 181.802  0.00  0.00    +0.027 HD
ATOM     78  H   UNL     1     160.878 173.424 183.095  0.00  0.00    +0.027 HD
ATOM     79  H   UNL     1     159.500 171.531 181.142  0.00  0.00    +0.032 HD
ATOM     80  H   UNL     1     159.424 173.275 181.065  0.00  0.00    +0.032 HD
ATOM     81  H   UNL     1     157.546 174.334 182.125  0.00  0.00    +0.032 HD
ATOM     82  H   UNL     1     158.638 174.436 183.506  0.00  0.00    +0.032 HD
ATOM     83  H   UNL     1     156.966 173.926 185.039  0.00  0.00    +0.027 HD
ATOM     84  H   UNL     1     156.027 174.729 183.798  0.00  0.00    +0.027 HD
ATOM     85  H   UNL     1     156.121 171.855 184.597  0.00  0.00    +0.029 HD
ATOM     86  H   UNL     1     154.737 172.810 184.074  0.00  0.00    +0.029 HD
ATOM     87  H   UNL     1     155.616 172.750 181.718  0.00  0.00    +0.060 HD
BRANCH  65  88
ATOM     88  C   UNL     1     161.892 170.216 182.877  0.00  0.00    -0.060 C 
ATOM     89  H   UNL     1     161.850 169.304 183.479  0.00  0.00    +0.023 HD
ATOM     90  H   UNL     1     162.932 170.558 182.845  0.00  0.00    +0.023 HD
ATOM     91  H   UNL     1     161.585 169.955 181.861  0.00  0.00    +0.023 HD
ENDBRANCH  65  88
BRANCH  73  92
ATOM     92  C   UNL     1     155.038 170.758 182.217  0.00  0.00    -0.026 C 
ATOM     93  H   UNL     1     154.166 170.838 182.883  0.00  0.00    +0.029 HD
ATOM     94  H   UNL     1     155.597 169.857 182.497  0.00  0.00    +0.029 HD
BRANCH  92  95
ATOM     95  C   UNL     1     154.526 170.641 180.774  0.00  0.00    -0.045 C 
ATOM     96  H   UNL     1     154.611 169.604 180.433  0.00  0.00    +0.027 HD
ATOM     97  H   UNL     1     155.170 171.245 180.121  0.00  0.00    +0.027 HD
BRANCH  95  98
ATOM     98  C   UNL     1     153.068 171.117 180.594  0.00  0.00    -0.025 C 
ATOM     99  H   UNL     1     152.590 171.107 181.578  0.00  0.00    +0.034 HD
BRANCH  98 100
ATOM    100  C   UNL     1     152.266 170.205 179.668  0.00  0.00    -0.059 C 
ATOM    101  H   UNL     1     152.032 170.702 178.720  0.00  0.00    +0.024 HD
ATOM    102  H   UNL     1     151.319 169.905 180.139  0.00  0.00    +0.024 HD
ATOM    103  H   UNL     1     152.820 169.289 179.444  0.00  0.00    +0.024 HD
ENDBRANCH  98 100
BRANCH  98 104
ATOM    104  C   UNL     1     153.096 172.520 180.023  0.00  0.00    -0.080 C 
ATOM    105  C   UNL     1     152.962 173.696 180.675  0.00  0.00    -0.048 C 
ATOM    106  H   UNL     1     153.291 172.545 178.950  0.00  0.00    +0.058 HD
BRANCH 105 107
ATOM    107  C   UNL     1     152.665 173.810 182.148  0.00  0.00    -0.041 C 
ATOM    108  H   UNL     1     151.775 173.227 182.405  0.00  0.00    +0.028 HD
ATOM    109  H   UNL     1     152.495 174.839 182.477  0.00  0.00    +0.028 HD
ATOM    110  H   UNL     1     153.502 173.440 182.748  0.00  0.00    +0.028 HD
ENDBRANCH 105 107
BRANCH 105 111
ATOM    111  C   UNL     1     153.129 175.006 179.931  0.00  0.00    +0.073 C 
ATOM    112  H   UNL     1     152.960 174.857 178.858  0.00  0.00    +0.064 HD
BRANCH 111 113
ATOM    113  C   UNL     1     154.515 175.608 180.120  0.00  0.00    -0.035 C 
ATOM    114  H   UNL     1     155.257 175.120 179.475  0.00  0.00    +0.026 HD
ATOM    115  H   UNL     1     154.524 176.681 179.909  0.00  0.00    +0.026 HD
ATOM    116  H   UNL     1     154.860 175.457 181.150  0.00  0.00    +0.026 HD
ENDBRANCH 111 113
BRANCH 111 117
ATOM    117  O   UNL     1     152.134 175.920 180.381  0.00  0.00    -0.388 OA
ATOM    118  H   UNL     1     151.551 176.105 179.627  0.00  0.00    +0.210 HD
ENDBRANCH 111 117
ENDBRANCH 105 111
ENDBRANCH  98 104
ENDBRANCH  95  98
ENDBRANCH  92  95
ENDBRANCH  73  92
ENDBRANCH  61  64
ENDBRANCH   1  61
TORSDOF 27
ENDMDL
