MODEL 1
REMARK VINA RESULT:      -5.9      0.000      0.000
REMARK  Name = Cytochalasin D_conf2
REMARK  10 active torsions:
REMARK  status: ('A' for Active; 'I' for Inactive)
REMARK    1  A    between atoms: C_1  and  C_2
REMARK    2  A    between atoms: C_7  and  O_37
REMARK    3  A    between atoms: C_10  and  C_36
REMARK    4  A    between atoms: C_13  and  O_21
REMARK    5  A    between atoms: C_16  and  C_19
REMARK    6  A    between atoms: C_16  and  O_20
REMARK    7  A    between atoms: O_21  and  C_22
REMARK    8  A    between atoms: C_22  and  C_24
REMARK    9  A    between atoms: C_28  and  C_29
REMARK   10  A    between atoms: C_29  and  C_30
REMARK                            x       y       z     vdW  Elec       q    Type
REMARK                         _______ _______ _______ _____ _____    ______ ____
ROOT
ATOM      1  C   UNL     1     163.855 169.757 181.027  0.00  0.00    +0.021 C 
ATOM      2  C   UNL     1     162.937 168.575 181.381  0.00  0.00    -0.025 C 
ATOM      3  C   UNL     1     161.476 168.908 181.222  0.00  0.00    -0.087 C 
ATOM      4  C   UNL     1     160.631 169.077 182.254  0.00  0.00    -0.081 C 
ATOM      5  C   UNL     1     159.148 169.421 182.107  0.00  0.00    +0.025 C 
ATOM      6  C   UNL     1     158.296 168.237 182.647  0.00  0.00    +0.084 C 
ATOM      7  C   UNL     1     156.805 168.504 182.625  0.00  0.00    -0.045 C 
ATOM      8  C   UNL     1     155.950 167.623 183.178  0.00  0.00    -0.097 C 
ATOM      9  C   UNL     1     156.399 169.805 181.963  0.00  0.00    -0.015 C 
ATOM     10  C   UNL     1     157.121 170.987 182.659  0.00  0.00    +0.002 C 
ATOM     11  C   UNL     1     158.699 170.800 182.729  0.00  0.00    +0.101 C 
ATOM     12  C   UNL     1     159.385 172.032 182.039  0.00  0.00    +0.136 C 
ATOM     13  C   UNL     1     160.850 172.240 182.375  0.00  0.00    -0.044 C 
ATOM     14  C   UNL     1     161.896 172.137 181.532  0.00  0.00    -0.046 C 
ATOM     15  C   UNL     1     163.351 172.211 181.916  0.00  0.00    +0.139 C 
ATOM     16  C   UNL     1     163.879 170.772 182.171  0.00  0.00    +0.171 C 
ATOM     17  O   UNL     1     164.306 170.461 183.291  0.00  0.00    -0.294 OA
ATOM     18  C   UNL     1     158.959 170.793 184.234  0.00  0.00    +0.224 C 
ATOM     19  O   UNL     1     160.021 170.598 184.804  0.00  0.00    -0.275 OA
ATOM     20  N   UNL     1     157.801 170.998 184.924  0.00  0.00    -0.311 N 
ATOM     21  C   UNL     1     156.643 171.213 184.115  0.00  0.00    +0.032 C 
ATOM     22  H   UNL     1     163.504 170.240 180.109  0.00  0.00    +0.038 HD
ATOM     23  H   UNL     1     163.149 167.729 180.716  0.00  0.00    +0.031 HD
ATOM     24  H   UNL     1     163.139 168.221 182.400  0.00  0.00    +0.031 HD
ATOM     25  H   UNL     1     161.111 169.018 180.202  0.00  0.00    +0.057 HD
ATOM     26  H   UNL     1     161.011 168.963 183.269  0.00  0.00    +0.057 HD
ATOM     27  H   UNL     1     158.959 169.468 181.024  0.00  0.00    +0.038 HD
ATOM     28  H   UNL     1     158.602 167.981 183.670  0.00  0.00    +0.065 HD
ATOM     29  H   UNL     1     154.875 167.764 183.185  0.00  0.00    +0.054 HD
ATOM     30  H   UNL     1     156.319 166.703 183.625  0.00  0.00    +0.054 HD
ATOM     31  H   UNL     1     156.758 169.761 180.924  0.00  0.00    +0.035 HD
ATOM     32  H   UNL     1     156.873 171.875 182.072  0.00  0.00    +0.034 HD
ATOM     33  H   UNL     1     158.885 172.957 182.343  0.00  0.00    +0.079 HD
ATOM     34  H   UNL     1     161.051 172.473 183.420  0.00  0.00    +0.061 HD
ATOM     35  H   UNL     1     161.704 171.903 180.488  0.00  0.00    +0.060 HD
ATOM     36  H   UNL     1     157.806 170.979 185.936  0.00  0.00    +0.149 HD
ATOM     37  H   UNL     1     155.934 170.436 184.422  0.00  0.00    +0.050 HD
ENDROOT
BRANCH   1  38
ATOM     38  C   UNL     1     165.286 169.278 180.784  0.00  0.00    -0.055 C 
ATOM     39  H   UNL     1     165.356 168.717 179.845  0.00  0.00    +0.024 HD
ATOM     40  H   UNL     1     165.619 168.621 181.594  0.00  0.00    +0.024 HD
ATOM     41  H   UNL     1     165.987 170.118 180.718  0.00  0.00    +0.024 HD
ENDBRANCH   1  38
BRANCH  15  42
ATOM     42  C   UNL     1     164.190 172.923 180.857  0.00  0.00    -0.025 C 
ATOM     43  H   UNL     1     165.259 172.777 181.051  0.00  0.00    +0.026 HD
ATOM     44  H   UNL     1     164.012 174.005 180.877  0.00  0.00    +0.026 HD
ATOM     45  H   UNL     1     163.984 172.562 179.844  0.00  0.00    +0.026 HD
ENDBRANCH  15  42
BRANCH   9  46
ATOM     46  C   UNL     1     154.889 170.064 181.838  0.00  0.00    -0.058 C 
ATOM     47  H   UNL     1     154.324 169.161 181.590  0.00  0.00    +0.024 HD
ATOM     48  H   UNL     1     154.688 170.810 181.062  0.00  0.00    +0.024 HD
ATOM     49  H   UNL     1     154.490 170.459 182.779  0.00  0.00    +0.024 HD
ENDBRANCH   9  46
BRANCH  21  50
ATOM     50  C   UNL     1     155.952 172.565 184.391  0.00  0.00    -0.009 C 
ATOM     51  H   UNL     1     155.095 172.394 185.054  0.00  0.00    +0.033 HD
ATOM     52  H   UNL     1     156.640 173.201 184.966  0.00  0.00    +0.033 HD
BRANCH  50  53
ATOM     53  C   UNL     1     155.507 173.364 183.189  0.00  0.00    -0.046 A 
ATOM     54  C   UNL     1     156.377 174.262 182.556  0.00  0.00    -0.059 A 
ATOM     55  C   UNL     1     155.964 174.986 181.436  0.00  0.00    -0.062 A 
ATOM     56  C   UNL     1     154.672 174.831 180.942  0.00  0.00    -0.062 A 
ATOM     57  C   UNL     1     153.791 173.957 181.573  0.00  0.00    -0.062 A 
ATOM     58  C   UNL     1     154.204 173.230 182.692  0.00  0.00    -0.059 A 
ATOM     59  H   UNL     1     157.390 174.406 182.924  0.00  0.00    +0.062 HD
ATOM     60  H   UNL     1     156.653 175.669 180.945  0.00  0.00    +0.062 HD
ATOM     61  H   UNL     1     154.351 175.389 180.067  0.00  0.00    +0.062 HD
ATOM     62  H   UNL     1     152.783 173.825 181.187  0.00  0.00    +0.062 HD
ATOM     63  H   UNL     1     153.500 172.541 183.154  0.00  0.00    +0.062 HD
ENDBRANCH  50  53
ENDBRANCH  21  50
BRANCH  15  64
ATOM     64  O   UNL     1     163.485 172.974 183.119  0.00  0.00    -0.377 OA
ATOM     65  H   UNL     1     164.339 172.700 183.513  0.00  0.00    +0.211 HD
ENDBRANCH  15  64
BRANCH   6  66
ATOM     66  O   UNL     1     158.506 167.084 181.825  0.00  0.00    -0.387 OA
ATOM     67  H   UNL     1     158.644 167.409 180.918  0.00  0.00    +0.210 HD
ENDBRANCH   6  66
BRANCH  12  68
ATOM     68  O   UNL     1     159.290 171.861 180.598  0.00  0.00    -0.456 OA
BRANCH  68  69
ATOM     69  C   UNL     1     158.637 172.789 179.858  0.00  0.00    +0.305 C 
ATOM     70  O   UNL     1     158.963 173.954 179.703  0.00  0.00    -0.251 OA
BRANCH  69  71
ATOM     71  C   UNL     1     157.427 172.169 179.227  0.00  0.00    +0.033 C 
ATOM     72  H   UNL     1     157.640 171.900 178.190  0.00  0.00    +0.034 HD
ATOM     73  H   UNL     1     156.589 172.866 179.278  0.00  0.00    +0.034 HD
ATOM     74  H   UNL     1     157.169 171.252 179.766  0.00  0.00    +0.034 HD
ENDBRANCH  69  71
ENDBRANCH  68  69
ENDBRANCH  12  68
TORSDOF 10
ENDMDL
MODEL 2
REMARK VINA RESULT:      -5.8     11.808     14.908
REMARK  Name = Cytochalasin D_conf2
REMARK  10 active torsions:
REMARK  status: ('A' for Active; 'I' for Inactive)
REMARK    1  A    between atoms: C_1  and  C_2
REMARK    2  A    between atoms: C_7  and  O_37
REMARK    3  A    between atoms: C_10  and  C_36
REMARK    4  A    between atoms: C_13  and  O_21
REMARK    5  A    between atoms: C_16  and  C_19
REMARK    6  A    between atoms: C_16  and  O_20
REMARK    7  A    between atoms: O_21  and  C_22
REMARK    8  A    between atoms: C_22  and  C_24
REMARK    9  A    between atoms: C_28  and  C_29
REMARK   10  A    between atoms: C_29  and  C_30
REMARK                            x       y       z     vdW  Elec       q    Type
REMARK                         _______ _______ _______ _____ _____    ______ ____
ROOT
ATOM      1  C   UNL     1     151.889 166.202 192.922  0.00  0.00    +0.021 C 
ATOM      2  C   UNL     1     150.648 166.166 193.830  0.00  0.00    -0.025 C 
ATOM      3  C   UNL     1     149.385 165.850 193.073  0.00  0.00    -0.087 C 
ATOM      4  C   UNL     1     148.417 166.749 192.824  0.00  0.00    -0.081 C 
ATOM      5  C   UNL     1     147.133 166.445 192.051  0.00  0.00    +0.025 C 
ATOM      6  C   UNL     1     145.916 166.598 193.009  0.00  0.00    +0.084 C 
ATOM      7  C   UNL     1     144.578 166.397 192.325  0.00  0.00    -0.045 C 
ATOM      8  C   UNL     1     143.433 166.622 192.996  0.00  0.00    -0.097 C 
ATOM      9  C   UNL     1     144.661 165.952 190.879  0.00  0.00    -0.015 C 
ATOM     10  C   UNL     1     145.502 166.973 190.070  0.00  0.00    +0.002 C 
ATOM     11  C   UNL     1     146.931 167.251 190.710  0.00  0.00    +0.101 C 
ATOM     12  C   UNL     1     148.035 166.935 189.638  0.00  0.00    +0.136 C 
ATOM     13  C   UNL     1     149.403 167.530 189.911  0.00  0.00    -0.044 C 
ATOM     14  C   UNL     1     150.538 166.858 190.183  0.00  0.00    -0.046 C 
ATOM     15  C   UNL     1     151.854 167.471 190.587  0.00  0.00    +0.139 C 
ATOM     16  C   UNL     1     151.935 167.514 192.138  0.00  0.00    +0.171 C 
ATOM     17  O   UNL     1     152.030 168.603 192.722  0.00  0.00    -0.294 OA
ATOM     18  C   UNL     1     146.866 168.745 191.015  0.00  0.00    +0.224 C 
ATOM     19  O   UNL     1     147.704 169.424 191.588  0.00  0.00    -0.275 OA
ATOM     20  N   UNL     1     145.683 169.273 190.591  0.00  0.00    -0.311 N 
ATOM     21  C   UNL     1     144.809 168.352 189.936  0.00  0.00    +0.032 C 
ATOM     22  H   UNL     1     151.868 165.355 192.228  0.00  0.00    +0.038 HD
ATOM     23  H   UNL     1     150.770 165.387 194.593  0.00  0.00    +0.031 HD
ATOM     24  H   UNL     1     150.541 167.112 194.375  0.00  0.00    +0.031 HD
ATOM     25  H   UNL     1     149.276 164.828 192.713  0.00  0.00    +0.057 HD
ATOM     26  H   UNL     1     148.540 167.768 193.191  0.00  0.00    +0.057 HD
ATOM     27  H   UNL     1     147.188 165.377 191.792  0.00  0.00    +0.038 HD
ATOM     28  H   UNL     1     145.931 167.584 193.490  0.00  0.00    +0.065 HD
ATOM     29  H   UNL     1     142.452 166.490 192.556  0.00  0.00    +0.054 HD
ATOM     30  H   UNL     1     143.457 166.930 194.039  0.00  0.00    +0.054 HD
ATOM     31  H   UNL     1     145.202 164.994 190.869  0.00  0.00    +0.035 HD
ATOM     32  H   UNL     1     145.613 166.543 189.072  0.00  0.00    +0.034 HD
ATOM     33  H   UNL     1     147.734 167.335 188.664  0.00  0.00    +0.079 HD
ATOM     34  H   UNL     1     149.438 168.619 189.903  0.00  0.00    +0.061 HD
ATOM     35  H   UNL     1     150.511 165.771 190.195  0.00  0.00    +0.060 HD
ATOM     36  H   UNL     1     145.476 170.250 190.761  0.00  0.00    +0.149 HD
ATOM     37  H   UNL     1     143.878 168.384 190.513  0.00  0.00    +0.050 HD
ENDROOT
BRANCH   1  38
ATOM     38  C   UNL     1     153.170 166.095 193.750  0.00  0.00    -0.055 C 
ATOM     39  H   UNL     1     153.921 166.812 193.400  0.00  0.00    +0.024 HD
ATOM     40  H   UNL     1     153.599 165.092 193.674  0.00  0.00    +0.024 HD
ATOM     41  H   UNL     1     152.983 166.306 194.809  0.00  0.00    +0.024 HD
ENDBRANCH   1  38
BRANCH  15  42
ATOM     42  C   UNL     1     153.044 166.720 189.997  0.00  0.00    -0.025 C 
ATOM     43  H   UNL     1     153.935 167.359 189.984  0.00  0.00    +0.026 HD
ATOM     44  H   UNL     1     152.850 166.431 188.956  0.00  0.00    +0.026 HD
ATOM     45  H   UNL     1     153.292 165.815 190.561  0.00  0.00    +0.026 HD
ENDBRANCH  15  42
BRANCH   9  46
ATOM     46  C   UNL     1     143.326 165.647 190.183  0.00  0.00    -0.058 C 
ATOM     47  H   UNL     1     142.496 166.240 190.579  0.00  0.00    +0.024 HD
ATOM     48  H   UNL     1     143.064 164.589 190.295  0.00  0.00    +0.024 HD
ATOM     49  H   UNL     1     143.398 165.851 189.109  0.00  0.00    +0.024 HD
ENDBRANCH   9  46
BRANCH  21  50
ATOM     50  C   UNL     1     144.443 168.780 188.499  0.00  0.00    -0.009 C 
ATOM     51  H   UNL     1     143.489 168.312 188.224  0.00  0.00    +0.033 HD
ATOM     52  H   UNL     1     144.246 169.861 188.493  0.00  0.00    +0.033 HD
BRANCH  50  53
ATOM     53  C   UNL     1     145.467 168.508 187.422  0.00  0.00    -0.046 A 
ATOM     54  C   UNL     1     146.528 169.395 187.193  0.00  0.00    -0.059 A 
ATOM     55  C   UNL     1     147.479 169.130 186.207  0.00  0.00    -0.062 A 
ATOM     56  C   UNL     1     147.375 167.981 185.428  0.00  0.00    -0.062 A 
ATOM     57  C   UNL     1     146.316 167.101 185.632  0.00  0.00    -0.062 A 
ATOM     58  C   UNL     1     145.365 167.364 186.620  0.00  0.00    -0.059 A 
ATOM     59  H   UNL     1     146.629 170.302 187.784  0.00  0.00    +0.062 HD
ATOM     60  H   UNL     1     148.305 169.819 186.049  0.00  0.00    +0.062 HD
ATOM     61  H   UNL     1     148.119 167.770 184.665  0.00  0.00    +0.062 HD
ATOM     62  H   UNL     1     146.234 166.198 185.033  0.00  0.00    +0.062 HD
ATOM     63  H   UNL     1     144.557 166.650 186.769  0.00  0.00    +0.062 HD
ENDBRANCH  50  53
ENDBRANCH  21  50
BRANCH  15  64
ATOM     64  O   UNL     1     151.928 168.808 190.082  0.00  0.00    -0.377 OA
ATOM     65  H   UNL     1     152.640 169.245 190.592  0.00  0.00    +0.211 HD
ENDBRANCH  15  64
BRANCH   6  66
ATOM     66  O   UNL     1     145.991 165.606 194.038  0.00  0.00    -0.387 OA
ATOM     67  H   UNL     1     145.191 165.057 193.956  0.00  0.00    +0.210 HD
ENDBRANCH   6  66
BRANCH  12  68
ATOM     68  O   UNL     1     148.196 165.492 189.559  0.00  0.00    -0.456 OA
BRANCH  68  69
ATOM     69  C   UNL     1     148.066 164.871 188.362  0.00  0.00    +0.305 C 
ATOM     70  O   UNL     1     148.861 164.906 187.437  0.00  0.00    -0.251 OA
BRANCH  69  71
ATOM     71  C   UNL     1     146.779 164.104 188.330  0.00  0.00    +0.033 C 
ATOM     72  H   UNL     1     145.999 164.697 187.847  0.00  0.00    +0.034 HD
ATOM     73  H   UNL     1     146.485 163.839 189.347  0.00  0.00    +0.034 HD
ATOM     74  H   UNL     1     146.918 163.190 187.744  0.00  0.00    +0.034 HD
ENDBRANCH  69  71
ENDBRANCH  68  69
ENDBRANCH  12  68
TORSDOF 10
ENDMDL
MODEL 3
REMARK VINA RESULT:      -5.6      4.370      8.508
REMARK  Name = Cytochalasin D_conf2
REMARK  10 active torsions:
REMARK  status: ('A' for Active; 'I' for Inactive)
REMARK    1  A    between atoms: C_1  and  C_2
REMARK    2  A    between atoms: C_7  and  O_37
REMARK    3  A    between atoms: C_10  and  C_36
REMARK    4  A    between atoms: C_13  and  O_21
REMARK    5  A    between atoms: C_16  and  C_19
REMARK    6  A    between atoms: C_16  and  O_20
REMARK    7  A    between atoms: O_21  and  C_22
REMARK    8  A    between atoms: C_22  and  C_24
REMARK    9  A    between atoms: C_28  and  C_29
REMARK   10  A    between atoms: C_29  and  C_30
REMARK                            x       y       z     vdW  Elec       q    Type
REMARK                         _______ _______ _______ _____ _____    ______ ____
ROOT
ATOM      1  C   UNL     1     152.699 177.000 176.638  0.00  0.00    +0.021 C 
ATOM      2  C   UNL     1     153.891 176.341 175.926  0.00  0.00    -0.025 C 
ATOM      3  C   UNL     1     154.553 175.279 176.765  0.00  0.00    -0.087 C 
ATOM      4  C   UNL     1     155.762 175.421 177.336  0.00  0.00    -0.081 C 
ATOM      5  C   UNL     1     156.442 174.354 178.195  0.00  0.00    +0.025 C 
ATOM      6  C   UNL     1     157.731 173.867 177.473  0.00  0.00    +0.084 C 
ATOM      7  C   UNL     1     158.532 172.862 178.277  0.00  0.00    -0.045 C 
ATOM      8  C   UNL     1     159.735 172.447 177.837  0.00  0.00    -0.097 C 
ATOM      9  C   UNL     1     157.877 172.408 179.566  0.00  0.00    -0.015 C 
ATOM     10  C   UNL     1     157.567 173.642 180.452  0.00  0.00    +0.002 C 
ATOM     11  C   UNL     1     156.724 174.758 179.694  0.00  0.00    +0.101 C 
ATOM     12  C   UNL     1     155.410 175.037 180.508  0.00  0.00    +0.136 C 
ATOM     13  C   UNL     1     154.701 176.338 180.183  0.00  0.00    -0.044 C 
ATOM     14  C   UNL     1     153.488 176.479 179.615  0.00  0.00    -0.046 C 
ATOM     15  C   UNL     1     152.863 177.777 179.175  0.00  0.00    +0.139 C 
ATOM     16  C   UNL     1     153.192 178.011 177.674  0.00  0.00    +0.171 C 
ATOM     17  O   UNL     1     153.849 179.004 177.334  0.00  0.00    -0.294 OA
ATOM     18  C   UNL     1     157.665 175.959 179.734  0.00  0.00    +0.224 C 
ATOM     19  O   UNL     1     157.500 177.050 179.211  0.00  0.00    -0.275 OA
ATOM     20  N   UNL     1     158.802 175.658 180.422  0.00  0.00    -0.311 N 
ATOM     21  C   UNL     1     158.845 174.342 180.977  0.00  0.00    +0.032 C 
ATOM     22  H   UNL     1     152.087 176.234 177.127  0.00  0.00    +0.038 HD
ATOM     23  H   UNL     1     153.551 175.856 175.003  0.00  0.00    +0.031 HD
ATOM     24  H   UNL     1     154.625 177.098 175.621  0.00  0.00    +0.031 HD
ATOM     25  H   UNL     1     153.996 174.354 176.906  0.00  0.00    +0.057 HD
ATOM     26  H   UNL     1     156.307 176.352 177.185  0.00  0.00    +0.057 HD
ATOM     27  H   UNL     1     155.753 173.497 178.206  0.00  0.00    +0.038 HD
ATOM     28  H   UNL     1     158.373 174.721 177.221  0.00  0.00    +0.065 HD
ATOM     29  H   UNL     1     160.345 171.728 178.370  0.00  0.00    +0.054 HD
ATOM     30  H   UNL     1     160.133 172.812 176.893  0.00  0.00    +0.054 HD
ATOM     31  H   UNL     1     156.917 171.945 179.291  0.00  0.00    +0.035 HD
ATOM     32  H   UNL     1     157.005 173.260 181.307  0.00  0.00    +0.034 HD
ATOM     33  H   UNL     1     155.637 175.090 181.577  0.00  0.00    +0.079 HD
ATOM     34  H   UNL     1     155.266 177.238 180.422  0.00  0.00    +0.061 HD
ATOM     35  H   UNL     1     152.919 175.585 179.372  0.00  0.00    +0.060 HD
ATOM     36  H   UNL     1     159.543 176.345 180.500  0.00  0.00    +0.149 HD
ATOM     37  H   UNL     1     159.747 173.885 180.556  0.00  0.00    +0.050 HD
ENDROOT
BRANCH   1  38
ATOM     38  C   UNL     1     151.810 177.737 175.636  0.00  0.00    -0.055 C 
ATOM     39  H   UNL     1     150.786 177.831 176.018  0.00  0.00    +0.024 HD
ATOM     40  H   UNL     1     151.767 177.199 174.685  0.00  0.00    +0.024 HD
ATOM     41  H   UNL     1     152.180 178.750 175.438  0.00  0.00    +0.024 HD
ENDBRANCH   1  38
BRANCH  15  42
ATOM     42  C   UNL     1     151.356 177.801 179.416  0.00  0.00    -0.025 C 
ATOM     43  H   UNL     1     150.902 176.850 179.114  0.00  0.00    +0.026 HD
ATOM     44  H   UNL     1     150.874 178.582 178.816  0.00  0.00    +0.026 HD
ATOM     45  H   UNL     1     151.100 177.972 180.467  0.00  0.00    +0.026 HD
ENDBRANCH  15  42
BRANCH   9  46
ATOM     46  C   UNL     1     158.617 171.319 180.358  0.00  0.00    -0.058 C 
ATOM     47  H   UNL     1     158.662 171.531 181.430  0.00  0.00    +0.024 HD
ATOM     48  H   UNL     1     159.645 171.208 179.995  0.00  0.00    +0.024 HD
ATOM     49  H   UNL     1     158.121 170.349 180.230  0.00  0.00    +0.024 HD
ENDBRANCH   9  46
BRANCH  21  50
ATOM     50  C   UNL     1     159.029 174.336 182.510  0.00  0.00    -0.009 C 
ATOM     51  H   UNL     1     160.050 174.005 182.740  0.00  0.00    +0.033 HD
ATOM     52  H   UNL     1     158.972 175.370 182.876  0.00  0.00    +0.033 HD
BRANCH  50  53
ATOM     53  C   UNL     1     158.043 173.522 183.314  0.00  0.00    -0.046 A 
ATOM     54  C   UNL     1     156.814 174.067 183.713  0.00  0.00    -0.059 A 
ATOM     55  C   UNL     1     155.900 173.305 184.443  0.00  0.00    -0.062 A 
ATOM     56  C   UNL     1     156.209 171.993 184.795  0.00  0.00    -0.062 A 
ATOM     57  C   UNL     1     157.434 171.447 184.423  0.00  0.00    -0.062 A 
ATOM     58  C   UNL     1     158.347 172.207 183.690  0.00  0.00    -0.059 A 
ATOM     59  H   UNL     1     156.551 175.089 183.456  0.00  0.00    +0.062 HD
ATOM     60  H   UNL     1     154.945 173.734 184.734  0.00  0.00    +0.062 HD
ATOM     61  H   UNL     1     155.496 171.398 185.358  0.00  0.00    +0.062 HD
ATOM     62  H   UNL     1     157.677 170.421 184.687  0.00  0.00    +0.062 HD
ATOM     63  H   UNL     1     159.290 171.749 183.397  0.00  0.00    +0.062 HD
ENDBRANCH  50  53
ENDBRANCH  21  50
BRANCH  15  64
ATOM     64  O   UNL     1     153.413 178.851 179.943  0.00  0.00    -0.377 OA
ATOM     65  H   UNL     1     153.797 179.473 179.291  0.00  0.00    +0.211 HD
ENDBRANCH  15  64
BRANCH   6  66
ATOM     66  O   UNL     1     157.375 173.209 176.253  0.00  0.00    -0.387 OA
ATOM     67  H   UNL     1     158.019 173.496 175.582  0.00  0.00    +0.210 HD
ENDBRANCH   6  66
BRANCH  12  68
ATOM     68  O   UNL     1     154.473 173.955 180.248  0.00  0.00    -0.456 OA
BRANCH  68  69
ATOM     69  C   UNL     1     153.943 173.267 181.288  0.00  0.00    +0.305 C 
ATOM     70  O   UNL     1     153.140 173.691 182.103  0.00  0.00    -0.251 OA
BRANCH  69  71
ATOM     71  C   UNL     1     154.486 171.871 181.297  0.00  0.00    +0.033 C 
ATOM     72  H   UNL     1     154.412 171.445 182.300  0.00  0.00    +0.034 HD
ATOM     73  H   UNL     1     155.524 171.878 180.959  0.00  0.00    +0.034 HD
ATOM     74  H   UNL     1     153.891 171.248 180.623  0.00  0.00    +0.034 HD
ENDBRANCH  69  71
ENDBRANCH  68  69
ENDBRANCH  12  68
TORSDOF 10
ENDMDL
MODEL 4
REMARK VINA RESULT:      -5.6     15.994     18.924
REMARK  Name = Cytochalasin D_conf2
REMARK  10 active torsions:
REMARK  status: ('A' for Active; 'I' for Inactive)
REMARK    1  A    between atoms: C_1  and  C_2
REMARK    2  A    between atoms: C_7  and  O_37
REMARK    3  A    between atoms: C_10  and  C_36
REMARK    4  A    between atoms: C_13  and  O_21
REMARK    5  A    between atoms: C_16  and  C_19
REMARK    6  A    between atoms: C_16  and  O_20
REMARK    7  A    between atoms: O_21  and  C_22
REMARK    8  A    between atoms: C_22  and  C_24
REMARK    9  A    between atoms: C_28  and  C_29
REMARK   10  A    between atoms: C_29  and  C_30
REMARK                            x       y       z     vdW  Elec       q    Type
REMARK                         _______ _______ _______ _____ _____    ______ ____
ROOT
ATOM      1  C   UNL     1     150.794 186.919 186.932  0.00  0.00    +0.021 C 
ATOM      2  C   UNL     1     150.779 185.600 186.143  0.00  0.00    -0.025 C 
ATOM      3  C   UNL     1     149.425 184.939 186.141  0.00  0.00    -0.087 C 
ATOM      4  C   UNL     1     149.138 183.819 186.827  0.00  0.00    -0.081 C 
ATOM      5  C   UNL     1     147.767 183.142 186.839  0.00  0.00    +0.025 C 
ATOM      6  C   UNL     1     147.886 181.742 186.172  0.00  0.00    +0.084 C 
ATOM      7  C   UNL     1     146.597 180.945 186.202  0.00  0.00    -0.045 C 
ATOM      8  C   UNL     1     146.580 179.668 185.776  0.00  0.00    -0.097 C 
ATOM      9  C   UNL     1     145.396 181.693 186.746  0.00  0.00    -0.015 C 
ATOM     10  C   UNL     1     145.712 182.211 188.173  0.00  0.00    +0.002 C 
ATOM     11  C   UNL     1     147.052 183.065 188.244  0.00  0.00    +0.101 C 
ATOM     12  C   UNL     1     146.717 184.481 188.836  0.00  0.00    +0.136 C 
ATOM     13  C   UNL     1     147.902 185.267 189.366  0.00  0.00    -0.044 C 
ATOM     14  C   UNL     1     148.396 186.418 188.871  0.00  0.00    -0.046 C 
ATOM     15  C   UNL     1     149.655 187.108 189.327  0.00  0.00    +0.139 C 
ATOM     16  C   UNL     1     150.838 186.639 188.435  0.00  0.00    +0.171 C 
ATOM     17  O   UNL     1     151.797 186.043 188.944  0.00  0.00    -0.294 OA
ATOM     18  C   UNL     1     147.907 182.249 189.210  0.00  0.00    +0.224 C 
ATOM     19  O   UNL     1     149.066 182.455 189.534  0.00  0.00    -0.275 OA
ATOM     20  N   UNL     1     147.213 181.172 189.676  0.00  0.00    -0.311 N 
ATOM     21  C   UNL     1     145.867 181.069 189.208  0.00  0.00    +0.032 C 
ATOM     22  H   UNL     1     149.902 187.507 186.690  0.00  0.00    +0.038 HD
ATOM     23  H   UNL     1     151.046 185.791 185.096  0.00  0.00    +0.031 HD
ATOM     24  H   UNL     1     151.540 184.910 186.531  0.00  0.00    +0.031 HD
ATOM     25  H   UNL     1     148.651 185.421 185.547  0.00  0.00    +0.057 HD
ATOM     26  H   UNL     1     149.924 183.348 187.417  0.00  0.00    +0.057 HD
ATOM     27  H   UNL     1     147.130 183.746 186.176  0.00  0.00    +0.038 HD
ATOM     28  H   UNL     1     148.683 181.158 186.650  0.00  0.00    +0.065 HD
ATOM     29  H   UNL     1     145.685 179.056 185.773  0.00  0.00    +0.054 HD
ATOM     30  H   UNL     1     147.483 179.204 185.388  0.00  0.00    +0.054 HD
ATOM     31  H   UNL     1     145.246 182.570 186.099  0.00  0.00    +0.035 HD
ATOM     32  H   UNL     1     144.857 182.827 188.462  0.00  0.00    +0.034 HD
ATOM     33  H   UNL     1     146.035 184.379 189.685  0.00  0.00    +0.079 HD
ATOM     34  H   UNL     1     148.402 184.817 190.223  0.00  0.00    +0.061 HD
ATOM     35  H   UNL     1     147.904 186.871 188.015  0.00  0.00    +0.060 HD
ATOM     36  H   UNL     1     147.664 180.511 190.297  0.00  0.00    +0.149 HD
ATOM     37  H   UNL     1     145.808 180.088 188.725  0.00  0.00    +0.050 HD
ENDROOT
BRANCH   1  38
ATOM     38  C   UNL     1     152.019 187.757 186.566  0.00  0.00    -0.055 C 
ATOM     39  H   UNL     1     152.800 187.131 186.120  0.00  0.00    +0.024 HD
ATOM     40  H   UNL     1     152.439 188.240 187.453  0.00  0.00    +0.024 HD
ATOM     41  H   UNL     1     151.769 188.538 185.839  0.00  0.00    +0.024 HD
ENDBRANCH   1  38
BRANCH  15  42
ATOM     42  C   UNL     1     149.520 188.628 189.303  0.00  0.00    -0.025 C 
ATOM     43  H   UNL     1     149.332 188.982 188.283  0.00  0.00    +0.026 HD
ATOM     44  H   UNL     1     150.447 189.111 189.636  0.00  0.00    +0.026 HD
ATOM     45  H   UNL     1     148.702 188.988 189.935  0.00  0.00    +0.026 HD
ENDBRANCH  15  42
BRANCH   9  46
ATOM     46  C   UNL     1     144.054 180.947 186.703  0.00  0.00    -0.058 C 
ATOM     47  H   UNL     1     143.257 181.535 186.238  0.00  0.00    +0.024 HD
ATOM     48  H   UNL     1     143.727 180.681 187.714  0.00  0.00    +0.024 HD
ATOM     49  H   UNL     1     144.152 180.014 186.138  0.00  0.00    +0.024 HD
ENDBRANCH   9  46
BRANCH  21  50
ATOM     50  C   UNL     1     144.828 181.055 190.349  0.00  0.00    -0.009 C 
ATOM     51  H   UNL     1     144.035 180.340 190.094  0.00  0.00    +0.033 HD
ATOM     52  H   UNL     1     145.303 180.648 191.252  0.00  0.00    +0.033 HD
BRANCH  50  53
ATOM     53  C   UNL     1     144.209 182.379 190.728  0.00  0.00    -0.046 A 
ATOM     54  C   UNL     1     144.856 183.252 191.614  0.00  0.00    -0.059 A 
ATOM     55  C   UNL     1     144.285 184.481 191.949  0.00  0.00    -0.062 A 
ATOM     56  C   UNL     1     143.055 184.849 191.410  0.00  0.00    -0.062 A 
ATOM     57  C   UNL     1     142.393 183.984 190.544  0.00  0.00    -0.062 A 
ATOM     58  C   UNL     1     142.963 182.755 190.207  0.00  0.00    -0.059 A 
ATOM     59  H   UNL     1     145.814 182.986 192.052  0.00  0.00    +0.062 HD
ATOM     60  H   UNL     1     144.804 185.154 192.626  0.00  0.00    +0.062 HD
ATOM     61  H   UNL     1     142.614 185.808 191.665  0.00  0.00    +0.062 HD
ATOM     62  H   UNL     1     141.436 184.269 190.114  0.00  0.00    +0.062 HD
ATOM     63  H   UNL     1     142.432 182.106 189.513  0.00  0.00    +0.062 HD
ENDBRANCH  50  53
ENDBRANCH  21  50
BRANCH  15  64
ATOM     64  O   UNL     1     149.928 186.747 190.685  0.00  0.00    -0.377 OA
ATOM     65  H   UNL     1     150.579 187.404 191.008  0.00  0.00    +0.211 HD
ENDBRANCH  15  64
BRANCH   6  66
ATOM     66  O   UNL     1     148.224 181.899 184.790  0.00  0.00    -0.387 OA
ATOM     67  H   UNL     1     148.099 181.030 184.371  0.00  0.00    +0.210 HD
ENDBRANCH   6  66
BRANCH  12  68
ATOM     68  O   UNL     1     146.100 185.279 187.789  0.00  0.00    -0.456 OA
BRANCH  68  69
ATOM     69  C   UNL     1     144.887 185.842 188.007  0.00  0.00    +0.305 C 
ATOM     70  O   UNL     1     144.646 186.784 188.744  0.00  0.00    -0.251 OA
BRANCH  69  71
ATOM     71  C   UNL     1     143.849 185.134 187.190  0.00  0.00    +0.033 C 
ATOM     72  H   UNL     1     144.307 184.318 186.626  0.00  0.00    +0.034 HD
ATOM     73  H   UNL     1     143.367 185.843 186.515  0.00  0.00    +0.034 HD
ATOM     74  H   UNL     1     143.098 184.701 187.857  0.00  0.00    +0.034 HD
ENDBRANCH  69  71
ENDBRANCH  68  69
ENDBRANCH  12  68
TORSDOF 10
ENDMDL
MODEL 5
REMARK VINA RESULT:      -5.5      9.000     12.741
REMARK  Name = Cytochalasin D_conf2
REMARK  10 active torsions:
REMARK  status: ('A' for Active; 'I' for Inactive)
REMARK    1  A    between atoms: C_1  and  C_2
REMARK    2  A    between atoms: C_7  and  O_37
REMARK    3  A    between atoms: C_10  and  C_36
REMARK    4  A    between atoms: C_13  and  O_21
REMARK    5  A    between atoms: C_16  and  C_19
REMARK    6  A    between atoms: C_16  and  O_20
REMARK    7  A    between atoms: O_21  and  C_22
REMARK    8  A    between atoms: C_22  and  C_24
REMARK    9  A    between atoms: C_28  and  C_29
REMARK   10  A    between atoms: C_29  and  C_30
REMARK                            x       y       z     vdW  Elec       q    Type
REMARK                         _______ _______ _______ _____ _____    ______ ____
ROOT
ATOM      1  C   UNL     1     150.194 166.673 191.713  0.00  0.00    +0.021 C 
ATOM      2  C   UNL     1     149.811 166.867 190.236  0.00  0.00    -0.025 C 
ATOM      3  C   UNL     1     150.470 165.860 189.329  0.00  0.00    -0.087 C 
ATOM      4  C   UNL     1     151.463 166.161 188.474  0.00  0.00    -0.081 C 
ATOM      5  C   UNL     1     152.145 165.149 187.553  0.00  0.00    +0.025 C 
ATOM      6  C   UNL     1     151.842 165.524 186.074  0.00  0.00    +0.084 C 
ATOM      7  C   UNL     1     152.539 164.630 185.067  0.00  0.00    -0.045 C 
ATOM      8  C   UNL     1     152.473 164.910 183.752  0.00  0.00    -0.097 C 
ATOM      9  C   UNL     1     153.289 163.458 185.667  0.00  0.00    -0.015 C 
ATOM     10  C   UNL     1     154.327 163.978 186.695  0.00  0.00    +0.002 C 
ATOM     11  C   UNL     1     153.688 164.928 187.799  0.00  0.00    +0.101 C 
ATOM     12  C   UNL     1     153.999 164.333 189.219  0.00  0.00    +0.136 C 
ATOM     13  C   UNL     1     153.846 165.295 190.381  0.00  0.00    -0.044 C 
ATOM     14  C   UNL     1     152.941 165.225 191.376  0.00  0.00    -0.046 C 
ATOM     15  C   UNL     1     152.717 166.265 192.443  0.00  0.00    +0.139 C 
ATOM     16  C   UNL     1     151.593 167.231 191.976  0.00  0.00    +0.171 C 
ATOM     17  O   UNL     1     151.839 168.435 191.819  0.00  0.00    -0.294 OA
ATOM     18  C   UNL     1     154.436 166.239 187.572  0.00  0.00    +0.224 C 
ATOM     19  O   UNL     1     154.247 167.309 188.130  0.00  0.00    -0.275 OA
ATOM     20  N   UNL     1     155.371 166.097 186.591  0.00  0.00    -0.311 N 
ATOM     21  C   UNL     1     155.474 164.784 186.037  0.00  0.00    +0.032 C 
ATOM     22  H   UNL     1     150.164 165.608 191.969  0.00  0.00    +0.038 HD
ATOM     23  H   UNL     1     148.727 166.748 190.115  0.00  0.00    +0.031 HD
ATOM     24  H   UNL     1     150.045 167.888 189.908  0.00  0.00    +0.031 HD
ATOM     25  H   UNL     1     150.106 164.836 189.394  0.00  0.00    +0.057 HD
ATOM     26  H   UNL     1     151.816 167.191 188.420  0.00  0.00    +0.057 HD
ATOM     27  H   UNL     1     151.639 164.190 187.737  0.00  0.00    +0.038 HD
ATOM     28  H   UNL     1     152.117 166.568 185.880  0.00  0.00    +0.065 HD
ATOM     29  H   UNL     1     152.949 164.302 182.992  0.00  0.00    +0.054 HD
ATOM     30  H   UNL     1     151.903 165.766 183.399  0.00  0.00    +0.054 HD
ATOM     31  H   UNL     1     152.552 162.852 186.215  0.00  0.00    +0.035 HD
ATOM     32  H   UNL     1     154.753 163.089 187.164  0.00  0.00    +0.034 HD
ATOM     33  H   UNL     1     155.038 163.991 189.261  0.00  0.00    +0.079 HD
ATOM     34  H   UNL     1     154.539 166.136 190.373  0.00  0.00    +0.061 HD
ATOM     35  H   UNL     1     152.245 164.390 191.390  0.00  0.00    +0.060 HD
ATOM     36  H   UNL     1     155.922 166.896 186.298  0.00  0.00    +0.149 HD
ATOM     37  H   UNL     1     155.301 164.914 184.963  0.00  0.00    +0.050 HD
ENDROOT
BRANCH   1  38
ATOM     38  C   UNL     1     149.209 167.401 192.628  0.00  0.00    -0.055 C 
ATOM     39  H   UNL     1     148.768 166.709 193.355  0.00  0.00    +0.024 HD
ATOM     40  H   UNL     1     148.394 167.844 192.048  0.00  0.00    +0.024 HD
ATOM     41  H   UNL     1     149.700 168.201 193.193  0.00  0.00    +0.024 HD
ENDBRANCH   1  38
BRANCH  15  42
ATOM     42  C   UNL     1     152.377 165.640 193.794  0.00  0.00    -0.025 C 
ATOM     43  H   UNL     1     151.293 165.511 193.896  0.00  0.00    +0.026 HD
ATOM     44  H   UNL     1     152.695 166.289 194.618  0.00  0.00    +0.026 HD
ATOM     45  H   UNL     1     152.843 164.659 193.933  0.00  0.00    +0.026 HD
ENDBRANCH  15  42
BRANCH   9  46
ATOM     46  C   UNL     1     153.928 162.478 184.671  0.00  0.00    -0.058 C 
ATOM     47  H   UNL     1     153.894 162.839 183.639  0.00  0.00    +0.024 HD
ATOM     48  H   UNL     1     153.420 161.508 184.703  0.00  0.00    +0.024 HD
ATOM     49  H   UNL     1     154.979 162.302 184.927  0.00  0.00    +0.024 HD
ENDBRANCH   9  46
BRANCH  21  50
ATOM     50  C   UNL     1     156.886 164.175 186.178  0.00  0.00    -0.009 C 
ATOM     51  H   UNL     1     157.027 163.426 185.389  0.00  0.00    +0.033 HD
ATOM     52  H   UNL     1     157.629 164.957 185.970  0.00  0.00    +0.033 HD
BRANCH  50  53
ATOM     53  C   UNL     1     157.239 163.570 187.516  0.00  0.00    -0.046 A 
ATOM     54  C   UNL     1     157.434 162.188 187.655  0.00  0.00    -0.059 A 
ATOM     55  C   UNL     1     157.775 161.636 188.891  0.00  0.00    -0.062 A 
ATOM     56  C   UNL     1     157.914 162.457 190.007  0.00  0.00    -0.062 A 
ATOM     57  C   UNL     1     157.704 163.828 189.888  0.00  0.00    -0.062 A 
ATOM     58  C   UNL     1     157.365 164.381 188.651  0.00  0.00    -0.059 A 
ATOM     59  H   UNL     1     157.327 161.526 186.800  0.00  0.00    +0.062 HD
ATOM     60  H   UNL     1     157.938 160.566 188.982  0.00  0.00    +0.062 HD
ATOM     61  H   UNL     1     158.186 162.029 190.968  0.00  0.00    +0.062 HD
ATOM     62  H   UNL     1     157.819 164.475 190.754  0.00  0.00    +0.062 HD
ATOM     63  H   UNL     1     157.224 165.458 188.583  0.00  0.00    +0.062 HD
ENDBRANCH  50  53
ENDBRANCH  21  50
BRANCH  15  64
ATOM     64  O   UNL     1     153.921 167.013 192.635  0.00  0.00    -0.377 OA
ATOM     65  H   UNL     1     153.700 167.937 192.397  0.00  0.00    +0.211 HD
ENDBRANCH  15  64
BRANCH   6  66
ATOM     66  O   UNL     1     150.439 165.386 185.824  0.00  0.00    -0.387 OA
ATOM     67  H   UNL     1     150.061 164.932 186.598  0.00  0.00    +0.210 HD
ENDBRANCH   6  66
BRANCH  12  68
ATOM     68  O   UNL     1     153.095 163.219 189.455  0.00  0.00    -0.456 OA
BRANCH  68  69
ATOM     69  C   UNL     1     153.514 161.955 189.202  0.00  0.00    +0.305 C 
ATOM     70  O   UNL     1     154.563 161.451 189.570  0.00  0.00    -0.251 OA
BRANCH  69  71
ATOM     71  C   UNL     1     152.479 161.234 188.393  0.00  0.00    +0.033 C 
ATOM     72  H   UNL     1     152.810 161.140 187.356  0.00  0.00    +0.034 HD
ATOM     73  H   UNL     1     151.531 161.773 188.445  0.00  0.00    +0.034 HD
ATOM     74  H   UNL     1     152.344 160.226 188.795  0.00  0.00    +0.034 HD
ENDBRANCH  69  71
ENDBRANCH  68  69
ENDBRANCH  12  68
TORSDOF 10
ENDMDL
MODEL 6
REMARK VINA RESULT:      -5.4      4.438      9.088
REMARK  Name = Cytochalasin D_conf2
REMARK  10 active torsions:
REMARK  status: ('A' for Active; 'I' for Inactive)
REMARK    1  A    between atoms: C_1  and  C_2
REMARK    2  A    between atoms: C_7  and  O_37
REMARK    3  A    between atoms: C_10  and  C_36
REMARK    4  A    between atoms: C_13  and  O_21
REMARK    5  A    between atoms: C_16  and  C_19
REMARK    6  A    between atoms: C_16  and  O_20
REMARK    7  A    between atoms: O_21  and  C_22
REMARK    8  A    between atoms: C_22  and  C_24
REMARK    9  A    between atoms: C_28  and  C_29
REMARK   10  A    between atoms: C_29  and  C_30
REMARK                            x       y       z     vdW  Elec       q    Type
REMARK                         _______ _______ _______ _____ _____    ______ ____
ROOT
ATOM      1  C   UNL     1     150.271 174.469 178.209  0.00  0.00    +0.021 C 
ATOM      2  C   UNL     1     151.312 174.847 177.143  0.00  0.00    -0.025 C 
ATOM      3  C   UNL     1     152.670 174.257 177.424  0.00  0.00    -0.087 C 
ATOM      4  C   UNL     1     153.729 174.978 177.831  0.00  0.00    -0.081 C 
ATOM      5  C   UNL     1     155.110 174.392 178.126  0.00  0.00    +0.025 C 
ATOM      6  C   UNL     1     156.133 174.962 177.101  0.00  0.00    +0.084 C 
ATOM      7  C   UNL     1     157.558 174.509 177.351  0.00  0.00    -0.045 C 
ATOM      8  C   UNL     1     158.569 175.020 176.624  0.00  0.00    -0.097 C 
ATOM      9  C   UNL     1     157.717 173.483 178.455  0.00  0.00    -0.015 C 
ATOM     10  C   UNL     1     157.119 174.043 179.772  0.00  0.00    +0.002 C 
ATOM     11  C   UNL     1     155.619 174.545 179.612  0.00  0.00    +0.101 C 
ATOM     12  C   UNL     1     154.717 173.781 180.646  0.00  0.00    +0.136 C 
ATOM     13  C   UNL     1     153.368 174.413 180.933  0.00  0.00    -0.044 C 
ATOM     14  C   UNL     1     152.157 173.905 180.635  0.00  0.00    -0.046 C 
ATOM     15  C   UNL     1     150.836 174.610 180.803  0.00  0.00    +0.139 C 
ATOM     16  C   UNL     1     150.468 175.315 179.468  0.00  0.00    +0.171 C 
ATOM     17  O   UNL     1     150.343 176.547 179.434  0.00  0.00    -0.294 OA
ATOM     18  C   UNL     1     155.732 176.026 179.964  0.00  0.00    +0.224 C 
ATOM     19  O   UNL     1     154.853 176.872 179.914  0.00  0.00    -0.275 OA
ATOM     20  N   UNL     1     157.009 176.340 180.324  0.00  0.00    -0.311 N 
ATOM     21  C   UNL     1     157.922 175.242 180.336  0.00  0.00    +0.032 C 
ATOM     22  H   UNL     1     150.362 173.406 178.458  0.00  0.00    +0.038 HD
ATOM     23  H   UNL     1     150.994 174.470 176.163  0.00  0.00    +0.031 HD
ATOM     24  H   UNL     1     151.383 175.937 177.043  0.00  0.00    +0.031 HD
ATOM     25  H   UNL     1     152.770 173.182 177.286  0.00  0.00    +0.057 HD
ATOM     26  H   UNL     1     153.613 176.053 177.964  0.00  0.00    +0.057 HD
ATOM     27  H   UNL     1     155.029 173.315 177.912  0.00  0.00    +0.038 HD
ATOM     28  H   UNL     1     156.099 176.059 177.098  0.00  0.00    +0.065 HD
ATOM     29  H   UNL     1     159.604 174.727 176.759  0.00  0.00    +0.054 HD
ATOM     30  H   UNL     1     158.371 175.746 175.839  0.00  0.00    +0.054 HD
ATOM     31  H   UNL     1     157.120 172.605 178.166  0.00  0.00    +0.035 HD
ATOM     32  H   UNL     1     157.167 173.224 180.492  0.00  0.00    +0.034 HD
ATOM     33  H   UNL     1     155.223 173.728 181.615  0.00  0.00    +0.079 HD
ATOM     34  H   UNL     1     153.414 175.392 181.408  0.00  0.00    +0.061 HD
ATOM     35  H   UNL     1     152.104 172.929 180.157  0.00  0.00    +0.060 HD
ATOM     36  H   UNL     1     157.250 177.298 180.547  0.00  0.00    +0.149 HD
ATOM     37  H   UNL     1     158.728 175.534 179.653  0.00  0.00    +0.050 HD
ENDROOT
BRANCH   1  38
ATOM     38  C   UNL     1     148.853 174.707 177.690  0.00  0.00    -0.055 C 
ATOM     39  H   UNL     1     148.216 175.131 178.475  0.00  0.00    +0.024 HD
ATOM     40  H   UNL     1     148.398 173.769 177.357  0.00  0.00    +0.024 HD
ATOM     41  H   UNL     1     148.845 175.407 176.847  0.00  0.00    +0.024 HD
ENDBRANCH   1  38
BRANCH  15  42
ATOM     42  C   UNL     1     149.727 173.658 181.244  0.00  0.00    -0.025 C 
ATOM     43  H   UNL     1     149.662 173.624 182.338  0.00  0.00    +0.026 HD
ATOM     44  H   UNL     1     149.933 172.634 180.910  0.00  0.00    +0.026 HD
ATOM     45  H   UNL     1     148.744 173.950 180.861  0.00  0.00    +0.026 HD
ENDBRANCH  15  42
BRANCH   9  46
ATOM     46  C   UNL     1     159.134 172.931 178.672  0.00  0.00    -0.058 C 
ATOM     47  H   UNL     1     159.307 172.595 179.698  0.00  0.00    +0.024 HD
ATOM     48  H   UNL     1     159.886 173.693 178.438  0.00  0.00    +0.024 HD
ATOM     49  H   UNL     1     159.319 172.079 178.007  0.00  0.00    +0.024 HD
ENDBRANCH   9  46
BRANCH  21  50
ATOM     50  C   UNL     1     158.582 175.016 181.713  0.00  0.00    -0.009 C 
ATOM     51  H   UNL     1     159.636 174.750 181.560  0.00  0.00    +0.033 HD
ATOM     52  H   UNL     1     158.601 175.971 182.255  0.00  0.00    +0.033 HD
BRANCH  50  53
ATOM     53  C   UNL     1     157.934 173.999 182.624  0.00  0.00    -0.046 A 
ATOM     54  C   UNL     1     156.794 174.323 183.372  0.00  0.00    -0.059 A 
ATOM     55  C   UNL     1     156.191 173.375 184.200  0.00  0.00    -0.062 A 
ATOM     56  C   UNL     1     156.728 172.095 184.301  0.00  0.00    -0.062 A 
ATOM     57  C   UNL     1     157.872 171.765 183.579  0.00  0.00    -0.062 A 
ATOM     58  C   UNL     1     158.474 172.713 182.748  0.00  0.00    -0.059 A 
ATOM     59  H   UNL     1     156.358 175.317 183.315  0.00  0.00    +0.062 HD
ATOM     60  H   UNL     1     155.299 173.634 184.764  0.00  0.00    +0.062 HD
ATOM     61  H   UNL     1     156.256 171.354 184.940  0.00  0.00    +0.062 HD
ATOM     62  H   UNL     1     158.291 170.765 183.647  0.00  0.00    +0.062 HD
ATOM     63  H   UNL     1     159.357 172.423 182.182  0.00  0.00    +0.062 HD
ENDBRANCH  50  53
ENDBRANCH  21  50
BRANCH  15  64
ATOM     64  O   UNL     1     150.955 175.598 181.831  0.00  0.00    -0.377 OA
ATOM     65  H   UNL     1     150.264 176.265 181.638  0.00  0.00    +0.211 HD
ENDBRANCH  15  64
BRANCH   6  66
ATOM     66  O   UNL     1     155.795 174.508 175.787  0.00  0.00    -0.387 OA
ATOM     67  H   UNL     1     156.281 175.074 175.162  0.00  0.00    +0.210 HD
ENDBRANCH   6  66
BRANCH  12  68
ATOM     68  O   UNL     1     154.470 172.442 180.135  0.00  0.00    -0.456 OA
BRANCH  68  69
ATOM     69  C   UNL     1     154.853 171.368 180.867  0.00  0.00    +0.305 C 
ATOM     70  O   UNL     1     154.349 170.985 181.911  0.00  0.00    -0.251 OA
BRANCH  69  71
ATOM     71  C   UNL     1     156.008 170.688 180.197  0.00  0.00    +0.033 C 
ATOM     72  H   UNL     1     156.026 169.628 180.462  0.00  0.00    +0.034 HD
ATOM     73  H   UNL     1     156.940 171.172 180.492  0.00  0.00    +0.034 HD
ATOM     74  H   UNL     1     155.889 170.761 179.112  0.00  0.00    +0.034 HD
ENDBRANCH  69  71
ENDBRANCH  68  69
ENDBRANCH  12  68
TORSDOF 10
ENDMDL
MODEL 7
REMARK VINA RESULT:      -5.4     27.819     30.989
REMARK  Name = Cytochalasin D_conf2
REMARK  10 active torsions:
REMARK  status: ('A' for Active; 'I' for Inactive)
REMARK    1  A    between atoms: C_1  and  C_2
REMARK    2  A    between atoms: C_7  and  O_37
REMARK    3  A    between atoms: C_10  and  C_36
REMARK    4  A    between atoms: C_13  and  O_21
REMARK    5  A    between atoms: C_16  and  C_19
REMARK    6  A    between atoms: C_16  and  O_20
REMARK    7  A    between atoms: O_21  and  C_22
REMARK    8  A    between atoms: C_22  and  C_24
REMARK    9  A    between atoms: C_28  and  C_29
REMARK   10  A    between atoms: C_29  and  C_30
REMARK                            x       y       z     vdW  Elec       q    Type
REMARK                         _______ _______ _______ _____ _____    ______ ____
ROOT
ATOM      1  C   UNL     1     132.739 173.403 197.606  0.00  0.00    +0.021 C 
ATOM      2  C   UNL     1     132.024 173.634 198.948  0.00  0.00    -0.025 C 
ATOM      3  C   UNL     1     132.665 174.726 199.765  0.00  0.00    -0.087 C 
ATOM      4  C   UNL     1     133.376 174.504 200.884  0.00  0.00    -0.081 C 
ATOM      5  C   UNL     1     134.037 175.601 201.719  0.00  0.00    +0.025 C 
ATOM      6  C   UNL     1     133.362 175.648 203.121  0.00  0.00    +0.084 C 
ATOM      7  C   UNL     1     133.995 176.651 204.064  0.00  0.00    -0.045 C 
ATOM      8  C   UNL     1     133.601 176.714 205.350  0.00  0.00    -0.097 C 
ATOM      9  C   UNL     1     135.072 177.519 203.445  0.00  0.00    -0.015 C 
ATOM     10  C   UNL     1     136.177 176.618 202.837  0.00  0.00    +0.002 C 
ATOM     11  C   UNL     1     135.610 175.530 201.826  0.00  0.00    +0.101 C 
ATOM     12  C   UNL     1     136.323 175.708 200.439  0.00  0.00    +0.136 C 
ATOM     13  C   UNL     1     136.230 174.522 199.496  0.00  0.00    -0.044 C 
ATOM     14  C   UNL     1     135.586 174.477 198.314  0.00  0.00    -0.046 C 
ATOM     15  C   UNL     1     135.389 173.251 197.461  0.00  0.00    +0.139 C 
ATOM     16  C   UNL     1     134.023 172.601 197.820  0.00  0.00    +0.171 C 
ATOM     17  O   UNL     1     133.988 171.450 198.276  0.00  0.00    -0.294 OA
ATOM     18  C   UNL     1     136.019 174.220 202.495  0.00  0.00    +0.224 C 
ATOM     19  O   UNL     1     135.743 173.085 202.139  0.00  0.00    -0.275 OA
ATOM     20  N   UNL     1     136.736 174.462 203.629  0.00  0.00    -0.311 N 
ATOM     21  C   UNL     1     136.979 175.841 203.910  0.00  0.00    +0.032 C 
ATOM     22  H   UNL     1     132.975 174.365 197.139  0.00  0.00    +0.038 HD
ATOM     23  H   UNL     1     130.985 173.935 198.768  0.00  0.00    +0.031 HD
ATOM     24  H   UNL     1     131.978 172.702 199.526  0.00  0.00    +0.031 HD
ATOM     25  H   UNL     1     132.533 175.744 199.404  0.00  0.00    +0.057 HD
ATOM     26  H   UNL     1     133.499 173.479 201.233  0.00  0.00    +0.057 HD
ATOM     27  H   UNL     1     133.781 176.549 201.223  0.00  0.00    +0.038 HD
ATOM     28  H   UNL     1     133.378 174.654 203.586  0.00  0.00    +0.065 HD
ATOM     29  H   UNL     1     134.018 177.414 206.064  0.00  0.00    +0.054 HD
ATOM     30  H   UNL     1     132.811 176.062 205.717  0.00  0.00    +0.054 HD
ATOM     31  H   UNL     1     134.600 178.072 202.618  0.00  0.00    +0.035 HD
ATOM     32  H   UNL     1     136.860 177.295 202.317  0.00  0.00    +0.034 HD
ATOM     33  H   UNL     1     137.394 175.874 200.588  0.00  0.00    +0.079 HD
ATOM     34  H   UNL     1     136.725 173.618 199.849  0.00  0.00    +0.061 HD
ATOM     35  H   UNL     1     135.087 175.375 197.957  0.00  0.00    +0.060 HD
ATOM     36  H   UNL     1     137.045 173.688 204.206  0.00  0.00    +0.149 HD
ATOM     37  H   UNL     1     136.562 176.005 204.910  0.00  0.00    +0.050 HD
ENDROOT
BRANCH   1  38
ATOM     38  C   UNL     1     131.844 172.623 196.643  0.00  0.00    -0.055 C 
ATOM     39  H   UNL     1     132.153 172.787 195.604  0.00  0.00    +0.024 HD
ATOM     40  H   UNL     1     130.801 172.941 196.738  0.00  0.00    +0.024 HD
ATOM     41  H   UNL     1     131.890 171.545 196.833  0.00  0.00    +0.024 HD
ENDBRANCH   1  38
BRANCH  15  42
ATOM     42  C   UNL     1     135.470 173.568 195.970  0.00  0.00    -0.025 C 
ATOM     43  H   UNL     1     134.847 174.437 195.727  0.00  0.00    +0.026 HD
ATOM     44  H   UNL     1     135.091 172.732 195.369  0.00  0.00    +0.026 HD
ATOM     45  H   UNL     1     136.491 173.789 195.642  0.00  0.00    +0.026 HD
ENDBRANCH  15  42
BRANCH   9  46
ATOM     46  C   UNL     1     135.668 178.610 204.347  0.00  0.00    -0.058 C 
ATOM     47  H   UNL     1     135.778 179.571 203.835  0.00  0.00    +0.024 HD
ATOM     48  H   UNL     1     136.657 178.311 204.714  0.00  0.00    +0.024 HD
ATOM     49  H   UNL     1     135.032 178.772 205.225  0.00  0.00    +0.024 HD
ENDBRANCH   9  46
BRANCH  21  50
ATOM     50  C   UNL     1     138.481 176.186 204.005  0.00  0.00    -0.009 C 
ATOM     51  H   UNL     1     138.802 176.079 205.049  0.00  0.00    +0.033 HD
ATOM     52  H   UNL     1     139.051 175.430 203.448  0.00  0.00    +0.033 HD
BRANCH  50  53
ATOM     53  C   UNL     1     138.906 177.539 203.484  0.00  0.00    -0.046 A 
ATOM     54  C   UNL     1     139.074 177.763 202.110  0.00  0.00    -0.059 A 
ATOM     55  C   UNL     1     139.452 179.020 201.634  0.00  0.00    -0.062 A 
ATOM     56  C   UNL     1     139.680 180.064 202.525  0.00  0.00    -0.062 A 
ATOM     57  C   UNL     1     139.536 179.850 203.893  0.00  0.00    -0.062 A 
ATOM     58  C   UNL     1     139.155 178.594 204.371  0.00  0.00    -0.059 A 
ATOM     59  H   UNL     1     138.907 176.963 201.393  0.00  0.00    +0.062 HD
ATOM     60  H   UNL     1     139.566 179.184 200.565  0.00  0.00    +0.062 HD
ATOM     61  H   UNL     1     139.968 181.044 202.155  0.00  0.00    +0.062 HD
ATOM     62  H   UNL     1     139.704 180.664 204.594  0.00  0.00    +0.062 HD
ATOM     63  H   UNL     1     139.033 178.460 205.444  0.00  0.00    +0.062 HD
ENDBRANCH  50  53
ENDBRANCH  21  50
BRANCH  15  64
ATOM     64  O   UNL     1     136.434 172.312 197.733  0.00  0.00    -0.377 OA
ATOM     65  H   UNL     1     136.081 171.438 197.468  0.00  0.00    +0.211 HD
ENDBRANCH  15  64
BRANCH   6  66
ATOM     66  O   UNL     1     131.994 176.044 202.978  0.00  0.00    -0.387 OA
ATOM     67  H   UNL     1     131.483 175.519 203.618  0.00  0.00    +0.210 HD
ENDBRANCH   6  66
BRANCH  12  68
ATOM     68  O   UNL     1     135.728 176.848 199.762  0.00  0.00    -0.456 OA
BRANCH  68  69
ATOM     69  C   UNL     1     136.505 177.908 199.431  0.00  0.00    +0.305 C 
ATOM     70  O   UNL     1     137.482 177.891 198.701  0.00  0.00    -0.251 OA
BRANCH  69  71
ATOM     71  C   UNL     1     135.980 179.144 200.097  0.00  0.00    +0.033 C 
ATOM     72  H   UNL     1     135.158 179.565 199.514  0.00  0.00    +0.034 HD
ATOM     73  H   UNL     1     136.786 179.873 200.205  0.00  0.00    +0.034 HD
ATOM     74  H   UNL     1     135.593 178.884 201.086  0.00  0.00    +0.034 HD
ENDBRANCH  69  71
ENDBRANCH  68  69
ENDBRANCH  12  68
TORSDOF 10
ENDMDL
MODEL 8
REMARK VINA RESULT:      -5.4      3.538      7.762
REMARK  Name = Cytochalasin D_conf2
REMARK  10 active torsions:
REMARK  status: ('A' for Active; 'I' for Inactive)
REMARK    1  A    between atoms: C_1  and  C_2
REMARK    2  A    between atoms: C_7  and  O_37
REMARK    3  A    between atoms: C_10  and  C_36
REMARK    4  A    between atoms: C_13  and  O_21
REMARK    5  A    between atoms: C_16  and  C_19
REMARK    6  A    between atoms: C_16  and  O_20
REMARK    7  A    between atoms: O_21  and  C_22
REMARK    8  A    between atoms: C_22  and  C_24
REMARK    9  A    between atoms: C_28  and  C_29
REMARK   10  A    between atoms: C_29  and  C_30
REMARK                            x       y       z     vdW  Elec       q    Type
REMARK                         _______ _______ _______ _____ _____    ______ ____
ROOT
ATOM      1  C   UNL     1     152.988 177.490 179.454  0.00  0.00    +0.021 C 
ATOM      2  C   UNL     1     152.189 176.192 179.246  0.00  0.00    -0.025 C 
ATOM      3  C   UNL     1     152.736 175.040 180.048  0.00  0.00    -0.087 C 
ATOM      4  C   UNL     1     153.391 173.997 179.510  0.00  0.00    -0.081 C 
ATOM      5  C   UNL     1     153.956 172.825 180.313  0.00  0.00    +0.025 C 
ATOM      6  C   UNL     1     153.202 171.525 179.912  0.00  0.00    +0.084 C 
ATOM      7  C   UNL     1     153.738 170.280 180.591  0.00  0.00    -0.045 C 
ATOM      8  C   UNL     1     153.269 169.066 180.248  0.00  0.00    -0.097 C 
ATOM      9  C   UNL     1     154.810 170.532 181.632  0.00  0.00    -0.015 C 
ATOM     10  C   UNL     1     155.985 171.310 180.987  0.00  0.00    +0.002 C 
ATOM     11  C   UNL     1     155.522 172.640 180.248  0.00  0.00    +0.101 C 
ATOM     12  C   UNL     1     156.305 173.856 180.860  0.00  0.00    +0.136 C 
ATOM     13  C   UNL     1     156.316 175.119 180.019  0.00  0.00    -0.044 C 
ATOM     14  C   UNL     1     155.742 176.299 180.323  0.00  0.00    -0.046 C 
ATOM     15  C   UNL     1     155.646 177.497 179.414  0.00  0.00    +0.139 C 
ATOM     16  C   UNL     1     154.291 177.445 178.654  0.00  0.00    +0.171 C 
ATOM     17  O   UNL     1     154.279 177.364 177.419  0.00  0.00    -0.294 OA
ATOM     18  C   UNL     1     155.948 172.376 178.806  0.00  0.00    +0.224 C 
ATOM     19  O   UNL     1     155.741 173.079 177.829  0.00  0.00    -0.275 OA
ATOM     20  N   UNL     1     156.589 171.177 178.705  0.00  0.00    -0.311 N 
ATOM     21  C   UNL     1     156.757 170.473 179.936  0.00  0.00    +0.032 C 
ATOM     22  H   UNL     1     153.209 177.624 180.518  0.00  0.00    +0.038 HD
ATOM     23  H   UNL     1     151.150 176.341 179.563  0.00  0.00    +0.031 HD
ATOM     24  H   UNL     1     152.149 175.930 178.181  0.00  0.00    +0.031 HD
ATOM     25  H   UNL     1     152.581 175.082 181.125  0.00  0.00    +0.057 HD
ATOM     26  H   UNL     1     153.537 173.970 178.430  0.00  0.00    +0.057 HD
ATOM     27  H   UNL     1     153.689 173.025 181.361  0.00  0.00    +0.038 HD
ATOM     28  H   UNL     1     153.234 171.384 178.824  0.00  0.00    +0.065 HD
ATOM     29  H   UNL     1     153.615 168.146 180.705  0.00  0.00    +0.054 HD
ATOM     30  H   UNL     1     152.488 168.968 179.497  0.00  0.00    +0.054 HD
ATOM     31  H   UNL     1     154.363 171.180 182.401  0.00  0.00    +0.035 HD
ATOM     32  H   UNL     1     156.667 171.552 181.806  0.00  0.00    +0.034 HD
ATOM     33  H   UNL     1     157.358 173.592 180.997  0.00  0.00    +0.079 HD
ATOM     34  H   UNL     1     156.828 175.027 179.062  0.00  0.00    +0.061 HD
ATOM     35  H   UNL     1     155.227 176.398 181.276  0.00  0.00    +0.060 HD
ATOM     36  H   UNL     1     156.897 170.844 177.799  0.00  0.00    +0.149 HD
ATOM     37  H   UNL     1     156.277 169.502 179.776  0.00  0.00    +0.050 HD
ENDROOT
BRANCH   1  38
ATOM     38  C   UNL     1     152.182 178.702 178.987  0.00  0.00    -0.055 C 
ATOM     39  H   UNL     1     152.501 179.021 177.988  0.00  0.00    +0.024 HD
ATOM     40  H   UNL     1     152.320 179.546 179.670  0.00  0.00    +0.024 HD
ATOM     41  H   UNL     1     151.111 178.478 178.934  0.00  0.00    +0.024 HD
ENDBRANCH   1  38
BRANCH  15  42
ATOM     42  C   UNL     1     155.798 178.811 180.175  0.00  0.00    -0.025 C 
ATOM     43  H   UNL     1     154.818 179.193 180.484  0.00  0.00    +0.026 HD
ATOM     44  H   UNL     1     156.249 179.583 179.540  0.00  0.00    +0.026 HD
ATOM     45  H   UNL     1     156.413 178.707 181.075  0.00  0.00    +0.026 HD
ENDBRANCH  15  42
BRANCH   9  46
ATOM     46  C   UNL     1     155.308 169.302 182.407  0.00  0.00    -0.058 C 
ATOM     47  H   UNL     1     154.492 168.678 182.782  0.00  0.00    +0.024 HD
ATOM     48  H   UNL     1     155.917 169.607 183.265  0.00  0.00    +0.024 HD
ATOM     49  H   UNL     1     155.939 168.676 181.767  0.00  0.00    +0.024 HD
ENDBRANCH   9  46
BRANCH  21  50
ATOM     50  C   UNL     1     158.235 170.178 180.270  0.00  0.00    -0.009 C 
ATOM     51  H   UNL     1     158.332 169.117 180.530  0.00  0.00    +0.033 HD
ATOM     52  H   UNL     1     158.834 170.308 179.358  0.00  0.00    +0.033 HD
BRANCH  50  53
ATOM     53  C   UNL     1     158.874 171.021 181.348  0.00  0.00    -0.046 A 
ATOM     54  C   UNL     1     158.794 170.650 182.698  0.00  0.00    -0.059 A 
ATOM     55  C   UNL     1     159.400 171.425 183.688  0.00  0.00    -0.062 A 
ATOM     56  C   UNL     1     160.083 172.588 183.343  0.00  0.00    -0.062 A 
ATOM     57  C   UNL     1     160.154 172.979 182.009  0.00  0.00    -0.062 A 
ATOM     58  C   UNL     1     159.550 172.203 181.017  0.00  0.00    -0.059 A 
ATOM     59  H   UNL     1     158.263 169.749 182.994  0.00  0.00    +0.062 HD
ATOM     60  H   UNL     1     159.343 171.119 184.729  0.00  0.00    +0.062 HD
ATOM     61  H   UNL     1     160.561 173.189 184.112  0.00  0.00    +0.062 HD
ATOM     62  H   UNL     1     160.693 173.881 181.732  0.00  0.00    +0.062 HD
ATOM     63  H   UNL     1     159.636 172.523 179.981  0.00  0.00    +0.062 HD
ENDBRANCH  50  53
ENDBRANCH  21  50
BRANCH  15  64
ATOM     64  O   UNL     1     156.713 177.454 178.462  0.00  0.00    -0.377 OA
ATOM     65  H   UNL     1     157.536 177.396 178.989  0.00  0.00    +0.211 HD
ENDBRANCH  15  64
BRANCH   6  66
ATOM     66  O   UNL     1     151.829 171.631 180.301  0.00  0.00    -0.387 OA
ATOM     67  H   UNL     1     151.724 171.094 181.106  0.00  0.00    +0.210 HD
ENDBRANCH   6  66
BRANCH  12  68
ATOM     68  O   UNL     1     155.701 174.192 182.139  0.00  0.00    -0.456 OA
BRANCH  68  69
ATOM     69  C   UNL     1     156.429 174.063 183.275  0.00  0.00    +0.305 C 
ATOM     70  O   UNL     1     157.497 174.602 183.517  0.00  0.00    -0.251 OA
BRANCH  69  71
ATOM     71  C   UNL     1     155.721 173.147 184.225  0.00  0.00    +0.033 C 
ATOM     72  H   UNL     1     156.328 172.259 184.417  0.00  0.00    +0.034 HD
ATOM     73  H   UNL     1     154.751 172.865 183.811  0.00  0.00    +0.034 HD
ATOM     74  H   UNL     1     155.570 173.662 185.179  0.00  0.00    +0.034 HD
ENDBRANCH  69  71
ENDBRANCH  68  69
ENDBRANCH  12  68
TORSDOF 10
ENDMDL
MODEL 9
REMARK VINA RESULT:      -5.4      2.273      3.276
REMARK  Name = Cytochalasin D_conf2
REMARK  10 active torsions:
REMARK  status: ('A' for Active; 'I' for Inactive)
REMARK    1  A    between atoms: C_1  and  C_2
REMARK    2  A    between atoms: C_7  and  O_37
REMARK    3  A    between atoms: C_10  and  C_36
REMARK    4  A    between atoms: C_13  and  O_21
REMARK    5  A    between atoms: C_16  and  C_19
REMARK    6  A    between atoms: C_16  and  O_20
REMARK    7  A    between atoms: O_21  and  C_22
REMARK    8  A    between atoms: C_22  and  C_24
REMARK    9  A    between atoms: C_28  and  C_29
REMARK   10  A    between atoms: C_29  and  C_30
REMARK                            x       y       z     vdW  Elec       q    Type
REMARK                         _______ _______ _______ _____ _____    ______ ____
ROOT
ATOM      1  C   UNL     1     162.085 170.534 177.598  0.00  0.00    +0.021 C 
ATOM      2  C   UNL     1     162.417 169.887 178.953  0.00  0.00    -0.025 C 
ATOM      3  C   UNL     1     161.212 169.770 179.850  0.00  0.00    -0.087 C 
ATOM      4  C   UNL     1     161.021 170.520 180.949  0.00  0.00    -0.081 C 
ATOM      5  C   UNL     1     159.800 170.416 181.864  0.00  0.00    +0.025 C 
ATOM      6  C   UNL     1     160.257 169.915 183.265  0.00  0.00    +0.084 C 
ATOM      7  C   UNL     1     159.134 169.852 184.281  0.00  0.00    -0.045 C 
ATOM      8  C   UNL     1     159.400 169.559 185.568  0.00  0.00    -0.097 C 
ATOM      9  C   UNL     1     157.755 170.151 183.728  0.00  0.00    -0.015 C 
ATOM     10  C   UNL     1     157.759 171.548 183.055  0.00  0.00    +0.002 C 
ATOM     11  C   UNL     1     158.906 171.712 181.966  0.00  0.00    +0.101 C 
ATOM     12  C   UNL     1     158.249 172.108 180.596  0.00  0.00    +0.136 C 
ATOM     13  C   UNL     1     159.187 172.711 179.568  0.00  0.00    -0.044 C 
ATOM     14  C   UNL     1     159.545 172.173 178.385  0.00  0.00    -0.046 C 
ATOM     15  C   UNL     1     160.585 172.723 177.443  0.00  0.00    +0.139 C 
ATOM     16  C   UNL     1     161.951 172.050 177.752  0.00  0.00    +0.171 C 
ATOM     17  O   UNL     1     162.910 172.740 178.121  0.00  0.00    -0.294 OA
ATOM     18  C   UNL     1     159.733 172.862 182.536  0.00  0.00    +0.224 C 
ATOM     19  O   UNL     1     160.778 173.316 182.096  0.00  0.00    -0.275 OA
ATOM     20  N   UNL     1     159.173 173.336 183.684  0.00  0.00    -0.311 N 
ATOM     21  C   UNL     1     157.950 172.704 184.068  0.00  0.00    +0.032 C 
ATOM     22  H   UNL     1     161.152 170.116 177.204  0.00  0.00    +0.038 HD
ATOM     23  H   UNL     1     162.801 168.872 178.796  0.00  0.00    +0.031 HD
ATOM     24  H   UNL     1     163.217 170.442 179.460  0.00  0.00    +0.031 HD
ATOM     25  H   UNL     1     160.465 169.031 179.566  0.00  0.00    +0.057 HD
ATOM     26  H   UNL     1     161.778 171.255 181.221  0.00  0.00    +0.057 HD
ATOM     27  H   UNL     1     159.177 169.615 181.440  0.00  0.00    +0.038 HD
ATOM     28  H   UNL     1     161.061 170.553 183.655  0.00  0.00    +0.065 HD
ATOM     29  H   UNL     1     158.635 169.497 186.333  0.00  0.00    +0.054 HD
ATOM     30  H   UNL     1     160.418 169.345 185.885  0.00  0.00    +0.054 HD
ATOM     31  H   UNL     1     157.555 169.405 182.945  0.00  0.00    +0.035 HD
ATOM     32  H   UNL     1     156.778 171.656 182.588  0.00  0.00    +0.034 HD
ATOM     33  H   UNL     1     157.474 172.864 180.758  0.00  0.00    +0.079 HD
ATOM     34  H   UNL     1     159.623 173.668 179.852  0.00  0.00    +0.061 HD
ATOM     35  H   UNL     1     159.117 171.217 178.096  0.00  0.00    +0.060 HD
ATOM     36  H   UNL     1     159.631 174.076 184.202  0.00  0.00    +0.149 HD
ATOM     37  H   UNL     1     158.134 172.319 185.077  0.00  0.00    +0.050 HD
ENDROOT
BRANCH   1  38
ATOM     38  C   UNL     1     163.189 170.253 176.579  0.00  0.00    -0.055 C 
ATOM     39  H   UNL     1     164.156 170.626 176.938  0.00  0.00    +0.024 HD
ATOM     40  H   UNL     1     162.972 170.743 175.625  0.00  0.00    +0.024 HD
ATOM     41  H   UNL     1     163.301 169.179 176.392  0.00  0.00    +0.024 HD
ENDBRANCH   1  38
BRANCH  15  42
ATOM     42  C   UNL     1     160.195 172.527 175.980  0.00  0.00    -0.025 C 
ATOM     43  H   UNL     1     159.737 171.542 175.832  0.00  0.00    +0.026 HD
ATOM     44  H   UNL     1     161.079 172.563 175.330  0.00  0.00    +0.026 HD
ATOM     45  H   UNL     1     159.483 173.281 175.629  0.00  0.00    +0.026 HD
ENDBRANCH  15  42
BRANCH   9  46
ATOM     46  C   UNL     1     156.582 170.004 184.710  0.00  0.00    -0.058 C 
ATOM     47  H   UNL     1     156.215 170.965 185.080  0.00  0.00    +0.024 HD
ATOM     48  H   UNL     1     156.877 169.402 185.577  0.00  0.00    +0.024 HD
ATOM     49  H   UNL     1     155.743 169.489 184.228  0.00  0.00    +0.024 HD
ENDBRANCH   9  46
BRANCH  21  50
ATOM     50  C   UNL     1     156.769 173.691 184.188  0.00  0.00    -0.009 C 
ATOM     51  H   UNL     1     156.187 173.436 185.083  0.00  0.00    +0.033 HD
ATOM     52  H   UNL     1     157.168 174.696 184.380  0.00  0.00    +0.033 HD
BRANCH  50  53
ATOM     53  C   UNL     1     155.843 173.797 183.000  0.00  0.00    -0.046 A 
ATOM     54  C   UNL     1     156.126 174.669 181.939  0.00  0.00    -0.059 A 
ATOM     55  C   UNL     1     155.274 174.752 180.836  0.00  0.00    -0.062 A 
ATOM     56  C   UNL     1     154.121 173.973 180.786  0.00  0.00    -0.062 A 
ATOM     57  C   UNL     1     153.818 173.118 181.841  0.00  0.00    -0.062 A 
ATOM     58  C   UNL     1     154.671 173.032 182.943  0.00  0.00    -0.059 A 
ATOM     59  H   UNL     1     157.017 175.292 181.957  0.00  0.00    +0.062 HD
ATOM     60  H   UNL     1     155.513 175.422 180.014  0.00  0.00    +0.062 HD
ATOM     61  H   UNL     1     153.461 174.032 179.925  0.00  0.00    +0.062 HD
ATOM     62  H   UNL     1     152.923 172.501 181.803  0.00  0.00    +0.062 HD
ATOM     63  H   UNL     1     154.418 172.342 183.746  0.00  0.00    +0.062 HD
ENDBRANCH  50  53
ENDBRANCH  21  50
BRANCH  15  64
ATOM     64  O   UNL     1     160.707 174.134 177.644  0.00  0.00    -0.377 OA
ATOM     65  H   UNL     1     160.028 174.366 178.311  0.00  0.00    +0.211 HD
ENDBRANCH  15  64
BRANCH   6  66
ATOM     66  O   UNL     1     160.767 168.583 183.152  0.00  0.00    -0.387 OA
ATOM     67  H   UNL     1     161.711 168.624 183.388  0.00  0.00    +0.210 HD
ENDBRANCH   6  66
BRANCH  12  68
ATOM     68  O   UNL     1     157.668 170.913 180.006  0.00  0.00    -0.456 OA
BRANCH  68  69
ATOM     69  C   UNL     1     156.351 170.899 179.686  0.00  0.00    +0.305 C 
ATOM     70  O   UNL     1     155.819 171.515 178.777  0.00  0.00    -0.251 OA
BRANCH  69  71
ATOM     71  C   UNL     1     155.616 169.989 180.622  0.00  0.00    +0.033 C 
ATOM     72  H   UNL     1     154.814 170.535 181.126  0.00  0.00    +0.034 HD
ATOM     73  H   UNL     1     156.312 169.572 181.352  0.00  0.00    +0.034 HD
ATOM     74  H   UNL     1     155.159 169.175 180.051  0.00  0.00    +0.034 HD
ENDBRANCH  69  71
ENDBRANCH  68  69
ENDBRANCH  12  68
TORSDOF 10
ENDMDL
MODEL 10
REMARK VINA RESULT:      -5.4      3.037      7.753
REMARK  Name = Cytochalasin D_conf2
REMARK  10 active torsions:
REMARK  status: ('A' for Active; 'I' for Inactive)
REMARK    1  A    between atoms: C_1  and  C_2
REMARK    2  A    between atoms: C_7  and  O_37
REMARK    3  A    between atoms: C_10  and  C_36
REMARK    4  A    between atoms: C_13  and  O_21
REMARK    5  A    between atoms: C_16  and  C_19
REMARK    6  A    between atoms: C_16  and  O_20
REMARK    7  A    between atoms: O_21  and  C_22
REMARK    8  A    between atoms: C_22  and  C_24
REMARK    9  A    between atoms: C_28  and  C_29
REMARK   10  A    between atoms: C_29  and  C_30
REMARK                            x       y       z     vdW  Elec       q    Type
REMARK                         _______ _______ _______ _____ _____    ______ ____
ROOT
ATOM      1  C   UNL     1     153.355 175.543 179.077  0.00  0.00    +0.021 C 
ATOM      2  C   UNL     1     154.623 176.133 179.716  0.00  0.00    -0.025 C 
ATOM      3  C   UNL     1     155.653 175.082 180.040  0.00  0.00    -0.087 C 
ATOM      4  C   UNL     1     155.950 174.686 181.289  0.00  0.00    -0.081 C 
ATOM      5  C   UNL     1     156.988 173.617 181.632  0.00  0.00    +0.025 C 
ATOM      6  C   UNL     1     158.154 174.275 182.425  0.00  0.00    +0.084 C 
ATOM      7  C   UNL     1     159.205 173.288 182.889  0.00  0.00    -0.045 C 
ATOM      8  C   UNL     1     160.206 173.691 183.693  0.00  0.00    -0.097 C 
ATOM      9  C   UNL     1     159.013 171.870 182.389  0.00  0.00    -0.015 C 
ATOM     10  C   UNL     1     157.610 171.359 182.807  0.00  0.00    +0.002 C 
ATOM     11  C   UNL     1     156.434 172.331 182.360  0.00  0.00    +0.101 C 
ATOM     12  C   UNL     1     155.417 171.523 181.479  0.00  0.00    +0.136 C 
ATOM     13  C   UNL     1     154.044 172.150 181.319  0.00  0.00    -0.044 C 
ATOM     14  C   UNL     1     153.499 172.624 180.182  0.00  0.00    -0.046 C 
ATOM     15  C   UNL     1     152.194 173.368 180.071  0.00  0.00    +0.139 C 
ATOM     16  C   UNL     1     152.475 174.894 180.147  0.00  0.00    +0.171 C 
ATOM     17  O   UNL     1     151.991 175.566 181.068  0.00  0.00    -0.294 OA
ATOM     18  C   UNL     1     155.814 172.727 183.699  0.00  0.00    +0.224 C 
ATOM     19  O   UNL     1     154.914 173.529 183.893  0.00  0.00    -0.275 OA
ATOM     20  N   UNL     1     156.436 172.084 184.727  0.00  0.00    -0.311 N 
ATOM     21  C   UNL     1     157.468 171.175 184.338  0.00  0.00    +0.032 C 
ATOM     22  H   UNL     1     153.630 174.799 178.321  0.00  0.00    +0.038 HD
ATOM     23  H   UNL     1     155.093 176.841 179.021  0.00  0.00    +0.031 HD
ATOM     24  H   UNL     1     154.370 176.710 180.615  0.00  0.00    +0.031 HD
ATOM     25  H   UNL     1     156.167 174.630 179.194  0.00  0.00    +0.057 HD
ATOM     26  H   UNL     1     155.427 175.150 182.126  0.00  0.00    +0.057 HD
ATOM     27  H   UNL     1     157.414 173.295 180.670  0.00  0.00    +0.038 HD
ATOM     28  H   UNL     1     157.764 174.822 183.293  0.00  0.00    +0.065 HD
ATOM     29  H   UNL     1     160.985 173.027 184.049  0.00  0.00    +0.054 HD
ATOM     30  H   UNL     1     160.282 174.732 184.000  0.00  0.00    +0.054 HD
ATOM     31  H   UNL     1     159.039 171.911 181.290  0.00  0.00    +0.035 HD
ATOM     32  H   UNL     1     157.494 170.383 182.328  0.00  0.00    +0.034 HD
ATOM     33  H   UNL     1     155.235 170.540 181.925  0.00  0.00    +0.079 HD
ATOM     34  H   UNL     1     153.470 172.234 182.241  0.00  0.00    +0.061 HD
ATOM     35  H   UNL     1     154.068 172.546 179.259  0.00  0.00    +0.060 HD
ATOM     36  H   UNL     1     156.161 172.276 185.683  0.00  0.00    +0.149 HD
ATOM     37  H   UNL     1     158.365 171.522 184.862  0.00  0.00    +0.050 HD
ENDROOT
BRANCH   1  38
ATOM     38  C   UNL     1     152.539 176.634 178.384  0.00  0.00    -0.055 C 
ATOM     39  H   UNL     1     152.188 176.294 177.403  0.00  0.00    +0.024 HD
ATOM     40  H   UNL     1     153.142 177.534 178.233  0.00  0.00    +0.024 HD
ATOM     41  H   UNL     1     151.655 176.910 178.971  0.00  0.00    +0.024 HD
ENDBRANCH   1  38
BRANCH  15  42
ATOM     42  C   UNL     1     151.436 173.013 178.794  0.00  0.00    -0.025 C 
ATOM     43  H   UNL     1     151.377 173.881 178.128  0.00  0.00    +0.026 HD
ATOM     44  H   UNL     1     150.404 172.718 179.018  0.00  0.00    +0.026 HD
ATOM     45  H   UNL     1     151.910 172.198 178.237  0.00  0.00    +0.026 HD
ENDBRANCH  15  42
BRANCH   9  46
ATOM     46  C   UNL     1     160.112 170.862 182.761  0.00  0.00    -0.058 C 
ATOM     47  H   UNL     1     161.113 171.206 182.485  0.00  0.00    +0.024 HD
ATOM     48  H   UNL     1     159.939 169.901 182.266  0.00  0.00    +0.024 HD
ATOM     49  H   UNL     1     160.110 170.676 183.841  0.00  0.00    +0.024 HD
ENDBRANCH   9  46
BRANCH  21  50
ATOM     50  C   UNL     1     157.216 169.729 184.818  0.00  0.00    -0.009 C 
ATOM     51  H   UNL     1     158.058 169.416 185.448  0.00  0.00    +0.033 HD
ATOM     52  H   UNL     1     156.341 169.727 185.483  0.00  0.00    +0.033 HD
BRANCH  50  53
ATOM     53  C   UNL     1     156.969 168.688 183.752  0.00  0.00    -0.046 A 
ATOM     54  C   UNL     1     155.684 168.475 183.234  0.00  0.00    -0.059 A 
ATOM     55  C   UNL     1     155.465 167.522 182.239  0.00  0.00    -0.062 A 
ATOM     56  C   UNL     1     156.526 166.759 181.757  0.00  0.00    -0.062 A 
ATOM     57  C   UNL     1     157.804 166.946 182.277  0.00  0.00    -0.062 A 
ATOM     58  C   UNL     1     158.024 167.902 183.271  0.00  0.00    -0.059 A 
ATOM     59  H   UNL     1     154.838 169.053 183.597  0.00  0.00    +0.062 HD
ATOM     60  H   UNL     1     154.466 167.376 181.835  0.00  0.00    +0.062 HD
ATOM     61  H   UNL     1     156.358 166.021 180.978  0.00  0.00    +0.062 HD
ATOM     62  H   UNL     1     158.637 166.361 181.899  0.00  0.00    +0.062 HD
ATOM     63  H   UNL     1     159.036 168.039 183.646  0.00  0.00    +0.062 HD
ENDBRANCH  50  53
ENDBRANCH  21  50
BRANCH  15  64
ATOM     64  O   UNL     1     151.344 172.998 181.162  0.00  0.00    -0.377 OA
ATOM     65  H   UNL     1     150.877 172.188 180.870  0.00  0.00    +0.211 HD
ENDBRANCH  15  64
BRANCH   6  66
ATOM     66  O   UNL     1     158.832 175.214 181.584  0.00  0.00    -0.387 OA
ATOM     67  H   UNL     1     158.311 175.282 180.764  0.00  0.00    +0.210 HD
ENDBRANCH   6  66
BRANCH  12  68
ATOM     68  O   UNL     1     155.983 171.372 180.149  0.00  0.00    -0.456 OA
BRANCH  68  69
ATOM     69  C   UNL     1     156.115 170.133 179.616  0.00  0.00    +0.305 C 
ATOM     70  O   UNL     1     155.216 169.431 179.183  0.00  0.00    -0.251 OA
BRANCH  69  71
ATOM     71  C   UNL     1     157.559 169.734 179.622  0.00  0.00    +0.033 C 
ATOM     72  H   UNL     1     158.178 170.552 179.248  0.00  0.00    +0.034 HD
ATOM     73  H   UNL     1     157.695 168.840 179.010  0.00  0.00    +0.034 HD
ATOM     74  H   UNL     1     157.870 169.520 180.649  0.00  0.00    +0.034 HD
ENDBRANCH  69  71
ENDBRANCH  68  69
ENDBRANCH  12  68
TORSDOF 10
ENDMDL
