MODEL 1
REMARK VINA RESULT:      -7.0      0.000      0.000
REMARK  Name = Cytochalasin B_conf2
REMARK  6 active torsions:
REMARK  status: ('A' for Active; 'I' for Inactive)
REMARK    1  A    between atoms: C_1  and  C_2
REMARK    2  A    between atoms: C_6  and  O_35
REMARK    3  A    between atoms: C_17  and  O_34
REMARK    4  A    between atoms: C_20  and  C_33
REMARK    5  A    between atoms: C_22  and  C_26
REMARK    6  A    between atoms: C_26  and  C_27
REMARK                            x       y       z     vdW  Elec       q    Type
REMARK                         _______ _______ _______ _____ _____    ______ ____
ROOT
ATOM      1  C   UNL     1     161.406 171.460 183.129  0.00  0.00    -0.040 C 
ATOM      2  C   UNL     1     160.063 170.835 183.555  0.00  0.00    -0.050 C 
ATOM      3  C   UNL     1     160.122 169.788 184.669  0.00  0.00    -0.050 C 
ATOM      4  C   UNL     1     158.796 169.587 185.427  0.00  0.00    -0.023 C 
ATOM      5  C   UNL     1     157.555 169.205 184.594  0.00  0.00    +0.074 C 
ATOM      6  C   UNL     1     157.066 170.279 183.668  0.00  0.00    -0.049 C 
ATOM      7  C   UNL     1     156.655 171.494 184.070  0.00  0.00    +0.021 C 
ATOM      8  C   UNL     1     156.438 172.638 183.165  0.00  0.00    +0.333 C 
ATOM      9  O   UNL     1     156.326 173.782 183.580  0.00  0.00    -0.246 OA
ATOM     10  O   UNL     1     156.428 172.259 181.868  0.00  0.00    -0.444 OA
ATOM     11  C   UNL     1     156.495 173.284 180.848  0.00  0.00    +0.202 C 
ATOM     12  C   UNL     1     157.841 174.070 180.869  0.00  0.00    +0.056 C 
ATOM     13  C   UNL     1     159.081 173.180 180.920  0.00  0.00    -0.078 C 
ATOM     14  C   UNL     1     160.051 173.242 181.849  0.00  0.00    -0.087 C 
ATOM     15  C   UNL     1     161.245 172.319 181.848  0.00  0.00    -0.032 C 
ATOM     16  C   UNL     1     157.913 175.041 179.656  0.00  0.00    +0.087 C 
ATOM     17  C   UNL     1     156.577 175.681 179.315  0.00  0.00    -0.045 C 
ATOM     18  C   UNL     1     156.360 176.185 178.087  0.00  0.00    -0.097 C 
ATOM     19  C   UNL     1     155.560 175.660 180.441  0.00  0.00    -0.012 C 
ATOM     20  C   UNL     1     155.220 174.200 180.850  0.00  0.00    +0.033 C 
ATOM     21  C   UNL     1     154.217 173.464 179.933  0.00  0.00    +0.035 C 
ATOM     22  N   UNL     1     155.048 172.682 179.064  0.00  0.00    -0.308 N 
ATOM     23  C   UNL     1     156.325 172.503 179.533  0.00  0.00    +0.258 C 
ATOM     24  O   UNL     1     157.145 171.797 178.968  0.00  0.00    -0.271 OA
ATOM     25  H   UNL     1     161.741 172.120 183.941  0.00  0.00    +0.030 HD
ATOM     26  H   UNL     1     159.428 171.659 183.896  0.00  0.00    +0.027 HD
ATOM     27  H   UNL     1     159.594 170.382 182.675  0.00  0.00    +0.027 HD
ATOM     28  H   UNL     1     160.879 170.081 185.406  0.00  0.00    +0.027 HD
ATOM     29  H   UNL     1     160.442 168.828 184.249  0.00  0.00    +0.027 HD
ATOM     30  H   UNL     1     158.582 170.491 186.014  0.00  0.00    +0.029 HD
ATOM     31  H   UNL     1     158.958 168.804 186.179  0.00  0.00    +0.029 HD
ATOM     32  H   UNL     1     157.761 168.299 184.014  0.00  0.00    +0.064 HD
ATOM     33  H   UNL     1     157.173 170.063 182.607  0.00  0.00    +0.060 HD
ATOM     34  H   UNL     1     156.584 171.737 185.126  0.00  0.00    +0.069 HD
ATOM     35  H   UNL     1     157.868 174.674 181.786  0.00  0.00    +0.042 HD
ATOM     36  H   UNL     1     159.180 172.446 180.120  0.00  0.00    +0.057 HD
ATOM     37  H   UNL     1     159.998 173.979 182.648  0.00  0.00    +0.057 HD
ATOM     38  H   UNL     1     162.147 172.929 181.715  0.00  0.00    +0.031 HD
ATOM     39  H   UNL     1     161.195 171.654 180.976  0.00  0.00    +0.031 HD
ATOM     40  H   UNL     1     158.299 174.510 178.776  0.00  0.00    +0.065 HD
ATOM     41  H   UNL     1     157.141 176.161 177.332  0.00  0.00    +0.054 HD
ATOM     42  H   UNL     1     155.421 176.641 177.792  0.00  0.00    +0.054 HD
ATOM     43  H   UNL     1     156.070 176.113 181.305  0.00  0.00    +0.035 HD
ATOM     44  H   UNL     1     154.771 174.268 181.847  0.00  0.00    +0.037 HD
ATOM     45  H   UNL     1     153.642 174.143 179.300  0.00  0.00    +0.051 HD
ATOM     46  H   UNL     1     154.729 172.222 178.218  0.00  0.00    +0.149 HD
ENDROOT
BRANCH   1  47
ATOM     47  C   UNL     1     162.499 170.413 182.900  0.00  0.00    -0.062 C 
ATOM     48  H   UNL     1     163.490 170.839 183.086  0.00  0.00    +0.023 HD
ATOM     49  H   UNL     1     162.382 169.559 183.575  0.00  0.00    +0.023 HD
ATOM     50  H   UNL     1     162.478 170.038 181.871  0.00  0.00    +0.023 HD
ENDBRANCH   1  47
BRANCH  19  51
ATOM     51  C   UNL     1     154.312 176.532 180.249  0.00  0.00    -0.058 C 
ATOM     52  H   UNL     1     154.349 177.403 180.913  0.00  0.00    +0.024 HD
ATOM     53  H   UNL     1     154.203 176.906 179.227  0.00  0.00    +0.024 HD
ATOM     54  H   UNL     1     153.408 175.967 180.498  0.00  0.00    +0.024 HD
ENDBRANCH  19  51
BRANCH  21  55
ATOM     55  C   UNL     1     153.251 172.575 180.745  0.00  0.00    -0.009 C 
ATOM     56  H   UNL     1     153.664 172.393 181.745  0.00  0.00    +0.033 HD
ATOM     57  H   UNL     1     153.141 171.587 180.279  0.00  0.00    +0.033 HD
BRANCH  55  58
ATOM     58  C   UNL     1     151.884 173.202 180.903  0.00  0.00    -0.046 A 
ATOM     59  C   UNL     1     151.667 174.199 181.863  0.00  0.00    -0.059 A 
ATOM     60  C   UNL     1     150.401 174.762 182.025  0.00  0.00    -0.062 A 
ATOM     61  C   UNL     1     149.340 174.332 181.229  0.00  0.00    -0.062 A 
ATOM     62  C   UNL     1     149.545 173.340 180.273  0.00  0.00    -0.062 A 
ATOM     63  C   UNL     1     150.810 172.774 180.110  0.00  0.00    -0.059 A 
ATOM     64  H   UNL     1     152.486 174.543 182.494  0.00  0.00    +0.062 HD
ATOM     65  H   UNL     1     150.243 175.536 182.771  0.00  0.00    +0.062 HD
ATOM     66  H   UNL     1     148.354 174.772 181.356  0.00  0.00    +0.062 HD
ATOM     67  H   UNL     1     148.716 173.006 179.652  0.00  0.00    +0.062 HD
ATOM     68  H   UNL     1     150.951 172.002 179.358  0.00  0.00    +0.062 HD
ENDBRANCH  55  58
ENDBRANCH  21  55
BRANCH  16  69
ATOM     69  O   UNL     1     158.834 176.096 179.939  0.00  0.00    -0.387 OA
ATOM     70  H   UNL     1     158.515 176.897 179.491  0.00  0.00    +0.210 HD
ENDBRANCH  16  69
BRANCH   5  71
ATOM     71  O   UNL     1     156.481 168.910 185.484  0.00  0.00    -0.388 OA
ATOM     72  H   UNL     1     156.687 169.335 186.334  0.00  0.00    +0.210 HD
ENDBRANCH   5  71
TORSDOF 6
ENDMDL
MODEL 2
REMARK VINA RESULT:      -7.0      1.217      2.031
REMARK  Name = Cytochalasin B_conf2
REMARK  6 active torsions:
REMARK  status: ('A' for Active; 'I' for Inactive)
REMARK    1  A    between atoms: C_1  and  C_2
REMARK    2  A    between atoms: C_6  and  O_35
REMARK    3  A    between atoms: C_17  and  O_34
REMARK    4  A    between atoms: C_20  and  C_33
REMARK    5  A    between atoms: C_22  and  C_26
REMARK    6  A    between atoms: C_26  and  C_27
REMARK                            x       y       z     vdW  Elec       q    Type
REMARK                         _______ _______ _______ _____ _____    ______ ____
ROOT
ATOM      1  C   UNL     1     161.343 171.392 182.937  0.00  0.00    -0.040 C 
ATOM      2  C   UNL     1     159.983 170.889 183.457  0.00  0.00    -0.050 C 
ATOM      3  C   UNL     1     160.023 169.872 184.599  0.00  0.00    -0.050 C 
ATOM      4  C   UNL     1     158.732 169.800 185.435  0.00  0.00    -0.023 C 
ATOM      5  C   UNL     1     157.419 169.496 184.685  0.00  0.00    +0.074 C 
ATOM      6  C   UNL     1     156.963 170.579 183.754  0.00  0.00    -0.049 C 
ATOM      7  C   UNL     1     156.672 171.834 184.140  0.00  0.00    +0.021 C 
ATOM      8  C   UNL     1     156.493 172.966 183.211  0.00  0.00    +0.333 C 
ATOM      9  O   UNL     1     156.496 174.126 183.595  0.00  0.00    -0.246 OA
ATOM     10  O   UNL     1     156.379 172.553 181.930  0.00  0.00    -0.444 OA
ATOM     11  C   UNL     1     156.466 173.541 180.875  0.00  0.00    +0.202 C 
ATOM     12  C   UNL     1     157.869 174.216 180.796  0.00  0.00    +0.056 C 
ATOM     13  C   UNL     1     159.037 173.232 180.806  0.00  0.00    -0.078 C 
ATOM     14  C   UNL     1     160.060 173.242 181.678  0.00  0.00    -0.087 C 
ATOM     15  C   UNL     1     161.176 172.226 181.640  0.00  0.00    -0.032 C 
ATOM     16  C   UNL     1     157.947 175.145 179.550  0.00  0.00    +0.087 C 
ATOM     17  C   UNL     1     156.647 175.880 179.264  0.00  0.00    -0.045 C 
ATOM     18  C   UNL     1     156.399 176.366 178.034  0.00  0.00    -0.097 C 
ATOM     19  C   UNL     1     155.699 175.972 180.444  0.00  0.00    -0.012 C 
ATOM     20  C   UNL     1     155.270 174.556 180.919  0.00  0.00    +0.033 C 
ATOM     21  C   UNL     1     154.161 173.877 180.083  0.00  0.00    +0.035 C 
ATOM     22  N   UNL     1     154.876 173.008 179.195  0.00  0.00    -0.308 N 
ATOM     23  C   UNL     1     156.160 172.740 179.597  0.00  0.00    +0.258 C 
ATOM     24  O   UNL     1     156.888 171.955 179.011  0.00  0.00    -0.271 OA
ATOM     25  H   UNL     1     161.776 172.046 183.707  0.00  0.00    +0.030 HD
ATOM     26  H   UNL     1     159.435 171.771 183.806  0.00  0.00    +0.027 HD
ATOM     27  H   UNL     1     159.429 170.451 182.620  0.00  0.00    +0.027 HD
ATOM     28  H   UNL     1     160.842 170.124 185.283  0.00  0.00    +0.027 HD
ATOM     29  H   UNL     1     160.243 168.878 184.193  0.00  0.00    +0.027 HD
ATOM     30  H   UNL     1     158.624 170.733 186.004  0.00  0.00    +0.029 HD
ATOM     31  H   UNL     1     158.876 169.028 186.203  0.00  0.00    +0.029 HD
ATOM     32  H   UNL     1     157.520 168.560 184.124  0.00  0.00    +0.064 HD
ATOM     33  H   UNL     1     156.991 170.326 182.696  0.00  0.00    +0.060 HD
ATOM     34  H   UNL     1     156.682 172.111 185.189  0.00  0.00    +0.069 HD
ATOM     35  H   UNL     1     157.996 174.842 181.690  0.00  0.00    +0.042 HD
ATOM     36  H   UNL     1     159.031 172.471 180.026  0.00  0.00    +0.057 HD
ATOM     37  H   UNL     1     160.112 174.002 182.454  0.00  0.00    +0.057 HD
ATOM     38  H   UNL     1     162.114 172.758 181.437  0.00  0.00    +0.031 HD
ATOM     39  H   UNL     1     161.024 171.543 180.794  0.00  0.00    +0.031 HD
ATOM     40  H   UNL     1     158.238 174.561 178.668  0.00  0.00    +0.065 HD
ATOM     41  H   UNL     1     157.132 176.259 177.237  0.00  0.00    +0.054 HD
ATOM     42  H   UNL     1     155.484 176.887 177.777  0.00  0.00    +0.054 HD
ATOM     43  H   UNL     1     156.292 176.406 181.264  0.00  0.00    +0.035 HD
ATOM     44  H   UNL     1     154.886 174.687 181.936  0.00  0.00    +0.037 HD
ATOM     45  H   UNL     1     153.604 174.583 179.462  0.00  0.00    +0.051 HD
ATOM     46  H   UNL     1     154.474 172.551 178.383  0.00  0.00    +0.149 HD
ENDROOT
BRANCH   1  47
ATOM     47  C   UNL     1     162.335 170.256 182.681  0.00  0.00    -0.062 C 
ATOM     48  H   UNL     1     163.367 170.619 182.745  0.00  0.00    +0.023 HD
ATOM     49  H   UNL     1     162.227 169.457 183.422  0.00  0.00    +0.023 HD
ATOM     50  H   UNL     1     162.190 169.819 181.687  0.00  0.00    +0.023 HD
ENDBRANCH   1  47
BRANCH  19  51
ATOM     51  C   UNL     1     154.514 176.935 180.294  0.00  0.00    -0.058 C 
ATOM     52  H   UNL     1     154.231 177.347 181.270  0.00  0.00    +0.024 HD
ATOM     53  H   UNL     1     154.729 177.780 179.634  0.00  0.00    +0.024 HD
ATOM     54  H   UNL     1     153.641 176.410 179.893  0.00  0.00    +0.024 HD
ENDBRANCH  19  51
BRANCH  21  55
ATOM     55  C   UNL     1     153.177 173.091 180.975  0.00  0.00    -0.009 C 
ATOM     56  H   UNL     1     152.186 173.562 180.941  0.00  0.00    +0.033 HD
ATOM     57  H   UNL     1     153.490 173.121 182.027  0.00  0.00    +0.033 HD
BRANCH  55  58
ATOM     58  C   UNL     1     153.031 171.649 180.543  0.00  0.00    -0.046 A 
ATOM     59  C   UNL     1     152.072 171.288 179.587  0.00  0.00    -0.059 A 
ATOM     60  C   UNL     1     151.923 169.955 179.204  0.00  0.00    -0.062 A 
ATOM     61  C   UNL     1     152.728 168.970 179.775  0.00  0.00    -0.062 A 
ATOM     62  C   UNL     1     153.683 169.319 180.728  0.00  0.00    -0.062 A 
ATOM     63  C   UNL     1     153.835 170.652 181.113  0.00  0.00    -0.059 A 
ATOM     64  H   UNL     1     151.434 172.045 179.134  0.00  0.00    +0.062 HD
ATOM     65  H   UNL     1     151.178 169.684 178.461  0.00  0.00    +0.062 HD
ATOM     66  H   UNL     1     152.611 167.933 179.475  0.00  0.00    +0.062 HD
ATOM     67  H   UNL     1     154.312 168.550 181.171  0.00  0.00    +0.062 HD
ATOM     68  H   UNL     1     154.585 170.905 181.857  0.00  0.00    +0.062 HD
ENDBRANCH  55  58
ENDBRANCH  21  55
BRANCH  16  69
ATOM     69  O   UNL     1     158.963 176.131 179.748  0.00  0.00    -0.387 OA
ATOM     70  H   UNL     1     159.709 175.701 180.197  0.00  0.00    +0.210 HD
ENDBRANCH  16  69
BRANCH   5  71
ATOM     71  O   UNL     1     156.378 169.312 185.643  0.00  0.00    -0.388 OA
ATOM     72  H   UNL     1     156.794 168.991 186.461  0.00  0.00    +0.210 HD
ENDBRANCH   5  71
TORSDOF 6
ENDMDL
MODEL 3
REMARK VINA RESULT:      -6.8     12.711     15.511
REMARK  Name = Cytochalasin B_conf2
REMARK  6 active torsions:
REMARK  status: ('A' for Active; 'I' for Inactive)
REMARK    1  A    between atoms: C_1  and  C_2
REMARK    2  A    between atoms: C_6  and  O_35
REMARK    3  A    between atoms: C_17  and  O_34
REMARK    4  A    between atoms: C_20  and  C_33
REMARK    5  A    between atoms: C_22  and  C_26
REMARK    6  A    between atoms: C_26  and  C_27
REMARK                            x       y       z     vdW  Elec       q    Type
REMARK                         _______ _______ _______ _____ _____    ______ ____
ROOT
ATOM      1  C   UNL     1     151.026 167.104 191.893  0.00  0.00    -0.040 C 
ATOM      2  C   UNL     1     150.357 168.490 191.986  0.00  0.00    -0.050 C 
ATOM      3  C   UNL     1     151.281 169.674 192.274  0.00  0.00    -0.050 C 
ATOM      4  C   UNL     1     150.720 171.042 191.840  0.00  0.00    -0.023 C 
ATOM      5  C   UNL     1     149.353 171.461 192.417  0.00  0.00    +0.074 C 
ATOM      6  C   UNL     1     148.192 170.638 191.942  0.00  0.00    -0.049 C 
ATOM      7  C   UNL     1     147.825 170.521 190.654  0.00  0.00    +0.021 C 
ATOM      8  C   UNL     1     146.874 169.512 190.151  0.00  0.00    +0.333 C 
ATOM      9  O   UNL     1     146.765 169.260 188.961  0.00  0.00    -0.246 OA
ATOM     10  O   UNL     1     146.207 168.905 191.156  0.00  0.00    -0.444 OA
ATOM     11  C   UNL     1     145.440 167.714 190.856  0.00  0.00    +0.202 C 
ATOM     12  C   UNL     1     146.331 166.523 190.391  0.00  0.00    +0.056 C 
ATOM     13  C   UNL     1     147.538 166.259 191.290  0.00  0.00    -0.078 C 
ATOM     14  C   UNL     1     148.820 166.223 190.888  0.00  0.00    -0.087 C 
ATOM     15  C   UNL     1     149.968 165.972 191.836  0.00  0.00    -0.032 C 
ATOM     16  C   UNL     1     145.471 165.236 190.239  0.00  0.00    +0.087 C 
ATOM     17  C   UNL     1     144.079 165.503 189.688  0.00  0.00    -0.045 C 
ATOM     18  C   UNL     1     143.088 164.617 189.890  0.00  0.00    -0.097 C 
ATOM     19  C   UNL     1     143.932 166.823 188.955  0.00  0.00    -0.012 C 
ATOM     20  C   UNL     1     144.231 168.018 189.902  0.00  0.00    +0.033 C 
ATOM     21  C   UNL     1     143.083 168.421 190.854  0.00  0.00    +0.035 C 
ATOM     22  N   UNL     1     143.413 167.778 192.092  0.00  0.00    -0.308 N 
ATOM     23  C   UNL     1     144.727 167.393 192.182  0.00  0.00    +0.258 C 
ATOM     24  O   UNL     1     145.208 166.906 193.194  0.00  0.00    -0.271 OA
ATOM     25  H   UNL     1     151.606 167.074 190.961  0.00  0.00    +0.030 HD
ATOM     26  H   UNL     1     149.867 168.667 191.024  0.00  0.00    +0.027 HD
ATOM     27  H   UNL     1     149.585 168.454 192.763  0.00  0.00    +0.027 HD
ATOM     28  H   UNL     1     152.233 169.530 191.750  0.00  0.00    +0.027 HD
ATOM     29  H   UNL     1     151.510 169.706 193.346  0.00  0.00    +0.027 HD
ATOM     30  H   UNL     1     150.685 171.078 190.743  0.00  0.00    +0.029 HD
ATOM     31  H   UNL     1     151.458 171.807 192.115  0.00  0.00    +0.029 HD
ATOM     32  H   UNL     1     149.387 171.435 193.512  0.00  0.00    +0.064 HD
ATOM     33  H   UNL     1     147.715 170.024 192.704  0.00  0.00    +0.060 HD
ATOM     34  H   UNL     1     148.321 171.097 189.879  0.00  0.00    +0.069 HD
ATOM     35  H   UNL     1     146.743 166.771 189.403  0.00  0.00    +0.042 HD
ATOM     36  H   UNL     1     147.322 166.073 192.342  0.00  0.00    +0.057 HD
ATOM     37  H   UNL     1     149.071 166.379 189.841  0.00  0.00    +0.057 HD
ATOM     38  H   UNL     1     150.462 165.040 191.533  0.00  0.00    +0.031 HD
ATOM     39  H   UNL     1     149.578 165.796 192.847  0.00  0.00    +0.031 HD
ATOM     40  H   UNL     1     145.388 164.726 191.207  0.00  0.00    +0.065 HD
ATOM     41  H   UNL     1     143.273 163.691 190.429  0.00  0.00    +0.054 HD
ATOM     42  H   UNL     1     142.077 164.767 189.527  0.00  0.00    +0.054 HD
ATOM     43  H   UNL     1     144.727 166.825 188.192  0.00  0.00    +0.035 HD
ATOM     44  H   UNL     1     144.436 168.871 189.247  0.00  0.00    +0.037 HD
ATOM     45  H   UNL     1     142.112 168.031 190.539  0.00  0.00    +0.051 HD
ATOM     46  H   UNL     1     142.781 167.676 192.878  0.00  0.00    +0.149 HD
ENDROOT
BRANCH   1  47
ATOM     47  C   UNL     1     151.990 166.835 193.050  0.00  0.00    -0.062 C 
ATOM     48  H   UNL     1     151.444 166.723 193.993  0.00  0.00    +0.023 HD
ATOM     49  H   UNL     1     152.555 165.911 192.892  0.00  0.00    +0.023 HD
ATOM     50  H   UNL     1     152.707 167.655 193.168  0.00  0.00    +0.023 HD
ENDBRANCH   1  47
BRANCH  19  51
ATOM     51  C   UNL     1     142.643 167.012 188.144  0.00  0.00    -0.058 C 
ATOM     52  H   UNL     1     142.086 166.070 188.086  0.00  0.00    +0.024 HD
ATOM     53  H   UNL     1     141.971 167.760 188.574  0.00  0.00    +0.024 HD
ATOM     54  H   UNL     1     142.876 167.319 187.119  0.00  0.00    +0.024 HD
ENDBRANCH  19  51
BRANCH  21  55
ATOM     55  C   UNL     1     142.992 169.953 191.018  0.00  0.00    -0.009 C 
ATOM     56  H   UNL     1     143.466 170.448 190.161  0.00  0.00    +0.033 HD
ATOM     57  H   UNL     1     143.546 170.287 191.904  0.00  0.00    +0.033 HD
BRANCH  55  58
ATOM     58  C   UNL     1     141.563 170.439 191.116  0.00  0.00    -0.046 A 
ATOM     59  C   UNL     1     140.531 169.742 190.474  0.00  0.00    -0.059 A 
ATOM     60  C   UNL     1     139.216 170.203 190.545  0.00  0.00    -0.062 A 
ATOM     61  C   UNL     1     138.921 171.366 191.256  0.00  0.00    -0.062 A 
ATOM     62  C   UNL     1     139.941 172.067 191.896  0.00  0.00    -0.062 A 
ATOM     63  C   UNL     1     141.257 171.609 191.826  0.00  0.00    -0.059 A 
ATOM     64  H   UNL     1     140.746 168.835 189.912  0.00  0.00    +0.062 HD
ATOM     65  H   UNL     1     138.422 169.656 190.045  0.00  0.00    +0.062 HD
ATOM     66  H   UNL     1     137.897 171.723 191.311  0.00  0.00    +0.062 HD
ATOM     67  H   UNL     1     139.709 172.972 192.452  0.00  0.00    +0.062 HD
ATOM     68  H   UNL     1     142.039 172.168 192.333  0.00  0.00    +0.062 HD
ENDBRANCH  55  58
ENDBRANCH  21  55
BRANCH  16  69
ATOM     69  O   UNL     1     146.118 164.327 189.346  0.00  0.00    -0.387 OA
ATOM     70  H   UNL     1     145.677 163.466 189.428  0.00  0.00    +0.210 HD
ENDBRANCH  16  69
BRANCH   5  71
ATOM     71  O   UNL     1     149.087 172.808 192.028  0.00  0.00    -0.388 OA
ATOM     72  H   UNL     1     149.945 173.233 191.861  0.00  0.00    +0.210 HD
ENDBRANCH   5  71
TORSDOF 6
ENDMDL
MODEL 4
REMARK VINA RESULT:      -6.7      2.679      4.433
REMARK  Name = Cytochalasin B_conf2
REMARK  6 active torsions:
REMARK  status: ('A' for Active; 'I' for Inactive)
REMARK    1  A    between atoms: C_1  and  C_2
REMARK    2  A    between atoms: C_6  and  O_35
REMARK    3  A    between atoms: C_17  and  O_34
REMARK    4  A    between atoms: C_20  and  C_33
REMARK    5  A    between atoms: C_22  and  C_26
REMARK    6  A    between atoms: C_26  and  C_27
REMARK                            x       y       z     vdW  Elec       q    Type
REMARK                         _______ _______ _______ _____ _____    ______ ____
ROOT
ATOM      1  C   UNL     1     160.558 165.988 185.659  0.00  0.00    -0.040 C 
ATOM      2  C   UNL     1     159.050 165.867 185.364  0.00  0.00    -0.050 C 
ATOM      3  C   UNL     1     158.355 164.605 185.875  0.00  0.00    -0.050 C 
ATOM      4  C   UNL     1     156.831 164.743 186.052  0.00  0.00    -0.023 C 
ATOM      5  C   UNL     1     156.011 165.170 184.818  0.00  0.00    +0.074 C 
ATOM      6  C   UNL     1     156.260 166.574 184.354  0.00  0.00    -0.049 C 
ATOM      7  C   UNL     1     156.049 167.668 185.107  0.00  0.00    +0.021 C 
ATOM      8  C   UNL     1     156.544 169.016 184.769  0.00  0.00    +0.333 C 
ATOM      9  O   UNL     1     156.568 169.922 185.589  0.00  0.00    -0.246 OA
ATOM     10  O   UNL     1     156.988 169.084 183.496  0.00  0.00    -0.444 OA
ATOM     11  C   UNL     1     157.747 170.249 183.091  0.00  0.00    +0.202 C 
ATOM     12  C   UNL     1     159.109 170.372 183.838  0.00  0.00    +0.056 C 
ATOM     13  C   UNL     1     159.932 169.085 183.853  0.00  0.00    -0.078 C 
ATOM     14  C   UNL     1     160.392 168.463 184.952  0.00  0.00    -0.087 C 
ATOM     15  C   UNL     1     161.187 167.181 184.894  0.00  0.00    -0.032 C 
ATOM     16  C   UNL     1     159.941 171.546 183.247  0.00  0.00    +0.087 C 
ATOM     17  C   UNL     1     159.094 172.745 182.849  0.00  0.00    -0.045 C 
ATOM     18  C   UNL     1     159.560 173.638 181.959  0.00  0.00    -0.097 C 
ATOM     19  C   UNL     1     157.729 172.800 183.507  0.00  0.00    -0.012 C 
ATOM     20  C   UNL     1     156.880 171.556 183.123  0.00  0.00    +0.033 C 
ATOM     21  C   UNL     1     156.210 171.607 181.732  0.00  0.00    +0.035 C 
ATOM     22  N   UNL     1     157.096 170.858 180.890  0.00  0.00    -0.308 N 
ATOM     23  C   UNL     1     157.957 170.041 181.580  0.00  0.00    +0.258 C 
ATOM     24  O   UNL     1     158.725 169.270 181.028  0.00  0.00    -0.271 OA
ATOM     25  H   UNL     1     160.675 166.176 186.736  0.00  0.00    +0.030 HD
ATOM     26  H   UNL     1     158.569 166.733 185.830  0.00  0.00    +0.027 HD
ATOM     27  H   UNL     1     158.900 165.934 184.281  0.00  0.00    +0.027 HD
ATOM     28  H   UNL     1     158.773 164.327 186.850  0.00  0.00    +0.027 HD
ATOM     29  H   UNL     1     158.562 163.773 185.192  0.00  0.00    +0.027 HD
ATOM     30  H   UNL     1     156.631 165.432 186.884  0.00  0.00    +0.029 HD
ATOM     31  H   UNL     1     156.447 163.775 186.400  0.00  0.00    +0.029 HD
ATOM     32  H   UNL     1     156.201 164.480 183.988  0.00  0.00    +0.064 HD
ATOM     33  H   UNL     1     156.748 166.665 183.385  0.00  0.00    +0.060 HD
ATOM     34  H   UNL     1     155.601 167.587 186.093  0.00  0.00    +0.069 HD
ATOM     35  H   UNL     1     158.900 170.605 184.891  0.00  0.00    +0.042 HD
ATOM     36  H   UNL     1     160.166 168.654 182.880  0.00  0.00    +0.057 HD
ATOM     37  H   UNL     1     160.198 168.879 185.939  0.00  0.00    +0.057 HD
ATOM     38  H   UNL     1     162.185 167.381 185.306  0.00  0.00    +0.031 HD
ATOM     39  H   UNL     1     161.343 166.891 183.846  0.00  0.00    +0.031 HD
ATOM     40  H   UNL     1     160.512 171.197 182.377  0.00  0.00    +0.065 HD
ATOM     41  H   UNL     1     160.553 173.528 181.529  0.00  0.00    +0.054 HD
ATOM     42  H   UNL     1     158.991 174.503 181.634  0.00  0.00    +0.054 HD
ATOM     43  H   UNL     1     157.920 172.723 184.588  0.00  0.00    +0.035 HD
ATOM     44  H   UNL     1     156.085 171.497 183.873  0.00  0.00    +0.037 HD
ATOM     45  H   UNL     1     156.157 172.618 181.321  0.00  0.00    +0.051 HD
ATOM     46  H   UNL     1     157.061 170.846 179.876  0.00  0.00    +0.149 HD
ENDROOT
BRANCH   1  47
ATOM     47  C   UNL     1     161.330 164.710 185.324  0.00  0.00    -0.062 C 
ATOM     48  H   UNL     1     162.021 164.881 184.491  0.00  0.00    +0.023 HD
ATOM     49  H   UNL     1     161.928 164.370 186.175  0.00  0.00    +0.023 HD
ATOM     50  H   UNL     1     160.650 163.899 185.040  0.00  0.00    +0.023 HD
ENDBRANCH   1  47
BRANCH  19  51
ATOM     51  C   UNL     1     156.956 174.118 183.363  0.00  0.00    -0.058 C 
ATOM     52  H   UNL     1     156.092 173.983 182.702  0.00  0.00    +0.024 HD
ATOM     53  H   UNL     1     156.580 174.502 184.315  0.00  0.00    +0.024 HD
ATOM     54  H   UNL     1     157.593 174.889 182.917  0.00  0.00    +0.024 HD
ENDBRANCH  19  51
BRANCH  21  55
ATOM     55  C   UNL     1     154.796 170.989 181.758  0.00  0.00    -0.009 C 
ATOM     56  H   UNL     1     154.583 170.588 182.758  0.00  0.00    +0.033 HD
ATOM     57  H   UNL     1     154.726 170.137 181.070  0.00  0.00    +0.033 HD
BRANCH  55  58
ATOM     58  C   UNL     1     153.720 171.994 181.412  0.00  0.00    -0.046 A 
ATOM     59  C   UNL     1     153.621 173.199 182.119  0.00  0.00    -0.059 A 
ATOM     60  C   UNL     1     152.614 174.116 181.816  0.00  0.00    -0.062 A 
ATOM     61  C   UNL     1     151.697 173.836 180.804  0.00  0.00    -0.062 A 
ATOM     62  C   UNL     1     151.786 172.639 180.096  0.00  0.00    -0.062 A 
ATOM     63  C   UNL     1     152.791 171.719 180.399  0.00  0.00    -0.059 A 
ATOM     64  H   UNL     1     154.328 173.431 182.914  0.00  0.00    +0.062 HD
ATOM     65  H   UNL     1     152.546 175.050 182.368  0.00  0.00    +0.062 HD
ATOM     66  H   UNL     1     150.914 174.552 180.568  0.00  0.00    +0.062 HD
ATOM     67  H   UNL     1     151.070 172.422 179.307  0.00  0.00    +0.062 HD
ATOM     68  H   UNL     1     152.845 170.792 179.836  0.00  0.00    +0.062 HD
ENDBRANCH  55  58
ENDBRANCH  21  55
BRANCH  16  69
ATOM     69  O   UNL     1     160.893 171.995 184.214  0.00  0.00    -0.387 OA
ATOM     70  H   UNL     1     161.635 171.369 184.213  0.00  0.00    +0.210 HD
ENDBRANCH  16  69
BRANCH   5  71
ATOM     71  O   UNL     1     154.624 165.084 185.138  0.00  0.00    -0.388 OA
ATOM     72  H   UNL     1     154.555 165.056 186.108  0.00  0.00    +0.210 HD
ENDBRANCH   5  71
TORSDOF 6
ENDMDL
MODEL 5
REMARK VINA RESULT:      -6.7     10.870     13.937
REMARK  Name = Cytochalasin B_conf2
REMARK  6 active torsions:
REMARK  status: ('A' for Active; 'I' for Inactive)
REMARK    1  A    between atoms: C_1  and  C_2
REMARK    2  A    between atoms: C_6  and  O_35
REMARK    3  A    between atoms: C_17  and  O_34
REMARK    4  A    between atoms: C_20  and  C_33
REMARK    5  A    between atoms: C_22  and  C_26
REMARK    6  A    between atoms: C_26  and  C_27
REMARK                            x       y       z     vdW  Elec       q    Type
REMARK                         _______ _______ _______ _____ _____    ______ ____
ROOT
ATOM      1  C   UNL     1     150.126 165.467 194.330  0.00  0.00    -0.040 C 
ATOM      2  C   UNL     1     150.845 166.001 193.075  0.00  0.00    -0.050 C 
ATOM      3  C   UNL     1     152.367 165.853 193.048  0.00  0.00    -0.050 C 
ATOM      4  C   UNL     1     152.986 165.881 191.637  0.00  0.00    -0.023 C 
ATOM      5  C   UNL     1     152.696 167.117 190.762  0.00  0.00    +0.074 C 
ATOM      6  C   UNL     1     151.267 167.257 190.328  0.00  0.00    -0.049 C 
ATOM      7  C   UNL     1     150.608 166.346 189.591  0.00  0.00    +0.021 C 
ATOM      8  C   UNL     1     149.146 166.338 189.395  0.00  0.00    +0.333 C 
ATOM      9  O   UNL     1     148.556 165.364 188.951  0.00  0.00    -0.246 OA
ATOM     10  O   UNL     1     148.577 167.494 189.802  0.00  0.00    -0.444 OA
ATOM     11  C   UNL     1     147.136 167.548 189.927  0.00  0.00    +0.202 C 
ATOM     12  C   UNL     1     146.590 166.598 191.035  0.00  0.00    +0.056 C 
ATOM     13  C   UNL     1     147.322 166.711 192.371  0.00  0.00    -0.078 C 
ATOM     14  C   UNL     1     147.910 165.697 193.029  0.00  0.00    -0.087 C 
ATOM     15  C   UNL     1     148.633 165.884 194.342  0.00  0.00    -0.032 C 
ATOM     16  C   UNL     1     145.063 166.820 191.228  0.00  0.00    +0.087 C 
ATOM     17  C   UNL     1     144.325 167.099 189.927  0.00  0.00    -0.045 C 
ATOM     18  C   UNL     1     143.133 167.720 189.944  0.00  0.00    -0.097 C 
ATOM     19  C   UNL     1     145.059 166.653 188.677  0.00  0.00    -0.012 C 
ATOM     20  C   UNL     1     146.419 167.392 188.540  0.00  0.00    +0.033 C 
ATOM     21  C   UNL     1     146.345 168.831 187.982  0.00  0.00    +0.035 C 
ATOM     22  N   UNL     1     146.381 169.661 189.150  0.00  0.00    -0.308 N 
ATOM     23  C   UNL     1     146.854 169.023 190.269  0.00  0.00    +0.258 C 
ATOM     24  O   UNL     1     147.033 169.594 191.333  0.00  0.00    -0.271 OA
ATOM     25  H   UNL     1     150.172 164.370 194.301  0.00  0.00    +0.030 HD
ATOM     26  H   UNL     1     150.435 165.452 192.221  0.00  0.00    +0.027 HD
ATOM     27  H   UNL     1     150.595 167.061 192.954  0.00  0.00    +0.027 HD
ATOM     28  H   UNL     1     152.649 164.900 193.510  0.00  0.00    +0.027 HD
ATOM     29  H   UNL     1     152.821 166.646 193.653  0.00  0.00    +0.027 HD
ATOM     30  H   UNL     1     152.687 164.970 191.100  0.00  0.00    +0.029 HD
ATOM     31  H   UNL     1     154.074 165.788 191.750  0.00  0.00    +0.029 HD
ATOM     32  H   UNL     1     153.001 168.027 191.290  0.00  0.00    +0.064 HD
ATOM     33  H   UNL     1     150.733 168.106 190.751  0.00  0.00    +0.060 HD
ATOM     34  H   UNL     1     151.118 165.472 189.198  0.00  0.00    +0.069 HD
ATOM     35  H   UNL     1     146.740 165.563 190.699  0.00  0.00    +0.042 HD
ATOM     36  H   UNL     1     147.350 167.704 192.821  0.00  0.00    +0.057 HD
ATOM     37  H   UNL     1     147.881 164.689 192.622  0.00  0.00    +0.057 HD
ATOM     38  H   UNL     1     148.107 165.298 195.106  0.00  0.00    +0.031 HD
ATOM     39  H   UNL     1     148.557 166.934 194.657  0.00  0.00    +0.031 HD
ATOM     40  H   UNL     1     144.892 167.646 191.929  0.00  0.00    +0.065 HD
ATOM     41  H   UNL     1     142.672 168.011 190.885  0.00  0.00    +0.054 HD
ATOM     42  H   UNL     1     142.573 167.951 189.044  0.00  0.00    +0.054 HD
ATOM     43  H   UNL     1     145.299 165.591 188.840  0.00  0.00    +0.035 HD
ATOM     44  H   UNL     1     147.013 166.794 187.841  0.00  0.00    +0.037 HD
ATOM     45  H   UNL     1     145.404 169.041 187.469  0.00  0.00    +0.051 HD
ATOM     46  H   UNL     1     146.162 170.652 189.164  0.00  0.00    +0.149 HD
ENDROOT
BRANCH   1  47
ATOM     47  C   UNL     1     150.788 165.926 195.631  0.00  0.00    -0.062 C 
ATOM     48  H   UNL     1     150.034 166.144 196.394  0.00  0.00    +0.023 HD
ATOM     49  H   UNL     1     151.447 165.152 196.038  0.00  0.00    +0.023 HD
ATOM     50  H   UNL     1     151.385 166.831 195.474  0.00  0.00    +0.023 HD
ENDBRANCH   1  47
BRANCH  19  51
ATOM     51  C   UNL     1     144.247 166.652 187.375  0.00  0.00    -0.058 C 
ATOM     52  H   UNL     1     143.694 165.711 187.270  0.00  0.00    +0.024 HD
ATOM     53  H   UNL     1     143.518 167.465 187.322  0.00  0.00    +0.024 HD
ATOM     54  H   UNL     1     144.911 166.740 186.509  0.00  0.00    +0.024 HD
ENDBRANCH  19  51
BRANCH  21  55
ATOM     55  C   UNL     1     147.526 169.135 187.035  0.00  0.00    -0.009 C 
ATOM     56  H   UNL     1     148.459 169.191 187.610  0.00  0.00    +0.033 HD
ATOM     57  H   UNL     1     147.404 170.116 186.558  0.00  0.00    +0.033 HD
BRANCH  55  58
ATOM     58  C   UNL     1     147.692 168.081 185.963  0.00  0.00    -0.046 A 
ATOM     59  C   UNL     1     148.811 167.237 185.965  0.00  0.00    -0.059 A 
ATOM     60  C   UNL     1     148.975 166.280 184.964  0.00  0.00    -0.062 A 
ATOM     61  C   UNL     1     148.025 166.158 183.951  0.00  0.00    -0.062 A 
ATOM     62  C   UNL     1     146.910 166.994 183.939  0.00  0.00    -0.062 A 
ATOM     63  C   UNL     1     146.743 167.953 184.939  0.00  0.00    -0.059 A 
ATOM     64  H   UNL     1     149.563 167.321 186.748  0.00  0.00    +0.062 HD
ATOM     65  H   UNL     1     149.845 165.629 184.974  0.00  0.00    +0.062 HD
ATOM     66  H   UNL     1     148.155 165.412 183.172  0.00  0.00    +0.062 HD
ATOM     67  H   UNL     1     146.169 166.898 183.149  0.00  0.00    +0.062 HD
ATOM     68  H   UNL     1     145.867 168.595 184.914  0.00  0.00    +0.062 HD
ENDBRANCH  55  58
ENDBRANCH  21  55
BRANCH  16  69
ATOM     69  O   UNL     1     144.477 165.654 191.811  0.00  0.00    -0.387 OA
ATOM     70  H   UNL     1     143.909 165.943 192.544  0.00  0.00    +0.210 HD
ENDBRANCH  16  69
BRANCH   5  71
ATOM     71  O   UNL     1     153.478 167.028 189.572  0.00  0.00    -0.388 OA
ATOM     72  H   UNL     1     153.814 167.921 189.383  0.00  0.00    +0.210 HD
ENDBRANCH   5  71
TORSDOF 6
ENDMDL
MODEL 6
REMARK VINA RESULT:      -6.6     12.110     14.677
REMARK  Name = Cytochalasin B_conf2
REMARK  6 active torsions:
REMARK  status: ('A' for Active; 'I' for Inactive)
REMARK    1  A    between atoms: C_1  and  C_2
REMARK    2  A    between atoms: C_6  and  O_35
REMARK    3  A    between atoms: C_17  and  O_34
REMARK    4  A    between atoms: C_20  and  C_33
REMARK    5  A    between atoms: C_22  and  C_26
REMARK    6  A    between atoms: C_26  and  C_27
REMARK                            x       y       z     vdW  Elec       q    Type
REMARK                         _______ _______ _______ _____ _____    ______ ____
ROOT
ATOM      1  C   UNL     1     144.778 167.523 186.068  0.00  0.00    -0.040 C 
ATOM      2  C   UNL     1     145.565 166.306 186.592  0.00  0.00    -0.050 C 
ATOM      3  C   UNL     1     145.499 165.035 185.744  0.00  0.00    -0.050 C 
ATOM      4  C   UNL     1     146.666 164.056 185.970  0.00  0.00    -0.023 C 
ATOM      5  C   UNL     1     146.901 163.555 187.409  0.00  0.00    +0.074 C 
ATOM      6  C   UNL     1     147.367 164.606 188.372  0.00  0.00    -0.049 C 
ATOM      7  C   UNL     1     148.505 165.310 188.230  0.00  0.00    +0.021 C 
ATOM      8  C   UNL     1     148.833 166.521 189.006  0.00  0.00    +0.333 C 
ATOM      9  O   UNL     1     149.733 167.278 188.675  0.00  0.00    -0.246 OA
ATOM     10  O   UNL     1     148.002 166.685 190.057  0.00  0.00    -0.444 OA
ATOM     11  C   UNL     1     148.016 167.952 190.757  0.00  0.00    +0.202 C 
ATOM     12  C   UNL     1     147.532 169.138 189.868  0.00  0.00    +0.056 C 
ATOM     13  C   UNL     1     146.226 168.868 189.125  0.00  0.00    -0.078 C 
ATOM     14  C   UNL     1     146.050 168.957 187.795  0.00  0.00    -0.087 C 
ATOM     15  C   UNL     1     144.731 168.659 187.123  0.00  0.00    -0.032 C 
ATOM     16  C   UNL     1     147.419 170.435 190.720  0.00  0.00    +0.087 C 
ATOM     17  C   UNL     1     148.515 170.567 191.766  0.00  0.00    -0.045 C 
ATOM     18  C   UNL     1     148.338 171.363 192.835  0.00  0.00    -0.097 C 
ATOM     19  C   UNL     1     149.746 169.723 191.502  0.00  0.00    -0.012 C 
ATOM     20  C   UNL     1     149.386 168.211 191.478  0.00  0.00    +0.033 C 
ATOM     21  C   UNL     1     149.225 167.540 192.860  0.00  0.00    +0.035 C 
ATOM     22  N   UNL     1     147.809 167.542 193.087  0.00  0.00    -0.308 N 
ATOM     23  C   UNL     1     147.066 167.724 191.947  0.00  0.00    +0.258 C 
ATOM     24  O   UNL     1     145.847 167.671 191.935  0.00  0.00    -0.271 OA
ATOM     25  H   UNL     1     145.304 167.905 185.181  0.00  0.00    +0.030 HD
ATOM     26  H   UNL     1     146.613 166.616 186.660  0.00  0.00    +0.027 HD
ATOM     27  H   UNL     1     145.211 166.070 187.602  0.00  0.00    +0.027 HD
ATOM     28  H   UNL     1     145.500 165.306 184.682  0.00  0.00    +0.027 HD
ATOM     29  H   UNL     1     144.553 164.516 185.939  0.00  0.00    +0.027 HD
ATOM     30  H   UNL     1     147.589 164.507 185.581  0.00  0.00    +0.029 HD
ATOM     31  H   UNL     1     146.497 163.183 185.326  0.00  0.00    +0.029 HD
ATOM     32  H   UNL     1     145.985 163.095 187.797  0.00  0.00    +0.064 HD
ATOM     33  H   UNL     1     146.660 164.866 189.157  0.00  0.00    +0.060 HD
ATOM     34  H   UNL     1     149.199 165.089 187.426  0.00  0.00    +0.069 HD
ATOM     35  H   UNL     1     148.289 169.311 189.091  0.00  0.00    +0.042 HD
ATOM     36  H   UNL     1     145.370 168.593 189.741  0.00  0.00    +0.057 HD
ATOM     37  H   UNL     1     146.875 169.253 187.151  0.00  0.00    +0.057 HD
ATOM     38  H   UNL     1     144.381 169.579 186.638  0.00  0.00    +0.031 HD
ATOM     39  H   UNL     1     143.978 168.410 187.883  0.00  0.00    +0.031 HD
ATOM     40  H   UNL     1     146.438 170.474 191.211  0.00  0.00    +0.065 HD
ATOM     41  H   UNL     1     147.423 171.938 192.955  0.00  0.00    +0.054 HD
ATOM     42  H   UNL     1     149.084 171.482 193.614  0.00  0.00    +0.054 HD
ATOM     43  H   UNL     1     150.066 169.981 190.480  0.00  0.00    +0.035 HD
ATOM     44  H   UNL     1     150.215 167.716 190.962  0.00  0.00    +0.037 HD
ATOM     45  H   UNL     1     149.679 168.117 193.669  0.00  0.00    +0.051 HD
ATOM     46  H   UNL     1     147.364 167.347 193.977  0.00  0.00    +0.149 HD
ENDROOT
BRANCH   1  47
ATOM     47  C   UNL     1     143.351 167.168 185.646  0.00  0.00    -0.062 C 
ATOM     48  H   UNL     1     142.834 166.624 186.444  0.00  0.00    +0.023 HD
ATOM     49  H   UNL     1     142.763 168.066 185.432  0.00  0.00    +0.023 HD
ATOM     50  H   UNL     1     143.349 166.539 184.749  0.00  0.00    +0.023 HD
ENDBRANCH   1  47
BRANCH  19  51
ATOM     51  C   UNL     1     150.980 170.028 192.362  0.00  0.00    -0.058 C 
ATOM     52  H   UNL     1     151.774 170.468 191.747  0.00  0.00    +0.024 HD
ATOM     53  H   UNL     1     150.773 170.729 193.175  0.00  0.00    +0.024 HD
ATOM     54  H   UNL     1     151.377 169.108 192.803  0.00  0.00    +0.024 HD
ENDBRANCH  19  51
BRANCH  21  55
ATOM     55  C   UNL     1     149.798 166.107 192.867  0.00  0.00    -0.009 C 
ATOM     56  H   UNL     1     149.203 165.465 192.204  0.00  0.00    +0.033 HD
ATOM     57  H   UNL     1     149.726 165.659 193.866  0.00  0.00    +0.033 HD
BRANCH  55  58
ATOM     58  C   UNL     1     151.238 166.059 192.406  0.00  0.00    -0.046 A 
ATOM     59  C   UNL     1     152.250 166.642 193.180  0.00  0.00    -0.059 A 
ATOM     60  C   UNL     1     153.575 166.618 192.744  0.00  0.00    -0.062 A 
ATOM     61  C   UNL     1     153.900 166.013 191.530  0.00  0.00    -0.062 A 
ATOM     62  C   UNL     1     152.900 165.433 190.753  0.00  0.00    -0.062 A 
ATOM     63  C   UNL     1     151.573 165.456 191.186  0.00  0.00    -0.059 A 
ATOM     64  H   UNL     1     152.012 167.120 194.129  0.00  0.00    +0.062 HD
ATOM     65  H   UNL     1     154.354 167.071 193.351  0.00  0.00    +0.062 HD
ATOM     66  H   UNL     1     154.932 165.995 191.192  0.00  0.00    +0.062 HD
ATOM     67  H   UNL     1     153.154 164.960 189.807  0.00  0.00    +0.062 HD
ATOM     68  H   UNL     1     150.807 164.997 190.567  0.00  0.00    +0.062 HD
ENDBRANCH  55  58
ENDBRANCH  21  55
BRANCH  16  69
ATOM     69  O   UNL     1     147.501 171.579 189.867  0.00  0.00    -0.387 OA
ATOM     70  H   UNL     1     146.598 171.907 189.723  0.00  0.00    +0.210 HD
ENDBRANCH  16  69
BRANCH   5  71
ATOM     71  O   UNL     1     147.909 162.546 187.384  0.00  0.00    -0.388 OA
ATOM     72  H   UNL     1     147.705 161.918 188.098  0.00  0.00    +0.210 HD
ENDBRANCH   5  71
TORSDOF 6
ENDMDL
MODEL 7
REMARK VINA RESULT:      -6.5      2.444      6.743
REMARK  Name = Cytochalasin B_conf2
REMARK  6 active torsions:
REMARK  status: ('A' for Active; 'I' for Inactive)
REMARK    1  A    between atoms: C_1  and  C_2
REMARK    2  A    between atoms: C_6  and  O_35
REMARK    3  A    between atoms: C_17  and  O_34
REMARK    4  A    between atoms: C_20  and  C_33
REMARK    5  A    between atoms: C_22  and  C_26
REMARK    6  A    between atoms: C_26  and  C_27
REMARK                            x       y       z     vdW  Elec       q    Type
REMARK                         _______ _______ _______ _____ _____    ______ ____
ROOT
ATOM      1  C   UNL     1     156.323 176.907 179.439  0.00  0.00    -0.040 C 
ATOM      2  C   UNL     1     155.255 175.982 180.055  0.00  0.00    -0.050 C 
ATOM      3  C   UNL     1     153.796 176.367 179.808  0.00  0.00    -0.050 C 
ATOM      4  C   UNL     1     152.796 175.204 179.946  0.00  0.00    -0.023 C 
ATOM      5  C   UNL     1     152.779 174.441 181.286  0.00  0.00    +0.074 C 
ATOM      6  C   UNL     1     154.016 173.642 181.570  0.00  0.00    -0.049 C 
ATOM      7  C   UNL     1     154.466 172.643 180.791  0.00  0.00    +0.021 C 
ATOM      8  C   UNL     1     155.808 172.043 180.905  0.00  0.00    +0.333 C 
ATOM      9  O   UNL     1     156.278 171.334 180.027  0.00  0.00    -0.246 OA
ATOM     10  O   UNL     1     156.430 172.412 182.046  0.00  0.00    -0.444 OA
ATOM     11  C   UNL     1     157.843 172.131 182.184  0.00  0.00    +0.202 C 
ATOM     12  C   UNL     1     158.718 172.914 181.159  0.00  0.00    +0.056 C 
ATOM     13  C   UNL     1     158.399 174.406 181.077  0.00  0.00    -0.078 C 
ATOM     14  C   UNL     1     158.060 175.073 179.960  0.00  0.00    -0.087 C 
ATOM     15  C   UNL     1     157.742 176.548 179.953  0.00  0.00    -0.032 C 
ATOM     16  C   UNL     1     160.227 172.693 181.463  0.00  0.00    +0.087 C 
ATOM     17  C   UNL     1     160.548 171.282 181.930  0.00  0.00    -0.045 C 
ATOM     18  C   UNL     1     161.673 171.038 182.626  0.00  0.00    -0.097 C 
ATOM     19  C   UNL     1     159.501 170.245 181.573  0.00  0.00    -0.012 C 
ATOM     20  C   UNL     1     158.135 170.590 182.229  0.00  0.00    +0.033 C 
ATOM     21  C   UNL     1     157.995 170.215 183.721  0.00  0.00    +0.035 C 
ATOM     22  N   UNL     1     158.270 171.439 184.416  0.00  0.00    -0.308 N 
ATOM     23  C   UNL     1     158.161 172.559 183.629  0.00  0.00    +0.258 C 
ATOM     24  O   UNL     1     158.277 173.692 184.068  0.00  0.00    -0.271 OA
ATOM     25  H   UNL     1     156.309 176.757 178.351  0.00  0.00    +0.030 HD
ATOM     26  H   UNL     1     155.421 174.986 179.631  0.00  0.00    +0.027 HD
ATOM     27  H   UNL     1     155.423 175.927 181.136  0.00  0.00    +0.027 HD
ATOM     28  H   UNL     1     153.692 176.769 178.793  0.00  0.00    +0.027 HD
ATOM     29  H   UNL     1     153.509 177.169 180.498  0.00  0.00    +0.027 HD
ATOM     30  H   UNL     1     152.958 174.496 179.121  0.00  0.00    +0.029 HD
ATOM     31  H   UNL     1     151.790 175.606 179.767  0.00  0.00    +0.029 HD
ATOM     32  H   UNL     1     152.608 175.142 182.111  0.00  0.00    +0.064 HD
ATOM     33  H   UNL     1     154.619 173.999 182.403  0.00  0.00    +0.060 HD
ATOM     34  H   UNL     1     153.894 172.306 179.932  0.00  0.00    +0.069 HD
ATOM     35  H   UNL     1     158.513 172.509 180.158  0.00  0.00    +0.042 HD
ATOM     36  H   UNL     1     158.468 174.963 182.010  0.00  0.00    +0.057 HD
ATOM     37  H   UNL     1     158.006 174.553 179.006  0.00  0.00    +0.057 HD
ATOM     38  H   UNL     1     158.485 177.055 179.326  0.00  0.00    +0.031 HD
ATOM     39  H   UNL     1     157.869 176.957 180.965  0.00  0.00    +0.031 HD
ATOM     40  H   UNL     1     160.565 173.414 182.218  0.00  0.00    +0.065 HD
ATOM     41  H   UNL     1     162.376 171.839 182.844  0.00  0.00    +0.054 HD
ATOM     42  H   UNL     1     161.941 170.053 182.991  0.00  0.00    +0.054 HD
ATOM     43  H   UNL     1     159.355 170.336 180.486  0.00  0.00    +0.035 HD
ATOM     44  H   UNL     1     157.386 170.019 181.671  0.00  0.00    +0.037 HD
ATOM     45  H   UNL     1     158.741 169.487 184.049  0.00  0.00    +0.051 HD
ATOM     46  H   UNL     1     158.448 171.513 185.411  0.00  0.00    +0.149 HD
ENDROOT
BRANCH   1  47
ATOM     47  C   UNL     1     156.049 178.388 179.708  0.00  0.00    -0.062 C 
ATOM     48  H   UNL     1     155.412 178.813 178.925  0.00  0.00    +0.023 HD
ATOM     49  H   UNL     1     155.530 178.531 180.661  0.00  0.00    +0.023 HD
ATOM     50  H   UNL     1     156.980 178.964 179.739  0.00  0.00    +0.023 HD
ENDBRANCH   1  47
BRANCH  19  51
ATOM     51  C   UNL     1     159.903 168.777 181.769  0.00  0.00    -0.058 C 
ATOM     52  H   UNL     1     159.046 168.190 182.120  0.00  0.00    +0.024 HD
ATOM     53  H   UNL     1     160.267 168.305 180.852  0.00  0.00    +0.024 HD
ATOM     54  H   UNL     1     160.690 168.692 182.525  0.00  0.00    +0.024 HD
ENDBRANCH  19  51
BRANCH  21  55
ATOM     55  C   UNL     1     156.582 169.685 184.044  0.00  0.00    -0.009 C 
ATOM     56  H   UNL     1     155.852 170.500 183.965  0.00  0.00    +0.033 HD
ATOM     57  H   UNL     1     156.524 169.326 185.080  0.00  0.00    +0.033 HD
BRANCH  55  58
ATOM     58  C   UNL     1     156.155 168.574 183.111  0.00  0.00    -0.046 A 
ATOM     59  C   UNL     1     155.116 168.778 182.193  0.00  0.00    -0.059 A 
ATOM     60  C   UNL     1     154.707 167.747 181.348  0.00  0.00    -0.062 A 
ATOM     61  C   UNL     1     155.330 166.501 181.414  0.00  0.00    -0.062 A 
ATOM     62  C   UNL     1     156.363 166.288 182.325  0.00  0.00    -0.062 A 
ATOM     63  C   UNL     1     156.774 167.318 183.172  0.00  0.00    -0.059 A 
ATOM     64  H   UNL     1     154.618 169.745 182.131  0.00  0.00    +0.062 HD
ATOM     65  H   UNL     1     153.902 167.915 180.638  0.00  0.00    +0.062 HD
ATOM     66  H   UNL     1     155.011 165.699 180.754  0.00  0.00    +0.062 HD
ATOM     67  H   UNL     1     156.849 165.316 182.374  0.00  0.00    +0.062 HD
ATOM     68  H   UNL     1     157.581 167.133 183.875  0.00  0.00    +0.062 HD
ENDBRANCH  55  58
ENDBRANCH  21  55
BRANCH  16  69
ATOM     69  O   UNL     1     160.996 172.939 180.283  0.00  0.00    -0.387 OA
ATOM     70  H   UNL     1     161.787 173.438 180.543  0.00  0.00    +0.210 HD
ENDBRANCH  16  69
BRANCH   5  71
ATOM     71  O   UNL     1     151.690 173.520 181.274  0.00  0.00    -0.388 OA
ATOM     72  H   UNL     1     151.879 172.862 180.583  0.00  0.00    +0.210 HD
ENDBRANCH   5  71
TORSDOF 6
ENDMDL
MODEL 8
REMARK VINA RESULT:      -6.4      2.135      7.394
REMARK  Name = Cytochalasin B_conf2
REMARK  6 active torsions:
REMARK  status: ('A' for Active; 'I' for Inactive)
REMARK    1  A    between atoms: C_1  and  C_2
REMARK    2  A    between atoms: C_6  and  O_35
REMARK    3  A    between atoms: C_17  and  O_34
REMARK    4  A    between atoms: C_20  and  C_33
REMARK    5  A    between atoms: C_22  and  C_26
REMARK    6  A    between atoms: C_26  and  C_27
REMARK                            x       y       z     vdW  Elec       q    Type
REMARK                         _______ _______ _______ _____ _____    ______ ____
ROOT
ATOM      1  C   UNL     1     153.498 176.343 179.331  0.00  0.00    -0.040 C 
ATOM      2  C   UNL     1     152.948 174.924 179.575  0.00  0.00    -0.050 C 
ATOM      3  C   UNL     1     151.600 174.595 178.932  0.00  0.00    -0.050 C 
ATOM      4  C   UNL     1     151.340 173.091 178.729  0.00  0.00    -0.023 C 
ATOM      5  C   UNL     1     151.411 172.186 179.976  0.00  0.00    +0.074 C 
ATOM      6  C   UNL     1     152.779 172.047 180.573  0.00  0.00    -0.049 C 
ATOM      7  C   UNL     1     153.843 171.548 179.918  0.00  0.00    +0.021 C 
ATOM      8  C   UNL     1     155.236 171.660 180.392  0.00  0.00    +0.333 C 
ATOM      9  O   UNL     1     156.189 171.439 179.660  0.00  0.00    -0.246 OA
ATOM     10  O   UNL     1     155.299 172.070 181.677  0.00  0.00    -0.444 OA
ATOM     11  C   UNL     1     156.580 172.486 182.207  0.00  0.00    +0.202 C 
ATOM     12  C   UNL     1     157.136 173.764 181.510  0.00  0.00    +0.056 C 
ATOM     13  C   UNL     1     156.124 174.904 181.398  0.00  0.00    -0.078 C 
ATOM     14  C   UNL     1     155.757 175.515 180.259  0.00  0.00    -0.087 C 
ATOM     15  C   UNL     1     154.737 176.627 180.219  0.00  0.00    -0.032 C 
ATOM     16  C   UNL     1     158.428 174.248 182.228  0.00  0.00    +0.087 C 
ATOM     17  C   UNL     1     159.311 173.109 182.712  0.00  0.00    -0.045 C 
ATOM     18  C   UNL     1     160.208 173.316 183.693  0.00  0.00    -0.097 C 
ATOM     19  C   UNL     1     159.060 171.779 182.027  0.00  0.00    -0.012 C 
ATOM     20  C   UNL     1     157.603 171.298 182.273  0.00  0.00    +0.033 C 
ATOM     21  C   UNL     1     157.339 170.638 183.645  0.00  0.00    +0.035 C 
ATOM     22  N   UNL     1     156.778 171.694 184.437  0.00  0.00    -0.308 N 
ATOM     23  C   UNL     1     156.293 172.744 183.698  0.00  0.00    +0.258 C 
ATOM     24  O   UNL     1     155.707 173.691 184.196  0.00  0.00    -0.271 OA
ATOM     25  H   UNL     1     153.812 176.405 178.280  0.00  0.00    +0.030 HD
ATOM     26  H   UNL     1     153.694 174.227 179.178  0.00  0.00    +0.027 HD
ATOM     27  H   UNL     1     152.868 174.761 180.656  0.00  0.00    +0.027 HD
ATOM     28  H   UNL     1     151.540 175.073 177.947  0.00  0.00    +0.027 HD
ATOM     29  H   UNL     1     150.794 175.019 179.541  0.00  0.00    +0.027 HD
ATOM     30  H   UNL     1     152.026 172.712 177.959  0.00  0.00    +0.029 HD
ATOM     31  H   UNL     1     150.342 172.983 178.283  0.00  0.00    +0.029 HD
ATOM     32  H   UNL     1     150.721 172.555 180.743  0.00  0.00    +0.064 HD
ATOM     33  H   UNL     1     152.905 172.492 181.558  0.00  0.00    +0.060 HD
ATOM     34  H   UNL     1     153.740 171.139 178.918  0.00  0.00    +0.069 HD
ATOM     35  H   UNL     1     157.403 173.500 180.478  0.00  0.00    +0.042 HD
ATOM     36  H   UNL     1     155.681 175.246 182.333  0.00  0.00    +0.057 HD
ATOM     37  H   UNL     1     156.198 175.216 179.310  0.00  0.00    +0.057 HD
ATOM     38  H   UNL     1     155.235 177.534 179.854  0.00  0.00    +0.031 HD
ATOM     39  H   UNL     1     154.401 176.855 181.240  0.00  0.00    +0.031 HD
ATOM     40  H   UNL     1     158.164 174.892 183.077  0.00  0.00    +0.065 HD
ATOM     41  H   UNL     1     160.328 174.302 184.136  0.00  0.00    +0.054 HD
ATOM     42  H   UNL     1     160.852 172.535 184.081  0.00  0.00    +0.054 HD
ATOM     43  H   UNL     1     159.141 171.985 180.948  0.00  0.00    +0.035 HD
ATOM     44  H   UNL     1     157.405 170.548 181.500  0.00  0.00    +0.037 HD
ATOM     45  H   UNL     1     158.254 170.315 184.145  0.00  0.00    +0.051 HD
ATOM     46  H   UNL     1     156.660 171.663 185.444  0.00  0.00    +0.149 HD
ENDROOT
BRANCH   1  47
ATOM     47  C   UNL     1     152.448 177.432 179.568  0.00  0.00    -0.062 C 
ATOM     48  H   UNL     1     152.087 177.405 180.602  0.00  0.00    +0.023 HD
ATOM     49  H   UNL     1     152.863 178.430 179.396  0.00  0.00    +0.023 HD
ATOM     50  H   UNL     1     151.587 177.303 178.904  0.00  0.00    +0.023 HD
ENDBRANCH   1  47
BRANCH  19  51
ATOM     51  C   UNL     1     160.102 170.679 182.272  0.00  0.00    -0.058 C 
ATOM     52  H   UNL     1     160.536 170.347 181.322  0.00  0.00    +0.024 HD
ATOM     53  H   UNL     1     160.927 171.004 182.911  0.00  0.00    +0.024 HD
ATOM     54  H   UNL     1     159.635 169.808 182.742  0.00  0.00    +0.024 HD
ENDBRANCH  19  51
BRANCH  21  55
ATOM     55  C   UNL     1     156.369 169.444 183.525  0.00  0.00    -0.009 C 
ATOM     56  H   UNL     1     156.375 169.061 182.496  0.00  0.00    +0.033 HD
ATOM     57  H   UNL     1     155.336 169.755 183.726  0.00  0.00    +0.033 HD
BRANCH  55  58
ATOM     58  C   UNL     1     156.734 168.308 184.454  0.00  0.00    -0.046 A 
ATOM     59  C   UNL     1     155.733 167.580 185.112  0.00  0.00    -0.059 A 
ATOM     60  C   UNL     1     156.070 166.547 185.987  0.00  0.00    -0.062 A 
ATOM     61  C   UNL     1     157.410 166.235 186.215  0.00  0.00    -0.062 A 
ATOM     62  C   UNL     1     158.412 166.955 185.568  0.00  0.00    -0.062 A 
ATOM     63  C   UNL     1     158.078 167.989 184.693  0.00  0.00    -0.059 A 
ATOM     64  H   UNL     1     154.683 167.813 184.946  0.00  0.00    +0.062 HD
ATOM     65  H   UNL     1     155.288 165.986 186.491  0.00  0.00    +0.062 HD
ATOM     66  H   UNL     1     157.671 165.430 186.897  0.00  0.00    +0.062 HD
ATOM     67  H   UNL     1     159.457 166.709 185.746  0.00  0.00    +0.062 HD
ATOM     68  H   UNL     1     158.873 168.539 184.196  0.00  0.00    +0.062 HD
ENDBRANCH  55  58
ENDBRANCH  21  55
BRANCH  16  69
ATOM     69  O   UNL     1     159.207 175.044 181.332  0.00  0.00    -0.387 OA
ATOM     70  H   UNL     1     158.598 175.465 180.704  0.00  0.00    +0.210 HD
ENDBRANCH  16  69
BRANCH   5  71
ATOM     71  O   UNL     1     150.987 170.873 179.613  0.00  0.00    -0.388 OA
ATOM     72  H   UNL     1     151.647 170.520 178.993  0.00  0.00    +0.210 HD
ENDBRANCH   5  71
TORSDOF 6
ENDMDL
MODEL 9
REMARK VINA RESULT:      -6.3     12.938     15.303
REMARK  Name = Cytochalasin B_conf2
REMARK  6 active torsions:
REMARK  status: ('A' for Active; 'I' for Inactive)
REMARK    1  A    between atoms: C_1  and  C_2
REMARK    2  A    between atoms: C_6  and  O_35
REMARK    3  A    between atoms: C_17  and  O_34
REMARK    4  A    between atoms: C_20  and  C_33
REMARK    5  A    between atoms: C_22  and  C_26
REMARK    6  A    between atoms: C_26  and  C_27
REMARK                            x       y       z     vdW  Elec       q    Type
REMARK                         _______ _______ _______ _____ _____    ______ ____
ROOT
ATOM      1  C   UNL     1     149.067 167.588 190.232  0.00  0.00    -0.040 C 
ATOM      2  C   UNL     1     148.977 168.905 191.027  0.00  0.00    -0.050 C 
ATOM      3  C   UNL     1     150.239 169.336 191.776  0.00  0.00    -0.050 C 
ATOM      4  C   UNL     1     150.310 170.842 192.093  0.00  0.00    -0.023 C 
ATOM      5  C   UNL     1     149.147 171.450 192.902  0.00  0.00    +0.074 C 
ATOM      6  C   UNL     1     147.832 171.485 192.182  0.00  0.00    -0.049 C 
ATOM      7  C   UNL     1     147.620 172.141 191.027  0.00  0.00    +0.021 C 
ATOM      8  C   UNL     1     146.429 171.959 190.177  0.00  0.00    +0.333 C 
ATOM      9  O   UNL     1     146.389 172.359 189.023  0.00  0.00    -0.246 OA
ATOM     10  O   UNL     1     145.454 171.277 190.815  0.00  0.00    -0.444 OA
ATOM     11  C   UNL     1     144.335 170.784 190.041  0.00  0.00    +0.202 C 
ATOM     12  C   UNL     1     144.752 169.705 188.996  0.00  0.00    +0.056 C 
ATOM     13  C   UNL     1     145.634 168.595 189.565  0.00  0.00    -0.078 C 
ATOM     14  C   UNL     1     146.845 168.243 189.098  0.00  0.00    -0.087 C 
ATOM     15  C   UNL     1     147.672 167.144 189.720  0.00  0.00    -0.032 C 
ATOM     16  C   UNL     1     143.490 169.105 188.313  0.00  0.00    +0.087 C 
ATOM     17  C   UNL     1     142.394 170.129 188.064  0.00  0.00    -0.045 C 
ATOM     18  C   UNL     1     141.121 169.731 187.892  0.00  0.00    -0.097 C 
ATOM     19  C   UNL     1     142.864 171.571 188.066  0.00  0.00    -0.012 C 
ATOM     20  C   UNL     1     143.473 171.952 189.444  0.00  0.00    +0.033 C 
ATOM     21  C   UNL     1     142.454 172.285 190.557  0.00  0.00    +0.035 C 
ATOM     22  N   UNL     1     142.345 171.068 191.306  0.00  0.00    -0.308 N 
ATOM     23  C   UNL     1     143.386 170.197 191.101  0.00  0.00    +0.258 C 
ATOM     24  O   UNL     1     143.505 169.149 191.717  0.00  0.00    -0.271 OA
ATOM     25  H   UNL     1     149.708 167.767 189.358  0.00  0.00    +0.030 HD
ATOM     26  H   UNL     1     148.724 169.689 190.307  0.00  0.00    +0.027 HD
ATOM     27  H   UNL     1     148.156 168.822 191.748  0.00  0.00    +0.027 HD
ATOM     28  H   UNL     1     151.122 169.086 191.176  0.00  0.00    +0.027 HD
ATOM     29  H   UNL     1     150.319 168.769 192.711  0.00  0.00    +0.027 HD
ATOM     30  H   UNL     1     150.436 171.397 191.154  0.00  0.00    +0.029 HD
ATOM     31  H   UNL     1     151.243 171.022 192.644  0.00  0.00    +0.029 HD
ATOM     32  H   UNL     1     149.024 170.904 193.845  0.00  0.00    +0.064 HD
ATOM     33  H   UNL     1     147.060 170.836 192.590  0.00  0.00    +0.060 HD
ATOM     34  H   UNL     1     148.397 172.758 190.587  0.00  0.00    +0.069 HD
ATOM     35  H   UNL     1     145.353 170.198 188.220  0.00  0.00    +0.042 HD
ATOM     36  H   UNL     1     145.227 168.045 190.412  0.00  0.00    +0.057 HD
ATOM     37  H   UNL     1     147.271 168.755 188.238  0.00  0.00    +0.057 HD
ATOM     38  H   UNL     1     147.804 166.352 188.971  0.00  0.00    +0.031 HD
ATOM     39  H   UNL     1     147.115 166.688 190.550  0.00  0.00    +0.031 HD
ATOM     40  H   UNL     1     143.091 168.283 188.921  0.00  0.00    +0.065 HD
ATOM     41  H   UNL     1     140.863 168.674 187.906  0.00  0.00    +0.054 HD
ATOM     42  H   UNL     1     140.302 170.422 187.723  0.00  0.00    +0.054 HD
ATOM     43  H   UNL     1     143.690 171.611 187.340  0.00  0.00    +0.035 HD
ATOM     44  H   UNL     1     144.074 172.849 189.264  0.00  0.00    +0.037 HD
ATOM     45  H   UNL     1     141.458 172.511 190.169  0.00  0.00    +0.051 HD
ATOM     46  H   UNL     1     141.625 170.872 191.993  0.00  0.00    +0.149 HD
ENDROOT
BRANCH   1  47
ATOM     47  C   UNL     1     149.693 166.450 191.041  0.00  0.00    -0.062 C 
ATOM     48  H   UNL     1     150.351 166.845 191.823  0.00  0.00    +0.023 HD
ATOM     49  H   UNL     1     148.927 165.846 191.539  0.00  0.00    +0.023 HD
ATOM     50  H   UNL     1     150.285 165.787 190.401  0.00  0.00    +0.023 HD
ENDBRANCH   1  47
BRANCH  19  51
ATOM     51  C   UNL     1     141.865 172.613 187.546  0.00  0.00    -0.058 C 
ATOM     52  H   UNL     1     142.124 172.913 186.524  0.00  0.00    +0.024 HD
ATOM     53  H   UNL     1     140.834 172.249 187.526  0.00  0.00    +0.024 HD
ATOM     54  H   UNL     1     141.892 173.514 188.169  0.00  0.00    +0.024 HD
ENDBRANCH  19  51
BRANCH  21  55
ATOM     55  C   UNL     1     142.939 173.454 191.441  0.00  0.00    -0.009 C 
ATOM     56  H   UNL     1     143.083 174.351 190.826  0.00  0.00    +0.033 HD
ATOM     57  H   UNL     1     143.917 173.231 191.885  0.00  0.00    +0.033 HD
BRANCH  55  58
ATOM     58  C   UNL     1     141.959 173.788 192.544  0.00  0.00    -0.046 A 
ATOM     59  C   UNL     1     142.223 174.837 193.434  0.00  0.00    -0.059 A 
ATOM     60  C   UNL     1     141.331 175.131 194.465  0.00  0.00    -0.062 A 
ATOM     61  C   UNL     1     140.168 174.377 194.618  0.00  0.00    -0.062 A 
ATOM     62  C   UNL     1     139.898 173.330 193.739  0.00  0.00    -0.062 A 
ATOM     63  C   UNL     1     140.789 173.034 192.707  0.00  0.00    -0.059 A 
ATOM     64  H   UNL     1     143.129 175.433 193.329  0.00  0.00    +0.062 HD
ATOM     65  H   UNL     1     141.543 175.948 195.150  0.00  0.00    +0.062 HD
ATOM     66  H   UNL     1     139.474 174.608 195.421  0.00  0.00    +0.062 HD
ATOM     67  H   UNL     1     138.989 172.744 193.858  0.00  0.00    +0.062 HD
ATOM     68  H   UNL     1     140.561 172.214 192.031  0.00  0.00    +0.062 HD
ENDBRANCH  55  58
ENDBRANCH  21  55
BRANCH  16  69
ATOM     69  O   UNL     1     143.849 168.545 187.047  0.00  0.00    -0.387 OA
ATOM     70  H   UNL     1     143.642 169.203 186.363  0.00  0.00    +0.210 HD
ENDBRANCH  16  69
BRANCH   5  71
ATOM     71  O   UNL     1     149.473 172.800 193.228  0.00  0.00    -0.388 OA
ATOM     72  H   UNL     1     150.288 172.778 193.757  0.00  0.00    +0.210 HD
ENDBRANCH   5  71
TORSDOF 6
ENDMDL
MODEL 10
REMARK VINA RESULT:      -6.3      4.219      9.608
REMARK  Name = Cytochalasin B_conf2
REMARK  6 active torsions:
REMARK  status: ('A' for Active; 'I' for Inactive)
REMARK    1  A    between atoms: C_1  and  C_2
REMARK    2  A    between atoms: C_6  and  O_35
REMARK    3  A    between atoms: C_17  and  O_34
REMARK    4  A    between atoms: C_20  and  C_33
REMARK    5  A    between atoms: C_22  and  C_26
REMARK    6  A    between atoms: C_26  and  C_27
REMARK                            x       y       z     vdW  Elec       q    Type
REMARK                         _______ _______ _______ _____ _____    ______ ____
ROOT
ATOM      1  C   UNL     1     157.153 173.294 183.930  0.00  0.00    -0.040 C 
ATOM      2  C   UNL     1     158.505 172.696 183.493  0.00  0.00    -0.050 C 
ATOM      3  C   UNL     1     159.582 173.691 183.059  0.00  0.00    -0.050 C 
ATOM      4  C   UNL     1     161.022 173.153 183.150  0.00  0.00    -0.023 C 
ATOM      5  C   UNL     1     161.346 171.861 182.372  0.00  0.00    +0.074 C 
ATOM      6  C   UNL     1     160.667 170.629 182.892  0.00  0.00    -0.049 C 
ATOM      7  C   UNL     1     160.828 170.145 184.136  0.00  0.00    +0.021 C 
ATOM      8  C   UNL     1     159.968 169.111 184.742  0.00  0.00    +0.333 C 
ATOM      9  O   UNL     1     159.971 168.888 185.943  0.00  0.00    -0.246 OA
ATOM     10  O   UNL     1     159.181 168.510 183.823  0.00  0.00    -0.444 OA
ATOM     11  C   UNL     1     158.098 167.669 184.286  0.00  0.00    +0.202 C 
ATOM     12  C   UNL     1     157.008 168.464 185.067  0.00  0.00    +0.056 C 
ATOM     13  C   UNL     1     156.535 169.733 184.359  0.00  0.00    -0.078 C 
ATOM     14  C   UNL     1     156.553 170.972 184.880  0.00  0.00    -0.087 C 
ATOM     15  C   UNL     1     156.083 172.187 184.117  0.00  0.00    -0.032 C 
ATOM     16  C   UNL     1     155.801 167.539 185.396  0.00  0.00    +0.087 C 
ATOM     17  C   UNL     1     156.210 166.117 185.746  0.00  0.00    -0.045 C 
ATOM     18  C   UNL     1     155.325 165.111 185.636  0.00  0.00    -0.097 C 
ATOM     19  C   UNL     1     157.656 165.963 186.177  0.00  0.00    -0.012 C 
ATOM     20  C   UNL     1     158.621 166.395 185.039  0.00  0.00    +0.033 C 
ATOM     21  C   UNL     1     158.846 165.353 183.920  0.00  0.00    +0.035 C 
ATOM     22  N   UNL     1     157.952 165.764 182.877  0.00  0.00    -0.308 N 
ATOM     23  C   UNL     1     157.526 167.063 182.992  0.00  0.00    +0.258 C 
ATOM     24  O   UNL     1     156.829 167.609 182.151  0.00  0.00    -0.271 OA
ATOM     25  H   UNL     1     157.304 173.788 184.900  0.00  0.00    +0.030 HD
ATOM     26  H   UNL     1     158.889 172.131 184.349  0.00  0.00    +0.027 HD
ATOM     27  H   UNL     1     158.327 171.994 182.671  0.00  0.00    +0.027 HD
ATOM     28  H   UNL     1     159.527 174.586 183.689  0.00  0.00    +0.027 HD
ATOM     29  H   UNL     1     159.385 174.014 182.030  0.00  0.00    +0.027 HD
ATOM     30  H   UNL     1     161.287 173.023 184.208  0.00  0.00    +0.029 HD
ATOM     31  H   UNL     1     161.696 173.945 182.795  0.00  0.00    +0.029 HD
ATOM     32  H   UNL     1     161.092 171.991 181.314  0.00  0.00    +0.064 HD
ATOM     33  H   UNL     1     159.920 170.195 182.230  0.00  0.00    +0.060 HD
ATOM     34  H   UNL     1     161.540 170.595 184.821  0.00  0.00    +0.069 HD
ATOM     35  H   UNL     1     157.446 168.798 186.018  0.00  0.00    +0.042 HD
ATOM     36  H   UNL     1     156.140 169.602 183.352  0.00  0.00    +0.057 HD
ATOM     37  H   UNL     1     156.916 171.136 185.892  0.00  0.00    +0.057 HD
ATOM     38  H   UNL     1     155.223 172.612 184.649  0.00  0.00    +0.031 HD
ATOM     39  H   UNL     1     155.710 171.881 183.130  0.00  0.00    +0.031 HD
ATOM     40  H   UNL     1     155.104 167.521 184.549  0.00  0.00    +0.065 HD
ATOM     41  H   UNL     1     154.303 165.303 185.318  0.00  0.00    +0.054 HD
ATOM     42  H   UNL     1     155.570 164.079 185.863  0.00  0.00    +0.054 HD
ATOM     43  H   UNL     1     157.797 166.687 186.995  0.00  0.00    +0.035 HD
ATOM     44  H   UNL     1     159.587 166.578 185.522  0.00  0.00    +0.037 HD
ATOM     45  H   UNL     1     158.552 164.343 184.214  0.00  0.00    +0.051 HD
ATOM     46  H   UNL     1     157.704 165.200 182.071  0.00  0.00    +0.149 HD
ENDROOT
BRANCH   1  47
ATOM     47  C   UNL     1     156.627 174.344 182.950  0.00  0.00    -0.062 C 
ATOM     48  H   UNL     1     156.512 175.314 183.444  0.00  0.00    +0.023 HD
ATOM     49  H   UNL     1     157.315 174.487 182.111  0.00  0.00    +0.023 HD
ATOM     50  H   UNL     1     155.652 174.052 182.543  0.00  0.00    +0.023 HD
ENDBRANCH   1  47
BRANCH  19  51
ATOM     51  C   UNL     1     158.040 164.617 186.806  0.00  0.00    -0.058 C 
ATOM     52  H   UNL     1     158.979 164.710 187.364  0.00  0.00    +0.024 HD
ATOM     53  H   UNL     1     157.285 164.236 187.500  0.00  0.00    +0.024 HD
ATOM     54  H   UNL     1     158.194 163.861 186.029  0.00  0.00    +0.024 HD
ENDBRANCH  19  51
BRANCH  21  55
ATOM     55  C   UNL     1     160.313 165.343 183.439  0.00  0.00    -0.009 C 
ATOM     56  H   UNL     1     160.530 166.267 182.888  0.00  0.00    +0.033 HD
ATOM     57  H   UNL     1     160.489 164.521 182.733  0.00  0.00    +0.033 HD
BRANCH  55  58
ATOM     58  C   UNL     1     161.295 165.232 184.583  0.00  0.00    -0.046 A 
ATOM     59  C   UNL     1     161.322 164.084 185.387  0.00  0.00    -0.059 A 
ATOM     60  C   UNL     1     162.212 163.991 186.456  0.00  0.00    -0.062 A 
ATOM     61  C   UNL     1     163.082 165.044 186.735  0.00  0.00    -0.062 A 
ATOM     62  C   UNL     1     163.061 166.191 185.943  0.00  0.00    -0.062 A 
ATOM     63  C   UNL     1     162.171 166.287 184.872  0.00  0.00    -0.059 A 
ATOM     64  H   UNL     1     160.647 163.254 185.184  0.00  0.00    +0.062 HD
ATOM     65  H   UNL     1     162.227 163.096 187.073  0.00  0.00    +0.062 HD
ATOM     66  H   UNL     1     163.775 164.970 187.568  0.00  0.00    +0.062 HD
ATOM     67  H   UNL     1     163.741 167.012 186.160  0.00  0.00    +0.062 HD
ATOM     68  H   UNL     1     162.170 167.188 184.265  0.00  0.00    +0.062 HD
ENDBRANCH  55  58
ENDBRANCH  21  55
BRANCH  16  69
ATOM     69  O   UNL     1     155.082 168.066 186.513  0.00  0.00    -0.387 OA
ATOM     70  H   UNL     1     155.124 169.035 186.463  0.00  0.00    +0.210 HD
ENDBRANCH  16  69
BRANCH   5  71
ATOM     71  O   UNL     1     162.750 171.620 182.451  0.00  0.00    -0.388 OA
ATOM     72  H   UNL     1     163.071 171.501 181.541  0.00  0.00    +0.210 HD
ENDBRANCH   5  71
TORSDOF 6
ENDMDL
