MODEL 1
REMARK VINA RESULT:      -6.9      0.000      0.000
REMARK  Name = Cytochalasin B_conf1
REMARK  6 active torsions:
REMARK  status: ('A' for Active; 'I' for Inactive)
REMARK    1  A    between atoms: C_1  and  C_2
REMARK    2  A    between atoms: C_6  and  O_35
REMARK    3  A    between atoms: C_17  and  O_34
REMARK    4  A    between atoms: C_20  and  C_33
REMARK    5  A    between atoms: C_22  and  C_26
REMARK    6  A    between atoms: C_26  and  C_27
REMARK                            x       y       z     vdW  Elec       q    Type
REMARK                         _______ _______ _______ _____ _____    ______ ____
ROOT
ATOM      1  C   UNL     1     160.539 171.165 182.595  0.00  0.00    -0.040 C 
ATOM      2  C   UNL     1     159.425 170.213 182.101  0.00  0.00    -0.050 C 
ATOM      3  C   UNL     1     158.971 169.123 183.087  0.00  0.00    -0.050 C 
ATOM      4  C   UNL     1     158.473 169.590 184.462  0.00  0.00    -0.023 C 
ATOM      5  C   UNL     1     157.012 170.069 184.530  0.00  0.00    +0.074 C 
ATOM      6  C   UNL     1     156.715 171.229 183.632  0.00  0.00    -0.049 C 
ATOM      7  C   UNL     1     156.730 172.523 183.990  0.00  0.00    +0.021 C 
ATOM      8  C   UNL     1     156.567 173.642 183.041  0.00  0.00    +0.333 C 
ATOM      9  O   UNL     1     156.715 174.808 183.374  0.00  0.00    -0.246 OA
ATOM     10  O   UNL     1     156.284 173.197 181.797  0.00  0.00    -0.444 OA
ATOM     11  C   UNL     1     156.400 174.117 180.684  0.00  0.00    +0.202 C 
ATOM     12  C   UNL     1     157.848 174.637 180.482  0.00  0.00    +0.056 C 
ATOM     13  C   UNL     1     158.907 173.535 180.505  0.00  0.00    -0.078 C 
ATOM     14  C   UNL     1     159.762 173.336 181.522  0.00  0.00    -0.087 C 
ATOM     15  C   UNL     1     160.822 172.267 181.548  0.00  0.00    -0.032 C 
ATOM     16  C   UNL     1     157.951 175.484 179.182  0.00  0.00    +0.087 C 
ATOM     17  C   UNL     1     156.678 176.250 178.862  0.00  0.00    -0.045 C 
ATOM     18  C   UNL     1     156.355 176.559 177.595  0.00  0.00    -0.097 C 
ATOM     19  C   UNL     1     155.828 176.560 180.081  0.00  0.00    -0.012 C 
ATOM     20  C   UNL     1     155.314 175.245 180.735  0.00  0.00    +0.033 C 
ATOM     21  C   UNL     1     154.079 174.601 180.065  0.00  0.00    +0.035 C 
ATOM     22  N   UNL     1     154.635 173.618 179.180  0.00  0.00    -0.308 N 
ATOM     23  C   UNL     1     155.934 173.280 179.479  0.00  0.00    +0.258 C 
ATOM     24  O   UNL     1     156.561 172.429 178.869  0.00  0.00    -0.271 OA
ATOM     25  H   UNL     1     160.220 171.652 183.523  0.00  0.00    +0.030 HD
ATOM     26  H   UNL     1     159.776 169.705 181.192  0.00  0.00    +0.027 HD
ATOM     27  H   UNL     1     158.558 170.795 181.781  0.00  0.00    +0.027 HD
ATOM     28  H   UNL     1     158.190 168.520 182.608  0.00  0.00    +0.027 HD
ATOM     29  H   UNL     1     159.812 168.437 183.248  0.00  0.00    +0.027 HD
ATOM     30  H   UNL     1     159.140 170.346 184.890  0.00  0.00    +0.029 HD
ATOM     31  H   UNL     1     158.560 168.736 185.149  0.00  0.00    +0.029 HD
ATOM     32  H   UNL     1     156.334 169.248 184.274  0.00  0.00    +0.064 HD
ATOM     33  H   UNL     1     156.509 170.959 182.598  0.00  0.00    +0.060 HD
ATOM     34  H   UNL     1     156.947 172.823 185.010  0.00  0.00    +0.069 HD
ATOM     35  H   UNL     1     158.086 175.302 181.325  0.00  0.00    +0.042 HD
ATOM     36  H   UNL     1     158.952 172.878 179.637  0.00  0.00    +0.057 HD
ATOM     37  H   UNL     1     159.722 173.990 182.392  0.00  0.00    +0.057 HD
ATOM     38  H   UNL     1     161.770 172.767 181.783  0.00  0.00    +0.031 HD
ATOM     39  H   UNL     1     160.950 171.819 180.554  0.00  0.00    +0.031 HD
ATOM     40  H   UNL     1     158.228 174.846 178.333  0.00  0.00    +0.065 HD
ATOM     41  H   UNL     1     155.443 177.085 177.333  0.00  0.00    +0.054 HD
ATOM     42  H   UNL     1     157.001 176.282 176.765  0.00  0.00    +0.054 HD
ATOM     43  H   UNL     1     156.514 177.020 180.810  0.00  0.00    +0.035 HD
ATOM     44  H   UNL     1     155.046 175.504 181.766  0.00  0.00    +0.037 HD
ATOM     45  H   UNL     1     153.515 175.306 179.449  0.00  0.00    +0.051 HD
ATOM     46  H   UNL     1     154.131 173.156 178.433  0.00  0.00    +0.149 HD
ENDROOT
BRANCH   1  47
ATOM     47  C   UNL     1     161.831 170.395 182.887  0.00  0.00    -0.062 C 
ATOM     48  H   UNL     1     162.576 170.556 182.101  0.00  0.00    +0.023 HD
ATOM     49  H   UNL     1     161.644 169.320 182.968  0.00  0.00    +0.023 HD
ATOM     50  H   UNL     1     162.268 170.718 183.838  0.00  0.00    +0.023 HD
ENDBRANCH   1  47
BRANCH  19  51
ATOM     51  C   UNL     1     154.727 177.611 179.894  0.00  0.00    -0.058 C 
ATOM     52  H   UNL     1     155.128 178.618 180.061  0.00  0.00    +0.024 HD
ATOM     53  H   UNL     1     154.286 177.600 178.894  0.00  0.00    +0.024 HD
ATOM     54  H   UNL     1     153.921 177.455 180.619  0.00  0.00    +0.024 HD
ENDBRANCH  19  51
BRANCH  21  55
ATOM     55  C   UNL     1     153.131 173.961 181.102  0.00  0.00    -0.009 C 
ATOM     56  H   UNL     1     153.163 172.866 181.045  0.00  0.00    +0.033 HD
ATOM     57  H   UNL     1     153.460 174.221 182.117  0.00  0.00    +0.033 HD
BRANCH  55  58
ATOM     58  C   UNL     1     151.700 174.420 180.935  0.00  0.00    -0.046 A 
ATOM     59  C   UNL     1     151.333 175.221 179.845  0.00  0.00    -0.059 A 
ATOM     60  C   UNL     1     150.007 175.625 179.681  0.00  0.00    -0.062 A 
ATOM     61  C   UNL     1     149.037 175.229 180.600  0.00  0.00    -0.062 A 
ATOM     62  C   UNL     1     149.391 174.430 181.685  0.00  0.00    -0.062 A 
ATOM     63  C   UNL     1     150.717 174.026 181.853  0.00  0.00    -0.059 A 
ATOM     64  H   UNL     1     152.077 175.539 179.118  0.00  0.00    +0.062 HD
ATOM     65  H   UNL     1     149.730 176.249 178.835  0.00  0.00    +0.062 HD
ATOM     66  H   UNL     1     148.006 175.545 180.472  0.00  0.00    +0.062 HD
ATOM     67  H   UNL     1     148.636 174.122 182.404  0.00  0.00    +0.062 HD
ATOM     68  H   UNL     1     150.978 173.400 182.703  0.00  0.00    +0.062 HD
ENDBRANCH  55  58
ENDBRANCH  21  55
BRANCH  16  69
ATOM     69  O   UNL     1     158.992 176.449 179.347  0.00  0.00    -0.387 OA
ATOM     70  H   UNL     1     158.729 177.238 178.844  0.00  0.00    +0.210 HD
ENDBRANCH  16  69
BRANCH   5  71
ATOM     71  O   UNL     1     156.725 170.446 185.875  0.00  0.00    -0.388 OA
ATOM     72  H   UNL     1     157.495 170.196 186.414  0.00  0.00    +0.210 HD
ENDBRANCH   5  71
TORSDOF 6
ENDMDL
MODEL 2
REMARK VINA RESULT:      -6.9      1.439      2.098
REMARK  Name = Cytochalasin B_conf1
REMARK  6 active torsions:
REMARK  status: ('A' for Active; 'I' for Inactive)
REMARK    1  A    between atoms: C_1  and  C_2
REMARK    2  A    between atoms: C_6  and  O_35
REMARK    3  A    between atoms: C_17  and  O_34
REMARK    4  A    between atoms: C_20  and  C_33
REMARK    5  A    between atoms: C_22  and  C_26
REMARK    6  A    between atoms: C_26  and  C_27
REMARK                            x       y       z     vdW  Elec       q    Type
REMARK                         _______ _______ _______ _____ _____    ______ ____
ROOT
ATOM      1  C   UNL     1     160.681 171.428 182.939  0.00  0.00    -0.040 C 
ATOM      2  C   UNL     1     159.667 170.416 182.357  0.00  0.00    -0.050 C 
ATOM      3  C   UNL     1     159.222 169.280 183.295  0.00  0.00    -0.050 C 
ATOM      4  C   UNL     1     158.603 169.688 184.639  0.00  0.00    -0.023 C 
ATOM      5  C   UNL     1     157.113 170.070 184.615  0.00  0.00    +0.074 C 
ATOM      6  C   UNL     1     156.801 171.225 183.716  0.00  0.00    -0.049 C 
ATOM      7  C   UNL     1     156.706 172.511 184.092  0.00  0.00    +0.021 C 
ATOM      8  C   UNL     1     156.534 173.634 183.150  0.00  0.00    +0.333 C 
ATOM      9  O   UNL     1     156.582 174.801 183.509  0.00  0.00    -0.246 OA
ATOM     10  O   UNL     1     156.364 173.195 181.884  0.00  0.00    -0.444 OA
ATOM     11  C   UNL     1     156.493 174.141 180.794  0.00  0.00    +0.202 C 
ATOM     12  C   UNL     1     157.914 174.758 180.699  0.00  0.00    +0.056 C 
ATOM     13  C   UNL     1     159.039 173.727 180.777  0.00  0.00    -0.078 C 
ATOM     14  C   UNL     1     159.836 173.564 181.847  0.00  0.00    -0.087 C 
ATOM     15  C   UNL     1     160.960 172.566 181.930  0.00  0.00    -0.032 C 
ATOM     16  C   UNL     1     158.047 175.634 179.421  0.00  0.00    +0.087 C 
ATOM     17  C   UNL     1     156.751 176.322 179.027  0.00  0.00    -0.045 C 
ATOM     18  C   UNL     1     156.494 176.633 177.745  0.00  0.00    -0.097 C 
ATOM     19  C   UNL     1     155.803 176.553 180.190  0.00  0.00    -0.012 C 
ATOM     20  C   UNL     1     155.334 175.195 180.789  0.00  0.00    +0.033 C 
ATOM     21  C   UNL     1     154.192 174.486 180.027  0.00  0.00    +0.035 C 
ATOM     22  N   UNL     1     154.870 173.557 179.168  0.00  0.00    -0.308 N 
ATOM     23  C   UNL     1     156.165 173.299 179.549  0.00  0.00    +0.258 C 
ATOM     24  O   UNL     1     156.885 172.501 178.971  0.00  0.00    -0.271 OA
ATOM     25  H   UNL     1     160.269 171.877 183.850  0.00  0.00    +0.030 HD
ATOM     26  H   UNL     1     160.112 169.949 181.467  0.00  0.00    +0.027 HD
ATOM     27  H   UNL     1     158.787 170.946 181.987  0.00  0.00    +0.027 HD
ATOM     28  H   UNL     1     158.516 168.637 182.756  0.00  0.00    +0.027 HD
ATOM     29  H   UNL     1     160.094 168.647 183.502  0.00  0.00    +0.027 HD
ATOM     30  H   UNL     1     159.189 170.478 185.122  0.00  0.00    +0.029 HD
ATOM     31  H   UNL     1     158.701 168.829 185.318  0.00  0.00    +0.029 HD
ATOM     32  H   UNL     1     156.509 169.212 184.302  0.00  0.00    +0.064 HD
ATOM     33  H   UNL     1     156.682 170.961 182.666  0.00  0.00    +0.060 HD
ATOM     34  H   UNL     1     156.835 172.804 185.129  0.00  0.00    +0.069 HD
ATOM     35  H   UNL     1     158.051 175.421 181.565  0.00  0.00    +0.042 HD
ATOM     36  H   UNL     1     159.186 173.090 179.906  0.00  0.00    +0.057 HD
ATOM     37  H   UNL     1     159.695 174.197 182.722  0.00  0.00    +0.057 HD
ATOM     38  H   UNL     1     161.856 173.122 182.235  0.00  0.00    +0.031 HD
ATOM     39  H   UNL     1     161.183 172.146 180.941  0.00  0.00    +0.031 HD
ATOM     40  H   UNL     1     158.421 175.032 178.584  0.00  0.00    +0.065 HD
ATOM     41  H   UNL     1     155.568 177.103 177.429  0.00  0.00    +0.054 HD
ATOM     42  H   UNL     1     157.210 176.414 176.957  0.00  0.00    +0.054 HD
ATOM     43  H   UNL     1     156.407 177.043 180.969  0.00  0.00    +0.035 HD
ATOM     44  H   UNL     1     154.982 175.417 181.802  0.00  0.00    +0.037 HD
ATOM     45  H   UNL     1     153.625 175.163 179.385  0.00  0.00    +0.051 HD
ATOM     46  H   UNL     1     154.447 173.078 178.382  0.00  0.00    +0.149 HD
ENDROOT
BRANCH   1  47
ATOM     47  C   UNL     1     161.999 170.739 183.307  0.00  0.00    -0.062 C 
ATOM     48  H   UNL     1     162.732 171.459 183.683  0.00  0.00    +0.023 HD
ATOM     49  H   UNL     1     162.433 170.225 182.445  0.00  0.00    +0.023 HD
ATOM     50  H   UNL     1     161.838 169.984 184.084  0.00  0.00    +0.023 HD
ENDBRANCH   1  47
BRANCH  19  51
ATOM     51  C   UNL     1     154.650 177.534 179.943  0.00  0.00    -0.058 C 
ATOM     52  H   UNL     1     153.865 177.057 179.344  0.00  0.00    +0.024 HD
ATOM     53  H   UNL     1     154.183 177.891 180.864  0.00  0.00    +0.024 HD
ATOM     54  H   UNL     1     155.003 178.407 179.384  0.00  0.00    +0.024 HD
ENDBRANCH  19  51
BRANCH  21  55
ATOM     55  C   UNL     1     153.221 173.766 180.988  0.00  0.00    -0.009 C 
ATOM     56  H   UNL     1     153.598 173.781 182.018  0.00  0.00    +0.033 HD
ATOM     57  H   UNL     1     152.259 174.295 181.010  0.00  0.00    +0.033 HD
BRANCH  55  58
ATOM     58  C   UNL     1     152.965 172.332 180.580  0.00  0.00    -0.046 A 
ATOM     59  C   UNL     1     153.775 171.299 181.068  0.00  0.00    -0.059 A 
ATOM     60  C   UNL     1     153.523 169.974 180.708  0.00  0.00    -0.062 A 
ATOM     61  C   UNL     1     152.457 169.671 179.862  0.00  0.00    -0.062 A 
ATOM     62  C   UNL     1     151.644 170.691 179.374  0.00  0.00    -0.062 A 
ATOM     63  C   UNL     1     151.894 172.017 179.732  0.00  0.00    -0.059 A 
ATOM     64  H   UNL     1     154.611 171.517 181.728  0.00  0.00    +0.062 HD
ATOM     65  H   UNL     1     154.158 169.177 181.087  0.00  0.00    +0.062 HD
ATOM     66  H   UNL     1     152.262 168.640 179.581  0.00  0.00    +0.062 HD
ATOM     67  H   UNL     1     150.813 170.456 178.713  0.00  0.00    +0.062 HD
ATOM     68  H   UNL     1     151.249 172.803 179.345  0.00  0.00    +0.062 HD
ENDBRANCH  55  58
ENDBRANCH  21  55
BRANCH  16  69
ATOM     69  O   UNL     1     159.009 176.661 179.670  0.00  0.00    -0.387 OA
ATOM     70  H   UNL     1     159.848 176.364 179.279  0.00  0.00    +0.210 HD
ENDBRANCH  16  69
BRANCH   5  71
ATOM     71  O   UNL     1     156.712 170.402 185.943  0.00  0.00    -0.388 OA
ATOM     72  H   UNL     1     157.435 170.134 186.536  0.00  0.00    +0.210 HD
ENDBRANCH   5  71
TORSDOF 6
ENDMDL
MODEL 3
REMARK VINA RESULT:      -6.7     12.514     15.753
REMARK  Name = Cytochalasin B_conf1
REMARK  6 active torsions:
REMARK  status: ('A' for Active; 'I' for Inactive)
REMARK    1  A    between atoms: C_1  and  C_2
REMARK    2  A    between atoms: C_6  and  O_35
REMARK    3  A    between atoms: C_17  and  O_34
REMARK    4  A    between atoms: C_20  and  C_33
REMARK    5  A    between atoms: C_22  and  C_26
REMARK    6  A    between atoms: C_26  and  C_27
REMARK                            x       y       z     vdW  Elec       q    Type
REMARK                         _______ _______ _______ _____ _____    ______ ____
ROOT
ATOM      1  C   UNL     1     150.535 167.925 190.900  0.00  0.00    -0.040 C 
ATOM      2  C   UNL     1     149.927 168.504 192.198  0.00  0.00    -0.050 C 
ATOM      3  C   UNL     1     150.462 169.873 192.652  0.00  0.00    -0.050 C 
ATOM      4  C   UNL     1     150.357 171.030 191.649  0.00  0.00    -0.023 C 
ATOM      5  C   UNL     1     148.994 171.741 191.570  0.00  0.00    +0.074 C 
ATOM      6  C   UNL     1     147.864 170.837 191.189  0.00  0.00    -0.049 C 
ATOM      7  C   UNL     1     147.385 170.658 189.947  0.00  0.00    +0.021 C 
ATOM      8  C   UNL     1     146.362 169.653 189.596  0.00  0.00    +0.333 C 
ATOM      9  O   UNL     1     146.041 169.424 188.439  0.00  0.00    -0.246 OA
ATOM     10  O   UNL     1     145.886 169.028 190.695  0.00  0.00    -0.444 OA
ATOM     11  C   UNL     1     145.118 167.811 190.527  0.00  0.00    +0.202 C 
ATOM     12  C   UNL     1     145.939 166.667 189.875  0.00  0.00    +0.056 C 
ATOM     13  C   UNL     1     147.318 166.463 190.502  0.00  0.00    -0.078 C 
ATOM     14  C   UNL     1     148.472 166.815 189.911  0.00  0.00    -0.087 C 
ATOM     15  C   UNL     1     149.837 166.602 190.510  0.00  0.00    -0.032 C 
ATOM     16  C   UNL     1     145.126 165.341 189.869  0.00  0.00    +0.087 C 
ATOM     17  C   UNL     1     143.629 165.556 189.724  0.00  0.00    -0.045 C 
ATOM     18  C   UNL     1     142.750 164.678 190.237  0.00  0.00    -0.097 C 
ATOM     19  C   UNL     1     143.262 166.847 189.015  0.00  0.00    -0.012 C 
ATOM     20  C   UNL     1     143.734 168.077 189.844  0.00  0.00    +0.033 C 
ATOM     21  C   UNL     1     142.815 168.486 191.017  0.00  0.00    +0.035 C 
ATOM     22  N   UNL     1     143.399 167.841 192.159  0.00  0.00    -0.308 N 
ATOM     23  C   UNL     1     144.702 167.450 191.964  0.00  0.00    +0.258 C 
ATOM     24  O   UNL     1     145.381 166.928 192.833  0.00  0.00    -0.271 OA
ATOM     25  H   UNL     1     150.395 168.638 190.079  0.00  0.00    +0.030 HD
ATOM     26  H   UNL     1     150.110 167.794 193.017  0.00  0.00    +0.027 HD
ATOM     27  H   UNL     1     148.840 168.553 192.106  0.00  0.00    +0.027 HD
ATOM     28  H   UNL     1     149.955 170.157 193.582  0.00  0.00    +0.027 HD
ATOM     29  H   UNL     1     151.519 169.754 192.920  0.00  0.00    +0.027 HD
ATOM     30  H   UNL     1     150.681 170.720 190.649  0.00  0.00    +0.029 HD
ATOM     31  H   UNL     1     151.094 171.789 191.946  0.00  0.00    +0.029 HD
ATOM     32  H   UNL     1     148.757 172.209 192.531  0.00  0.00    +0.064 HD
ATOM     33  H   UNL     1     147.444 170.266 192.015  0.00  0.00    +0.060 HD
ATOM     34  H   UNL     1     147.794 171.202 189.102  0.00  0.00    +0.069 HD
ATOM     35  H   UNL     1     146.122 166.941 188.826  0.00  0.00    +0.042 HD
ATOM     36  H   UNL     1     147.346 166.007 191.491  0.00  0.00    +0.057 HD
ATOM     37  H   UNL     1     148.451 167.271 188.922  0.00  0.00    +0.057 HD
ATOM     38  H   UNL     1     150.435 166.075 189.755  0.00  0.00    +0.031 HD
ATOM     39  H   UNL     1     149.782 165.934 191.379  0.00  0.00    +0.031 HD
ATOM     40  H   UNL     1     145.335 164.763 190.778  0.00  0.00    +0.065 HD
ATOM     41  H   UNL     1     141.676 164.815 190.169  0.00  0.00    +0.054 HD
ATOM     42  H   UNL     1     143.084 163.784 190.757  0.00  0.00    +0.054 HD
ATOM     43  H   UNL     1     143.856 166.853 188.088  0.00  0.00    +0.035 HD
ATOM     44  H   UNL     1     143.782 168.916 189.141  0.00  0.00    +0.037 HD
ATOM     45  H   UNL     1     141.798 168.100 190.915  0.00  0.00    +0.051 HD
ATOM     46  H   UNL     1     142.942 167.720 193.055  0.00  0.00    +0.149 HD
ENDROOT
BRANCH   1  47
ATOM     47  C   UNL     1     152.040 167.680 191.058  0.00  0.00    -0.062 C 
ATOM     48  H   UNL     1     152.471 167.256 190.146  0.00  0.00    +0.023 HD
ATOM     49  H   UNL     1     152.246 166.994 191.885  0.00  0.00    +0.023 HD
ATOM     50  H   UNL     1     152.565 168.615 191.278  0.00  0.00    +0.023 HD
ENDBRANCH   1  47
BRANCH  19  51
ATOM     51  C   UNL     1     141.813 166.968 188.528  0.00  0.00    -0.058 C 
ATOM     52  H   UNL     1     141.464 168.003 188.623  0.00  0.00    +0.024 HD
ATOM     53  H   UNL     1     141.684 166.676 187.483  0.00  0.00    +0.024 HD
ATOM     54  H   UNL     1     141.151 166.342 189.137  0.00  0.00    +0.024 HD
ENDBRANCH  19  51
BRANCH  21  55
ATOM     55  C   UNL     1     142.761 170.019 191.197  0.00  0.00    -0.009 C 
ATOM     56  H   UNL     1     143.269 170.328 192.119  0.00  0.00    +0.033 HD
ATOM     57  H   UNL     1     143.299 170.509 190.375  0.00  0.00    +0.033 HD
BRANCH  55  58
ATOM     58  C   UNL     1     141.344 170.547 191.217  0.00  0.00    -0.046 A 
ATOM     59  C   UNL     1     140.309 169.829 190.603  0.00  0.00    -0.059 A 
ATOM     60  C   UNL     1     138.998 170.307 190.642  0.00  0.00    -0.062 A 
ATOM     61  C   UNL     1     138.710 171.502 191.298  0.00  0.00    -0.062 A 
ATOM     62  C   UNL     1     139.731 172.222 191.914  0.00  0.00    -0.062 A 
ATOM     63  C   UNL     1     141.043 171.747 191.876  0.00  0.00    -0.059 A 
ATOM     64  H   UNL     1     140.516 168.894 190.086  0.00  0.00    +0.062 HD
ATOM     65  H   UNL     1     138.201 169.746 190.160  0.00  0.00    +0.062 HD
ATOM     66  H   UNL     1     137.689 171.874 191.327  0.00  0.00    +0.062 HD
ATOM     67  H   UNL     1     139.507 173.155 192.425  0.00  0.00    +0.062 HD
ATOM     68  H   UNL     1     141.829 172.318 192.364  0.00  0.00    +0.062 HD
ENDBRANCH  55  58
ENDBRANCH  21  55
BRANCH  16  69
ATOM     69  O   UNL     1     145.547 164.551 188.756  0.00  0.00    -0.387 OA
ATOM     70  H   UNL     1     146.432 164.209 188.969  0.00  0.00    +0.210 HD
ENDBRANCH  16  69
BRANCH   5  71
ATOM     71  O   UNL     1     149.088 172.788 190.606  0.00  0.00    -0.388 OA
ATOM     72  H   UNL     1     148.359 172.664 189.975  0.00  0.00    +0.210 HD
ENDBRANCH   5  71
TORSDOF 6
ENDMDL
MODEL 4
REMARK VINA RESULT:      -6.6      3.126      5.196
REMARK  Name = Cytochalasin B_conf1
REMARK  6 active torsions:
REMARK  status: ('A' for Active; 'I' for Inactive)
REMARK    1  A    between atoms: C_1  and  C_2
REMARK    2  A    between atoms: C_6  and  O_35
REMARK    3  A    between atoms: C_17  and  O_34
REMARK    4  A    between atoms: C_20  and  C_33
REMARK    5  A    between atoms: C_22  and  C_26
REMARK    6  A    between atoms: C_26  and  C_27
REMARK                            x       y       z     vdW  Elec       q    Type
REMARK                         _______ _______ _______ _____ _____    ______ ____
ROOT
ATOM      1  C   UNL     1     159.911 165.761 185.703  0.00  0.00    -0.040 C 
ATOM      2  C   UNL     1     159.214 165.312 184.398  0.00  0.00    -0.050 C 
ATOM      3  C   UNL     1     158.178 164.182 184.531  0.00  0.00    -0.050 C 
ATOM      4  C   UNL     1     157.016 164.414 185.507  0.00  0.00    -0.023 C 
ATOM      5  C   UNL     1     155.837 165.249 184.976  0.00  0.00    +0.074 C 
ATOM      6  C   UNL     1     156.222 166.631 184.549  0.00  0.00    -0.049 C 
ATOM      7  C   UNL     1     156.139 167.739 185.303  0.00  0.00    +0.021 C 
ATOM      8  C   UNL     1     156.658 169.057 184.890  0.00  0.00    +0.333 C 
ATOM      9  O   UNL     1     156.686 170.015 185.648  0.00  0.00    -0.246 OA
ATOM     10  O   UNL     1     157.114 169.032 183.618  0.00  0.00    -0.444 OA
ATOM     11  C   UNL     1     157.936 170.129 183.150  0.00  0.00    +0.202 C 
ATOM     12  C   UNL     1     159.270 170.257 183.933  0.00  0.00    +0.056 C 
ATOM     13  C   UNL     1     160.016 168.934 184.099  0.00  0.00    -0.078 C 
ATOM     14  C   UNL     1     160.098 168.258 185.257  0.00  0.00    -0.087 C 
ATOM     15  C   UNL     1     160.846 166.964 185.439  0.00  0.00    -0.032 C 
ATOM     16  C   UNL     1     160.184 171.337 183.287  0.00  0.00    +0.087 C 
ATOM     17  C   UNL     1     159.408 172.482 182.658  0.00  0.00    -0.045 C 
ATOM     18  C   UNL     1     159.912 173.173 181.621  0.00  0.00    -0.097 C 
ATOM     19  C   UNL     1     158.039 172.705 183.274  0.00  0.00    -0.012 C 
ATOM     20  C   UNL     1     157.127 171.466 183.037  0.00  0.00    +0.033 C 
ATOM     21  C   UNL     1     156.462 171.380 181.644  0.00  0.00    +0.035 C 
ATOM     22  N   UNL     1     157.341 170.532 180.890  0.00  0.00    -0.308 N 
ATOM     23  C   UNL     1     158.188 169.782 181.672  0.00  0.00    +0.258 C 
ATOM     24  O   UNL     1     158.974 168.968 181.215  0.00  0.00    -0.271 OA
ATOM     25  H   UNL     1     159.155 166.072 186.434  0.00  0.00    +0.030 HD
ATOM     26  H   UNL     1     159.983 164.968 183.692  0.00  0.00    +0.027 HD
ATOM     27  H   UNL     1     158.751 166.173 183.912  0.00  0.00    +0.027 HD
ATOM     28  H   UNL     1     157.772 163.960 183.537  0.00  0.00    +0.027 HD
ATOM     29  H   UNL     1     158.704 163.271 184.842  0.00  0.00    +0.027 HD
ATOM     30  H   UNL     1     157.372 164.823 186.459  0.00  0.00    +0.029 HD
ATOM     31  H   UNL     1     156.612 163.427 185.774  0.00  0.00    +0.029 HD
ATOM     32  H   UNL     1     155.366 164.740 184.129  0.00  0.00    +0.064 HD
ATOM     33  H   UNL     1     156.633 166.694 183.543  0.00  0.00    +0.060 HD
ATOM     34  H   UNL     1     155.747 167.703 186.314  0.00  0.00    +0.069 HD
ATOM     35  H   UNL     1     159.030 170.599 184.950  0.00  0.00    +0.042 HD
ATOM     36  H   UNL     1     160.500 168.527 183.213  0.00  0.00    +0.057 HD
ATOM     37  H   UNL     1     159.616 168.660 186.148  0.00  0.00    +0.057 HD
ATOM     38  H   UNL     1     161.520 167.105 186.294  0.00  0.00    +0.031 HD
ATOM     39  H   UNL     1     161.488 166.759 184.574  0.00  0.00    +0.031 HD
ATOM     40  H   UNL     1     160.846 170.878 182.541  0.00  0.00    +0.065 HD
ATOM     41  H   UNL     1     159.374 173.981 181.137  0.00  0.00    +0.054 HD
ATOM     42  H   UNL     1     160.893 172.941 181.213  0.00  0.00    +0.054 HD
ATOM     43  H   UNL     1     158.210 172.760 184.361  0.00  0.00    +0.035 HD
ATOM     44  H   UNL     1     156.334 171.525 183.790  0.00  0.00    +0.037 HD
ATOM     45  H   UNL     1     156.427 172.343 181.131  0.00  0.00    +0.051 HD
ATOM     46  H   UNL     1     157.327 170.430 179.883  0.00  0.00    +0.149 HD
ENDROOT
BRANCH   1  47
ATOM     47  C   UNL     1     160.718 164.614 186.320  0.00  0.00    -0.062 C 
ATOM     48  H   UNL     1     160.725 163.736 185.665  0.00  0.00    +0.023 HD
ATOM     49  H   UNL     1     160.307 164.315 187.289  0.00  0.00    +0.023 HD
ATOM     50  H   UNL     1     161.756 164.917 186.490  0.00  0.00    +0.023 HD
ENDBRANCH   1  47
BRANCH  19  51
ATOM     51  C   UNL     1     157.351 174.033 182.940  0.00  0.00    -0.058 C 
ATOM     52  H   UNL     1     156.412 173.852 182.403  0.00  0.00    +0.024 HD
ATOM     53  H   UNL     1     157.109 174.628 183.824  0.00  0.00    +0.024 HD
ATOM     54  H   UNL     1     157.988 174.642 182.289  0.00  0.00    +0.024 HD
ENDBRANCH  19  51
BRANCH  21  55
ATOM     55  C   UNL     1     155.037 170.793 181.724  0.00  0.00    -0.009 C 
ATOM     56  H   UNL     1     154.913 169.955 181.027  0.00  0.00    +0.033 HD
ATOM     57  H   UNL     1     154.859 170.382 182.726  0.00  0.00    +0.033 HD
BRANCH  55  58
ATOM     58  C   UNL     1     153.971 171.829 181.440  0.00  0.00    -0.046 A 
ATOM     59  C   UNL     1     153.009 171.605 180.446  0.00  0.00    -0.059 A 
ATOM     60  C   UNL     1     152.014 172.552 180.202  0.00  0.00    -0.062 A 
ATOM     61  C   UNL     1     151.968 173.726 180.950  0.00  0.00    -0.062 A 
ATOM     62  C   UNL     1     152.918 173.957 181.942  0.00  0.00    -0.062 A 
ATOM     63  C   UNL     1     153.915 173.012 182.188  0.00  0.00    -0.059 A 
ATOM     64  H   UNL     1     153.030 170.694 179.852  0.00  0.00    +0.062 HD
ATOM     65  H   UNL     1     151.272 172.373 179.426  0.00  0.00    +0.062 HD
ATOM     66  H   UNL     1     151.193 174.464 180.758  0.00  0.00    +0.062 HD
ATOM     67  H   UNL     1     152.884 174.874 182.526  0.00  0.00    +0.062 HD
ATOM     68  H   UNL     1     154.649 173.205 182.968  0.00  0.00    +0.062 HD
ENDBRANCH  55  58
ENDBRANCH  21  55
BRANCH  16  69
ATOM     69  O   UNL     1     161.015 171.900 184.305  0.00  0.00    -0.387 OA
ATOM     70  H   UNL     1     161.920 171.921 183.952  0.00  0.00    +0.210 HD
ENDBRANCH  16  69
BRANCH   5  71
ATOM     71  O   UNL     1     154.855 165.345 186.006  0.00  0.00    -0.388 OA
ATOM     72  H   UNL     1     154.643 164.439 186.286  0.00  0.00    +0.210 HD
ENDBRANCH   5  71
TORSDOF 6
ENDMDL
MODEL 5
REMARK VINA RESULT:      -6.6      8.774     12.664
REMARK  Name = Cytochalasin B_conf1
REMARK  6 active torsions:
REMARK  status: ('A' for Active; 'I' for Inactive)
REMARK    1  A    between atoms: C_1  and  C_2
REMARK    2  A    between atoms: C_6  and  O_35
REMARK    3  A    between atoms: C_17  and  O_34
REMARK    4  A    between atoms: C_20  and  C_33
REMARK    5  A    between atoms: C_22  and  C_26
REMARK    6  A    between atoms: C_26  and  C_27
REMARK                            x       y       z     vdW  Elec       q    Type
REMARK                         _______ _______ _______ _____ _____    ______ ____
ROOT
ATOM      1  C   UNL     1     150.814 167.447 191.478  0.00  0.00    -0.040 C 
ATOM      2  C   UNL     1     150.196 166.165 190.874  0.00  0.00    -0.050 C 
ATOM      3  C   UNL     1     148.851 166.333 190.147  0.00  0.00    -0.050 C 
ATOM      4  C   UNL     1     148.804 167.342 188.991  0.00  0.00    -0.023 C 
ATOM      5  C   UNL     1     149.324 166.845 187.631  0.00  0.00    +0.074 C 
ATOM      6  C   UNL     1     150.753 166.402 187.657  0.00  0.00    -0.049 C 
ATOM      7  C   UNL     1     151.816 167.155 187.330  0.00  0.00    +0.021 C 
ATOM      8  C   UNL     1     153.217 166.722 187.502  0.00  0.00    +0.333 C 
ATOM      9  O   UNL     1     154.161 167.476 187.319  0.00  0.00    -0.246 OA
ATOM     10  O   UNL     1     153.290 165.437 187.914  0.00  0.00    -0.444 OA
ATOM     11  C   UNL     1     154.548 164.942 188.433  0.00  0.00    +0.202 C 
ATOM     12  C   UNL     1     155.003 165.684 189.717  0.00  0.00    +0.056 C 
ATOM     13  C   UNL     1     153.902 165.832 190.766  0.00  0.00    -0.078 C 
ATOM     14  C   UNL     1     153.277 166.989 191.042  0.00  0.00    -0.087 C 
ATOM     15  C   UNL     1     152.205 167.152 192.086  0.00  0.00    -0.032 C 
ATOM     16  C   UNL     1     156.265 165.008 190.324  0.00  0.00    +0.087 C 
ATOM     17  C   UNL     1     157.182 164.399 189.276  0.00  0.00    -0.045 C 
ATOM     18  C   UNL     1     157.964 163.345 189.568  0.00  0.00    -0.097 C 
ATOM     19  C   UNL     1     157.074 165.055 187.912  0.00  0.00    -0.012 C 
ATOM     20  C   UNL     1     155.648 164.849 187.321  0.00  0.00    +0.033 C 
ATOM     21  C   UNL     1     155.390 163.477 186.658  0.00  0.00    +0.035 C 
ATOM     22  N   UNL     1     154.772 162.699 187.694  0.00  0.00    -0.308 N 
ATOM     23  C   UNL     1     154.257 163.458 188.719  0.00  0.00    +0.258 C 
ATOM     24  O   UNL     1     153.654 162.980 189.665  0.00  0.00    -0.271 OA
ATOM     25  H   UNL     1     150.941 168.199 190.691  0.00  0.00    +0.030 HD
ATOM     26  H   UNL     1     150.042 165.437 191.683  0.00  0.00    +0.027 HD
ATOM     27  H   UNL     1     150.915 165.691 190.202  0.00  0.00    +0.027 HD
ATOM     28  H   UNL     1     148.527 165.351 189.779  0.00  0.00    +0.027 HD
ATOM     29  H   UNL     1     148.098 166.631 190.886  0.00  0.00    +0.027 HD
ATOM     30  H   UNL     1     149.297 168.282 189.265  0.00  0.00    +0.029 HD
ATOM     31  H   UNL     1     147.752 167.624 188.846  0.00  0.00    +0.029 HD
ATOM     32  H   UNL     1     148.708 166.013 187.273  0.00  0.00    +0.064 HD
ATOM     33  H   UNL     1     150.904 165.384 188.012  0.00  0.00    +0.060 HD
ATOM     34  H   UNL     1     151.697 168.177 186.987  0.00  0.00    +0.069 HD
ATOM     35  H   UNL     1     155.287 166.707 189.431  0.00  0.00    +0.042 HD
ATOM     36  H   UNL     1     153.615 164.932 191.309  0.00  0.00    +0.057 HD
ATOM     37  H   UNL     1     153.560 167.893 190.503  0.00  0.00    +0.057 HD
ATOM     38  H   UNL     1     152.513 167.986 192.730  0.00  0.00    +0.031 HD
ATOM     39  H   UNL     1     152.153 166.268 192.734  0.00  0.00    +0.031 HD
ATOM     40  H   UNL     1     155.973 164.244 191.056  0.00  0.00    +0.065 HD
ATOM     41  H   UNL     1     158.612 162.875 188.837  0.00  0.00    +0.054 HD
ATOM     42  H   UNL     1     157.973 162.908 190.564  0.00  0.00    +0.054 HD
ATOM     43  H   UNL     1     157.179 166.136 188.095  0.00  0.00    +0.035 HD
ATOM     44  H   UNL     1     155.521 165.625 186.559  0.00  0.00    +0.037 HD
ATOM     45  H   UNL     1     156.311 162.962 186.375  0.00  0.00    +0.051 HD
ATOM     46  H   UNL     1     154.659 161.693 187.677  0.00  0.00    +0.149 HD
ENDROOT
BRANCH   1  47
ATOM     47  C   UNL     1     149.902 168.043 192.556  0.00  0.00    -0.062 C 
ATOM     48  H   UNL     1     150.066 167.560 193.525  0.00  0.00    +0.023 HD
ATOM     49  H   UNL     1     148.847 167.932 192.291  0.00  0.00    +0.023 HD
ATOM     50  H   UNL     1     150.092 169.115 192.676  0.00  0.00    +0.023 HD
ENDBRANCH   1  47
BRANCH  19  51
ATOM     51  C   UNL     1     158.192 164.738 186.913  0.00  0.00    -0.058 C 
ATOM     52  H   UNL     1     158.283 165.542 186.174  0.00  0.00    +0.024 HD
ATOM     53  H   UNL     1     159.171 164.618 187.385  0.00  0.00    +0.024 HD
ATOM     54  H   UNL     1     157.967 163.815 186.366  0.00  0.00    +0.024 HD
ENDBRANCH  19  51
BRANCH  21  55
ATOM     55  C   UNL     1     154.477 163.601 185.419  0.00  0.00    -0.009 C 
ATOM     56  H   UNL     1     154.269 162.617 184.979  0.00  0.00    +0.033 HD
ATOM     57  H   UNL     1     153.502 164.011 185.716  0.00  0.00    +0.033 HD
BRANCH  55  58
ATOM     58  C   UNL     1     155.066 164.500 184.356  0.00  0.00    -0.046 A 
ATOM     59  C   UNL     1     154.406 165.675 183.973  0.00  0.00    -0.059 A 
ATOM     60  C   UNL     1     154.963 166.515 183.007  0.00  0.00    -0.062 A 
ATOM     61  C   UNL     1     156.185 166.191 182.420  0.00  0.00    -0.062 A 
ATOM     62  C   UNL     1     156.850 165.026 182.796  0.00  0.00    -0.062 A 
ATOM     63  C   UNL     1     156.295 164.184 183.761  0.00  0.00    -0.059 A 
ATOM     64  H   UNL     1     153.451 165.944 184.420  0.00  0.00    +0.062 HD
ATOM     65  H   UNL     1     154.443 167.423 182.712  0.00  0.00    +0.062 HD
ATOM     66  H   UNL     1     156.617 166.845 181.668  0.00  0.00    +0.062 HD
ATOM     67  H   UNL     1     157.803 164.771 182.338  0.00  0.00    +0.062 HD
ATOM     68  H   UNL     1     156.828 163.279 184.046  0.00  0.00    +0.062 HD
ENDBRANCH  55  58
ENDBRANCH  21  55
BRANCH  16  69
ATOM     69  O   UNL     1     157.023 165.998 191.022  0.00  0.00    -0.387 OA
ATOM     70  H   UNL     1     157.470 165.546 191.757  0.00  0.00    +0.210 HD
ENDBRANCH  16  69
BRANCH   5  71
ATOM     71  O   UNL     1     149.190 167.903 186.684  0.00  0.00    -0.388 OA
ATOM     72  H   UNL     1     149.618 168.687 187.068  0.00  0.00    +0.210 HD
ENDBRANCH   5  71
TORSDOF 6
ENDMDL
MODEL 6
REMARK VINA RESULT:      -6.6     11.176     13.791
REMARK  Name = Cytochalasin B_conf1
REMARK  6 active torsions:
REMARK  status: ('A' for Active; 'I' for Inactive)
REMARK    1  A    between atoms: C_1  and  C_2
REMARK    2  A    between atoms: C_6  and  O_35
REMARK    3  A    between atoms: C_17  and  O_34
REMARK    4  A    between atoms: C_20  and  C_33
REMARK    5  A    between atoms: C_22  and  C_26
REMARK    6  A    between atoms: C_26  and  C_27
REMARK                            x       y       z     vdW  Elec       q    Type
REMARK                         _______ _______ _______ _____ _____    ______ ____
ROOT
ATOM      1  C   UNL     1     150.609 165.899 193.544  0.00  0.00    -0.040 C 
ATOM      2  C   UNL     1     151.215 167.204 192.979  0.00  0.00    -0.050 C 
ATOM      3  C   UNL     1     152.718 167.174 192.653  0.00  0.00    -0.050 C 
ATOM      4  C   UNL     1     153.197 166.094 191.674  0.00  0.00    -0.023 C 
ATOM      5  C   UNL     1     153.016 166.402 190.177  0.00  0.00    +0.074 C 
ATOM      6  C   UNL     1     151.593 166.636 189.777  0.00  0.00    -0.049 C 
ATOM      7  C   UNL     1     150.757 165.715 189.273  0.00  0.00    +0.021 C 
ATOM      8  C   UNL     1     149.322 165.954 189.022  0.00  0.00    +0.333 C 
ATOM      9  O   UNL     1     148.560 165.061 188.686  0.00  0.00    -0.246 OA
ATOM     10  O   UNL     1     148.990 167.244 189.250  0.00  0.00    -0.444 OA
ATOM     11  C   UNL     1     147.588 167.594 189.361  0.00  0.00    +0.202 C 
ATOM     12  C   UNL     1     146.888 166.898 190.558  0.00  0.00    +0.056 C 
ATOM     13  C   UNL     1     147.669 166.993 191.868  0.00  0.00    -0.078 C 
ATOM     14  C   UNL     1     148.324 165.963 192.429  0.00  0.00    -0.087 C 
ATOM     15  C   UNL     1     149.080 166.038 193.729  0.00  0.00    -0.032 C 
ATOM     16  C   UNL     1     145.438 167.432 190.732  0.00  0.00    +0.087 C 
ATOM     17  C   UNL     1     144.779 167.818 189.419  0.00  0.00    -0.045 C 
ATOM     18  C   UNL     1     143.829 168.769 189.373  0.00  0.00    -0.097 C 
ATOM     19  C   UNL     1     145.334 167.078 188.215  0.00  0.00    -0.012 C 
ATOM     20  C   UNL     1     146.832 167.439 187.998  0.00  0.00    +0.033 C 
ATOM     21  C   UNL     1     147.101 168.777 187.271  0.00  0.00    +0.035 C 
ATOM     22  N   UNL     1     147.315 169.715 188.337  0.00  0.00    -0.308 N 
ATOM     23  C   UNL     1     147.614 169.122 189.541  0.00  0.00    +0.258 C 
ATOM     24  O   UNL     1     147.875 169.755 190.551  0.00  0.00    -0.271 OA
ATOM     25  H   UNL     1     150.792 165.076 192.843  0.00  0.00    +0.030 HD
ATOM     26  H   UNL     1     151.056 168.008 193.711  0.00  0.00    +0.027 HD
ATOM     27  H   UNL     1     150.658 167.516 192.093  0.00  0.00    +0.027 HD
ATOM     28  H   UNL     1     153.014 168.159 192.272  0.00  0.00    +0.027 HD
ATOM     29  H   UNL     1     153.269 167.047 193.593  0.00  0.00    +0.027 HD
ATOM     30  H   UNL     1     152.762 165.118 191.915  0.00  0.00    +0.029 HD
ATOM     31  H   UNL     1     154.275 165.955 191.842  0.00  0.00    +0.029 HD
ATOM     32  H   UNL     1     153.606 167.282 189.900  0.00  0.00    +0.064 HD
ATOM     33  H   UNL     1     151.233 167.647 189.961  0.00  0.00    +0.060 HD
ATOM     34  H   UNL     1     151.084 164.696 189.093  0.00  0.00    +0.069 HD
ATOM     35  H   UNL     1     146.815 165.825 190.327  0.00  0.00    +0.042 HD
ATOM     36  H   UNL     1     147.689 167.965 192.360  0.00  0.00    +0.057 HD
ATOM     37  H   UNL     1     148.308 164.988 191.943  0.00  0.00    +0.057 HD
ATOM     38  H   UNL     1     148.707 165.223 194.361  0.00  0.00    +0.031 HD
ATOM     39  H   UNL     1     148.849 166.970 194.262  0.00  0.00    +0.031 HD
ATOM     40  H   UNL     1     145.426 168.285 191.422  0.00  0.00    +0.065 HD
ATOM     41  H   UNL     1     143.357 169.081 188.448  0.00  0.00    +0.054 HD
ATOM     42  H   UNL     1     143.497 169.277 190.274  0.00  0.00    +0.054 HD
ATOM     43  H   UNL     1     145.309 166.012 188.487  0.00  0.00    +0.035 HD
ATOM     44  H   UNL     1     147.253 166.631 187.389  0.00  0.00    +0.037 HD
ATOM     45  H   UNL     1     146.239 169.130 186.701  0.00  0.00    +0.051 HD
ATOM     46  H   UNL     1     147.310 170.722 188.234  0.00  0.00    +0.149 HD
ENDROOT
BRANCH   1  47
ATOM     47  C   UNL     1     151.253 165.527 194.884  0.00  0.00    -0.062 C 
ATOM     48  H   UNL     1     150.742 164.678 195.348  0.00  0.00    +0.023 HD
ATOM     49  H   UNL     1     151.227 166.367 195.584  0.00  0.00    +0.023 HD
ATOM     50  H   UNL     1     152.305 165.255 194.747  0.00  0.00    +0.023 HD
ENDBRANCH   1  47
BRANCH  19  51
ATOM     51  C   UNL     1     144.503 167.152 186.928  0.00  0.00    -0.058 C 
ATOM     52  H   UNL     1     143.672 167.857 187.050  0.00  0.00    +0.024 HD
ATOM     53  H   UNL     1     145.081 167.477 186.060  0.00  0.00    +0.024 HD
ATOM     54  H   UNL     1     144.069 166.173 186.696  0.00  0.00    +0.024 HD
ENDBRANCH  19  51
BRANCH  21  55
ATOM     55  C   UNL     1     148.327 168.688 186.338  0.00  0.00    -0.009 C 
ATOM     56  H   UNL     1     148.475 169.625 185.787  0.00  0.00    +0.033 HD
ATOM     57  H   UNL     1     149.237 168.539 186.933  0.00  0.00    +0.033 HD
BRANCH  55  58
ATOM     58  C   UNL     1     148.216 167.549 185.349  0.00  0.00    -0.046 A 
ATOM     59  C   UNL     1     147.215 167.554 184.368  0.00  0.00    -0.059 A 
ATOM     60  C   UNL     1     147.129 166.513 183.442  0.00  0.00    -0.062 A 
ATOM     61  C   UNL     1     148.044 165.462 183.486  0.00  0.00    -0.062 A 
ATOM     62  C   UNL     1     149.044 165.449 184.455  0.00  0.00    -0.062 A 
ATOM     63  C   UNL     1     149.132 166.488 185.383  0.00  0.00    -0.059 A 
ATOM     64  H   UNL     1     146.493 168.366 184.320  0.00  0.00    +0.062 HD
ATOM     65  H   UNL     1     146.348 166.521 182.686  0.00  0.00    +0.062 HD
ATOM     66  H   UNL     1     147.975 164.651 182.765  0.00  0.00    +0.062 HD
ATOM     67  H   UNL     1     149.757 164.629 184.491  0.00  0.00    +0.062 HD
ATOM     68  H   UNL     1     149.920 166.467 186.132  0.00  0.00    +0.062 HD
ENDBRANCH  55  58
ENDBRANCH  21  55
BRANCH  16  69
ATOM     69  O   UNL     1     144.638 166.401 191.317  0.00  0.00    -0.387 OA
ATOM     70  H   UNL     1     144.083 166.824 191.993  0.00  0.00    +0.210 HD
ENDBRANCH  16  69
BRANCH   5  71
ATOM     71  O   UNL     1     153.528 165.302 189.427  0.00  0.00    -0.388 OA
ATOM     72  H   UNL     1     154.046 165.672 188.692  0.00  0.00    +0.210 HD
ENDBRANCH   5  71
TORSDOF 6
ENDMDL
MODEL 7
REMARK VINA RESULT:      -6.4      3.453      6.700
REMARK  Name = Cytochalasin B_conf1
REMARK  6 active torsions:
REMARK  status: ('A' for Active; 'I' for Inactive)
REMARK    1  A    between atoms: C_1  and  C_2
REMARK    2  A    between atoms: C_6  and  O_35
REMARK    3  A    between atoms: C_17  and  O_34
REMARK    4  A    between atoms: C_20  and  C_33
REMARK    5  A    between atoms: C_22  and  C_26
REMARK    6  A    between atoms: C_26  and  C_27
REMARK                            x       y       z     vdW  Elec       q    Type
REMARK                         _______ _______ _______ _____ _____    ______ ____
ROOT
ATOM      1  C   UNL     1     164.137 168.505 181.767  0.00  0.00    -0.040 C 
ATOM      2  C   UNL     1     164.130 169.207 183.145  0.00  0.00    -0.050 C 
ATOM      3  C   UNL     1     165.218 170.270 183.374  0.00  0.00    -0.050 C 
ATOM      4  C   UNL     1     165.281 171.430 182.371  0.00  0.00    -0.023 C 
ATOM      5  C   UNL     1     164.292 172.586 182.603  0.00  0.00    +0.074 C 
ATOM      6  C   UNL     1     162.856 172.167 182.570  0.00  0.00    -0.049 C 
ATOM      7  C   UNL     1     162.044 172.226 181.502  0.00  0.00    +0.021 C 
ATOM      8  C   UNL     1     160.676 171.674 181.475  0.00  0.00    +0.333 C 
ATOM      9  O   UNL     1     160.010 171.626 180.452  0.00  0.00    -0.246 OA
ATOM     10  O   UNL     1     160.305 171.214 182.691  0.00  0.00    -0.444 OA
ATOM     11  C   UNL     1     159.137 170.363 182.788  0.00  0.00    +0.202 C 
ATOM     12  C   UNL     1     159.297 169.030 182.010  0.00  0.00    +0.056 C 
ATOM     13  C   UNL     1     160.622 168.317 182.277  0.00  0.00    -0.078 C 
ATOM     14  C   UNL     1     161.633 168.256 181.395  0.00  0.00    -0.087 C 
ATOM     15  C   UNL     1     162.935 167.540 181.637  0.00  0.00    -0.032 C 
ATOM     16  C   UNL     1     158.090 168.088 182.282  0.00  0.00    +0.087 C 
ATOM     17  C   UNL     1     156.786 168.833 182.511  0.00  0.00    -0.045 C 
ATOM     18  C   UNL     1     155.813 168.308 183.275  0.00  0.00    -0.097 C 
ATOM     19  C   UNL     1     156.738 170.199 181.850  0.00  0.00    -0.012 C 
ATOM     20  C   UNL     1     157.814 171.139 182.466  0.00  0.00    +0.033 C 
ATOM     21  C   UNL     1     157.436 171.800 183.811  0.00  0.00    +0.035 C 
ATOM     22  N   UNL     1     158.021 170.939 184.800  0.00  0.00    -0.308 N 
ATOM     23  C   UNL     1     159.001 170.114 184.301  0.00  0.00    +0.258 C 
ATOM     24  O   UNL     1     159.645 169.346 184.996  0.00  0.00    -0.271 OA
ATOM     25  H   UNL     1     164.056 169.255 180.973  0.00  0.00    +0.030 HD
ATOM     26  H   UNL     1     164.249 168.443 183.926  0.00  0.00    +0.027 HD
ATOM     27  H   UNL     1     163.148 169.647 183.329  0.00  0.00    +0.027 HD
ATOM     28  H   UNL     1     165.102 170.677 184.386  0.00  0.00    +0.027 HD
ATOM     29  H   UNL     1     166.193 169.768 183.371  0.00  0.00    +0.027 HD
ATOM     30  H   UNL     1     165.205 171.068 181.340  0.00  0.00    +0.029 HD
ATOM     31  H   UNL     1     166.291 171.859 182.431  0.00  0.00    +0.029 HD
ATOM     32  H   UNL     1     164.493 173.066 183.567  0.00  0.00    +0.064 HD
ATOM     33  H   UNL     1     162.485 171.750 183.505  0.00  0.00    +0.060 HD
ATOM     34  H   UNL     1     162.391 172.623 180.553  0.00  0.00    +0.069 HD
ATOM     35  H   UNL     1     159.291 169.266 180.936  0.00  0.00    +0.042 HD
ATOM     36  H   UNL     1     160.737 167.839 183.249  0.00  0.00    +0.057 HD
ATOM     37  H   UNL     1     161.525 168.731 180.421  0.00  0.00    +0.057 HD
ATOM     38  H   UNL     1     163.090 166.866 180.785  0.00  0.00    +0.031 HD
ATOM     39  H   UNL     1     162.869 166.899 182.526  0.00  0.00    +0.031 HD
ATOM     40  H   UNL     1     158.303 167.434 183.137  0.00  0.00    +0.065 HD
ATOM     41  H   UNL     1     154.880 168.825 183.475  0.00  0.00    +0.054 HD
ATOM     42  H   UNL     1     155.926 167.332 183.740  0.00  0.00    +0.054 HD
ATOM     43  H   UNL     1     157.036 170.031 180.804  0.00  0.00    +0.035 HD
ATOM     44  H   UNL     1     157.979 171.934 181.731  0.00  0.00    +0.037 HD
ATOM     45  H   UNL     1     156.359 171.810 183.991  0.00  0.00    +0.051 HD
ATOM     46  H   UNL     1     157.796 170.951 185.787  0.00  0.00    +0.149 HD
ENDROOT
BRANCH   1  47
ATOM     47  C   UNL     1     165.440 167.728 181.551  0.00  0.00    -0.062 C 
ATOM     48  H   UNL     1     165.393 166.737 182.015  0.00  0.00    +0.023 HD
ATOM     49  H   UNL     1     166.296 168.263 181.971  0.00  0.00    +0.023 HD
ATOM     50  H   UNL     1     165.638 167.592 180.483  0.00  0.00    +0.023 HD
ENDBRANCH   1  47
BRANCH  19  51
ATOM     51  C   UNL     1     155.356 170.854 181.741  0.00  0.00    -0.058 C 
ATOM     52  H   UNL     1     155.457 171.938 181.607  0.00  0.00    +0.024 HD
ATOM     53  H   UNL     1     154.765 170.477 180.903  0.00  0.00    +0.024 HD
ATOM     54  H   UNL     1     154.781 170.690 182.660  0.00  0.00    +0.024 HD
ENDBRANCH  19  51
BRANCH  21  55
ATOM     55  C   UNL     1     157.983 173.240 183.918  0.00  0.00    -0.009 C 
ATOM     56  H   UNL     1     157.624 173.735 184.829  0.00  0.00    +0.033 HD
ATOM     57  H   UNL     1     159.078 173.217 183.998  0.00  0.00    +0.033 HD
BRANCH  55  58
ATOM     58  C   UNL     1     157.613 174.087 182.721  0.00  0.00    -0.046 A 
ATOM     59  C   UNL     1     158.609 174.606 181.882  0.00  0.00    -0.059 A 
ATOM     60  C   UNL     1     158.264 175.369 180.765  0.00  0.00    -0.062 A 
ATOM     61  C   UNL     1     156.923 175.615 180.474  0.00  0.00    -0.062 A 
ATOM     62  C   UNL     1     155.926 175.101 181.300  0.00  0.00    -0.062 A 
ATOM     63  C   UNL     1     156.268 174.339 182.418  0.00  0.00    -0.059 A 
ATOM     64  H   UNL     1     159.660 174.424 182.095  0.00  0.00    +0.062 HD
ATOM     65  H   UNL     1     159.042 175.772 180.121  0.00  0.00    +0.062 HD
ATOM     66  H   UNL     1     156.656 176.210 179.605  0.00  0.00    +0.062 HD
ATOM     67  H   UNL     1     154.880 175.293 181.075  0.00  0.00    +0.062 HD
ATOM     68  H   UNL     1     155.478 173.942 183.052  0.00  0.00    +0.062 HD
ENDBRANCH  55  58
ENDBRANCH  21  55
BRANCH  16  69
ATOM     69  O   UNL     1     157.900 167.248 181.141  0.00  0.00    -0.387 OA
ATOM     70  H   UNL     1     157.057 166.781 181.271  0.00  0.00    +0.210 HD
ENDBRANCH  16  69
BRANCH   5  71
ATOM     71  O   UNL     1     164.505 173.570 181.593  0.00  0.00    -0.388 OA
ATOM     72  H   UNL     1     165.166 174.195 181.936  0.00  0.00    +0.210 HD
ENDBRANCH   5  71
TORSDOF 6
ENDMDL
MODEL 8
REMARK VINA RESULT:      -6.4      3.782      8.543
REMARK  Name = Cytochalasin B_conf1
REMARK  6 active torsions:
REMARK  status: ('A' for Active; 'I' for Inactive)
REMARK    1  A    between atoms: C_1  and  C_2
REMARK    2  A    between atoms: C_6  and  O_35
REMARK    3  A    between atoms: C_17  and  O_34
REMARK    4  A    between atoms: C_20  and  C_33
REMARK    5  A    between atoms: C_22  and  C_26
REMARK    6  A    between atoms: C_26  and  C_27
REMARK                            x       y       z     vdW  Elec       q    Type
REMARK                         _______ _______ _______ _____ _____    ______ ____
ROOT
ATOM      1  C   UNL     1     158.603 173.789 182.012  0.00  0.00    -0.040 C 
ATOM      2  C   UNL     1     157.783 173.691 183.319  0.00  0.00    -0.050 C 
ATOM      3  C   UNL     1     156.359 174.273 183.276  0.00  0.00    -0.050 C 
ATOM      4  C   UNL     1     155.411 173.718 182.206  0.00  0.00    -0.023 C 
ATOM      5  C   UNL     1     154.712 172.388 182.538  0.00  0.00    +0.074 C 
ATOM      6  C   UNL     1     155.657 171.257 182.794  0.00  0.00    -0.049 C 
ATOM      7  C   UNL     1     156.062 170.350 181.891  0.00  0.00    +0.021 C 
ATOM      8  C   UNL     1     157.102 169.335 182.150  0.00  0.00    +0.333 C 
ATOM      9  O   UNL     1     157.540 168.610 181.270  0.00  0.00    -0.246 OA
ATOM     10  O   UNL     1     157.504 169.359 183.440  0.00  0.00    -0.444 OA
ATOM     11  C   UNL     1     158.721 168.663 183.804  0.00  0.00    +0.202 C 
ATOM     12  C   UNL     1     159.977 169.240 183.098  0.00  0.00    +0.056 C 
ATOM     13  C   UNL     1     160.076 170.763 183.164  0.00  0.00    -0.078 C 
ATOM     14  C   UNL     1     159.854 171.577 182.119  0.00  0.00    -0.087 C 
ATOM     15  C   UNL     1     159.968 173.078 182.166  0.00  0.00    -0.032 C 
ATOM     16  C   UNL     1     161.270 168.572 183.646  0.00  0.00    +0.087 C 
ATOM     17  C   UNL     1     161.069 167.124 184.059  0.00  0.00    -0.045 C 
ATOM     18  C   UNL     1     161.824 166.566 185.021  0.00  0.00    -0.097 C 
ATOM     19  C   UNL     1     159.930 166.432 183.331  0.00  0.00    -0.012 C 
ATOM     20  C   UNL     1     158.572 167.109 183.678  0.00  0.00    +0.033 C 
ATOM     21  C   UNL     1     157.938 166.688 185.024  0.00  0.00    +0.035 C 
ATOM     22  N   UNL     1     158.364 167.705 185.943  0.00  0.00    -0.308 N 
ATOM     23  C   UNL     1     158.800 168.855 185.329  0.00  0.00    +0.258 C 
ATOM     24  O   UNL     1     159.157 169.846 185.943  0.00  0.00    -0.271 OA
ATOM     25  H   UNL     1     158.056 173.299 181.198  0.00  0.00    +0.030 HD
ATOM     26  H   UNL     1     158.328 174.219 184.113  0.00  0.00    +0.027 HD
ATOM     27  H   UNL     1     157.740 172.651 183.650  0.00  0.00    +0.027 HD
ATOM     28  H   UNL     1     155.899 174.146 184.264  0.00  0.00    +0.027 HD
ATOM     29  H   UNL     1     156.438 175.357 183.129  0.00  0.00    +0.027 HD
ATOM     30  H   UNL     1     155.907 173.651 181.231  0.00  0.00    +0.029 HD
ATOM     31  H   UNL     1     154.618 174.464 182.052  0.00  0.00    +0.029 HD
ATOM     32  H   UNL     1     154.068 172.510 183.416  0.00  0.00    +0.064 HD
ATOM     33  H   UNL     1     156.058 171.223 183.806  0.00  0.00    +0.060 HD
ATOM     34  H   UNL     1     155.691 170.368 180.871  0.00  0.00    +0.069 HD
ATOM     35  H   UNL     1     159.907 168.988 182.030  0.00  0.00    +0.042 HD
ATOM     36  H   UNL     1     160.337 171.198 184.128  0.00  0.00    +0.057 HD
ATOM     37  H   UNL     1     159.593 171.149 181.152  0.00  0.00    +0.057 HD
ATOM     38  H   UNL     1     160.634 173.372 181.345  0.00  0.00    +0.031 HD
ATOM     39  H   UNL     1     160.459 173.404 183.091  0.00  0.00    +0.031 HD
ATOM     40  H   UNL     1     161.670 169.150 184.489  0.00  0.00    +0.065 HD
ATOM     41  H   UNL     1     161.690 165.542 185.353  0.00  0.00    +0.054 HD
ATOM     42  H   UNL     1     162.609 167.130 185.520  0.00  0.00    +0.054 HD
ATOM     43  H   UNL     1     160.106 166.622 182.261  0.00  0.00    +0.035 HD
ATOM     44  H   UNL     1     157.881 166.831 182.875  0.00  0.00    +0.037 HD
ATOM     45  H   UNL     1     158.325 165.736 185.396  0.00  0.00    +0.051 HD
ATOM     46  H   UNL     1     158.309 167.636 186.952  0.00  0.00    +0.149 HD
ENDROOT
BRANCH   1  47
ATOM     47  C   UNL     1     158.832 175.250 181.612  0.00  0.00    -0.062 C 
ATOM     48  H   UNL     1     159.401 175.323 180.680  0.00  0.00    +0.023 HD
ATOM     49  H   UNL     1     159.377 175.794 182.390  0.00  0.00    +0.023 HD
ATOM     50  H   UNL     1     157.878 175.767 181.467  0.00  0.00    +0.023 HD
ENDBRANCH   1  47
BRANCH  19  51
ATOM     51  C   UNL     1     159.886 164.903 183.434  0.00  0.00    -0.058 C 
ATOM     52  H   UNL     1     160.758 164.462 182.936  0.00  0.00    +0.024 HD
ATOM     53  H   UNL     1     159.883 164.540 184.464  0.00  0.00    +0.024 HD
ATOM     54  H   UNL     1     158.992 164.511 182.936  0.00  0.00    +0.024 HD
ENDBRANCH  19  51
BRANCH  21  55
ATOM     55  C   UNL     1     156.399 166.611 184.935  0.00  0.00    -0.009 C 
ATOM     56  H   UNL     1     155.980 167.526 184.497  0.00  0.00    +0.033 HD
ATOM     57  H   UNL     1     156.105 165.793 184.263  0.00  0.00    +0.033 HD
BRANCH  55  58
ATOM     58  C   UNL     1     155.755 166.372 186.282  0.00  0.00    -0.046 A 
ATOM     59  C   UNL     1     156.262 165.395 187.149  0.00  0.00    -0.059 A 
ATOM     60  C   UNL     1     155.680 165.192 188.401  0.00  0.00    -0.062 A 
ATOM     61  C   UNL     1     154.591 165.965 188.799  0.00  0.00    -0.062 A 
ATOM     62  C   UNL     1     154.082 166.941 187.946  0.00  0.00    -0.062 A 
ATOM     63  C   UNL     1     154.661 167.146 186.693  0.00  0.00    -0.059 A 
ATOM     64  H   UNL     1     157.111 164.782 186.854  0.00  0.00    +0.062 HD
ATOM     65  H   UNL     1     156.077 164.429 189.067  0.00  0.00    +0.062 HD
ATOM     66  H   UNL     1     154.138 165.805 189.774  0.00  0.00    +0.062 HD
ATOM     67  H   UNL     1     153.231 167.544 188.255  0.00  0.00    +0.062 HD
ATOM     68  H   UNL     1     154.254 167.914 186.039  0.00  0.00    +0.062 HD
ENDBRANCH  55  58
ENDBRANCH  21  55
BRANCH  16  69
ATOM     69  O   UNL     1     162.261 168.581 182.616  0.00  0.00    -0.387 OA
ATOM     70  H   UNL     1     163.003 168.037 182.932  0.00  0.00    +0.210 HD
ENDBRANCH  16  69
BRANCH   5  71
ATOM     71  O   UNL     1     153.866 172.038 181.444  0.00  0.00    -0.388 OA
ATOM     72  H   UNL     1     154.146 171.161 181.133  0.00  0.00    +0.210 HD
ENDBRANCH   5  71
TORSDOF 6
ENDMDL
MODEL 9
REMARK VINA RESULT:      -6.4      9.976     13.657
REMARK  Name = Cytochalasin B_conf1
REMARK  6 active torsions:
REMARK  status: ('A' for Active; 'I' for Inactive)
REMARK    1  A    between atoms: C_1  and  C_2
REMARK    2  A    between atoms: C_6  and  O_35
REMARK    3  A    between atoms: C_17  and  O_34
REMARK    4  A    between atoms: C_20  and  C_33
REMARK    5  A    between atoms: C_22  and  C_26
REMARK    6  A    between atoms: C_26  and  C_27
REMARK                            x       y       z     vdW  Elec       q    Type
REMARK                         _______ _______ _______ _____ _____    ______ ____
ROOT
ATOM      1  C   UNL     1     149.306 167.126 190.126  0.00  0.00    -0.040 C 
ATOM      2  C   UNL     1     150.470 168.052 190.550  0.00  0.00    -0.050 C 
ATOM      3  C   UNL     1     150.595 168.346 192.055  0.00  0.00    -0.050 C 
ATOM      4  C   UNL     1     150.727 167.138 192.992  0.00  0.00    -0.023 C 
ATOM      5  C   UNL     1     152.136 166.534 193.131  0.00  0.00    +0.074 C 
ATOM      6  C   UNL     1     152.712 166.044 191.839  0.00  0.00    -0.049 C 
ATOM      7  C   UNL     1     152.658 164.783 191.382  0.00  0.00    +0.021 C 
ATOM      8  C   UNL     1     153.116 164.372 190.041  0.00  0.00    +0.333 C 
ATOM      9  O   UNL     1     152.935 163.245 189.605  0.00  0.00    -0.246 OA
ATOM     10  O   UNL     1     153.703 165.397 189.384  0.00  0.00    -0.444 OA
ATOM     11  C   UNL     1     153.929 165.274 187.959  0.00  0.00    +0.202 C 
ATOM     12  C   UNL     1     152.612 165.129 187.151  0.00  0.00    +0.056 C 
ATOM     13  C   UNL     1     151.539 166.147 187.536  0.00  0.00    -0.078 C 
ATOM     14  C   UNL     1     150.435 165.846 188.240  0.00  0.00    -0.087 C 
ATOM     15  C   UNL     1     149.361 166.835 188.608  0.00  0.00    -0.032 C 
ATOM     16  C   UNL     1     152.897 165.168 185.623  0.00  0.00    +0.087 C 
ATOM     17  C   UNL     1     154.241 164.566 185.248  0.00  0.00    -0.045 C 
ATOM     18  C   UNL     1     154.905 164.980 184.155  0.00  0.00    -0.097 C 
ATOM     19  C   UNL     1     154.746 163.532 186.238  0.00  0.00    -0.012 C 
ATOM     20  C   UNL     1     155.009 164.189 187.625  0.00  0.00    +0.033 C 
ATOM     21  C   UNL     1     156.350 164.946 187.764  0.00  0.00    +0.035 C 
ATOM     22  N   UNL     1     156.009 166.313 187.490  0.00  0.00    -0.308 N 
ATOM     23  C   UNL     1     154.664 166.578 187.599  0.00  0.00    +0.258 C 
ATOM     24  O   UNL     1     154.188 167.691 187.450  0.00  0.00    -0.271 OA
ATOM     25  H   UNL     1     149.386 166.170 190.657  0.00  0.00    +0.030 HD
ATOM     26  H   UNL     1     150.353 169.017 190.037  0.00  0.00    +0.027 HD
ATOM     27  H   UNL     1     151.415 167.649 190.179  0.00  0.00    +0.027 HD
ATOM     28  H   UNL     1     151.449 169.016 192.211  0.00  0.00    +0.027 HD
ATOM     29  H   UNL     1     149.713 168.919 192.365  0.00  0.00    +0.027 HD
ATOM     30  H   UNL     1     150.003 166.356 192.737  0.00  0.00    +0.029 HD
ATOM     31  H   UNL     1     150.422 167.468 193.995  0.00  0.00    +0.029 HD
ATOM     32  H   UNL     1     152.821 167.272 193.561  0.00  0.00    +0.064 HD
ATOM     33  H   UNL     1     153.175 166.818 191.230  0.00  0.00    +0.060 HD
ATOM     34  H   UNL     1     152.188 163.994 191.962  0.00  0.00    +0.069 HD
ATOM     35  H   UNL     1     152.186 164.141 187.379  0.00  0.00    +0.042 HD
ATOM     36  H   UNL     1     151.699 167.176 187.215  0.00  0.00    +0.057 HD
ATOM     37  H   UNL     1     150.269 164.819 188.563  0.00  0.00    +0.057 HD
ATOM     38  H   UNL     1     148.407 166.405 188.278  0.00  0.00    +0.031 HD
ATOM     39  H   UNL     1     149.485 167.772 188.050  0.00  0.00    +0.031 HD
ATOM     40  H   UNL     1     152.831 166.198 185.250  0.00  0.00    +0.065 HD
ATOM     41  H   UNL     1     155.875 164.585 183.873  0.00  0.00    +0.054 HD
ATOM     42  H   UNL     1     154.493 165.746 183.502  0.00  0.00    +0.054 HD
ATOM     43  H   UNL     1     153.911 162.829 186.383  0.00  0.00    +0.035 HD
ATOM     44  H   UNL     1     155.002 163.371 188.354  0.00  0.00    +0.037 HD
ATOM     45  H   UNL     1     157.088 164.643 187.018  0.00  0.00    +0.051 HD
ATOM     46  H   UNL     1     156.675 167.049 187.288  0.00  0.00    +0.149 HD
ENDROOT
BRANCH   1  47
ATOM     47  C   UNL     1     147.951 167.748 190.477  0.00  0.00    -0.062 C 
ATOM     48  H   UNL     1     147.821 168.719 189.988  0.00  0.00    +0.023 HD
ATOM     49  H   UNL     1     147.847 167.891 191.556  0.00  0.00    +0.023 HD
ATOM     50  H   UNL     1     147.130 167.097 190.158  0.00  0.00    +0.023 HD
ENDBRANCH   1  47
BRANCH  19  51
ATOM     51  C   UNL     1     155.901 162.643 185.763  0.00  0.00    -0.058 C 
ATOM     52  H   UNL     1     155.539 161.632 185.541  0.00  0.00    +0.024 HD
ATOM     53  H   UNL     1     156.392 163.017 184.861  0.00  0.00    +0.024 HD
ATOM     54  H   UNL     1     156.662 162.552 186.547  0.00  0.00    +0.024 HD
ENDBRANCH  19  51
BRANCH  21  55
ATOM     55  C   UNL     1     156.957 164.784 189.174  0.00  0.00    -0.009 C 
ATOM     56  H   UNL     1     157.369 165.732 189.540  0.00  0.00    +0.033 HD
ATOM     57  H   UNL     1     156.171 164.501 189.887  0.00  0.00    +0.033 HD
BRANCH  55  58
ATOM     58  C   UNL     1     158.039 163.728 189.218  0.00  0.00    -0.046 A 
ATOM     59  C   UNL     1     158.657 163.295 188.037  0.00  0.00    -0.059 A 
ATOM     60  C   UNL     1     159.671 162.337 188.082  0.00  0.00    -0.062 A 
ATOM     61  C   UNL     1     160.078 161.808 189.306  0.00  0.00    -0.062 A 
ATOM     62  C   UNL     1     159.472 162.234 190.485  0.00  0.00    -0.062 A 
ATOM     63  C   UNL     1     158.457 163.191 190.443  0.00  0.00    -0.059 A 
ATOM     64  H   UNL     1     158.351 163.697 187.074  0.00  0.00    +0.062 HD
ATOM     65  H   UNL     1     160.144 162.002 187.162  0.00  0.00    +0.062 HD
ATOM     66  H   UNL     1     160.867 161.061 189.339  0.00  0.00    +0.062 HD
ATOM     67  H   UNL     1     159.788 161.821 191.440  0.00  0.00    +0.062 HD
ATOM     68  H   UNL     1     157.995 163.516 191.373  0.00  0.00    +0.062 HD
ENDBRANCH  55  58
ENDBRANCH  21  55
BRANCH  16  69
ATOM     69  O   UNL     1     151.893 164.406 184.951  0.00  0.00    -0.387 OA
ATOM     70  H   UNL     1     151.032 164.740 185.256  0.00  0.00    +0.210 HD
ENDBRANCH  16  69
BRANCH   5  71
ATOM     71  O   UNL     1     152.068 165.441 194.045  0.00  0.00    -0.388 OA
ATOM     72  H   UNL     1     151.250 164.954 193.851  0.00  0.00    +0.210 HD
ENDBRANCH   5  71
TORSDOF 6
ENDMDL
MODEL 10
REMARK VINA RESULT:      -6.4     10.849     13.770
REMARK  Name = Cytochalasin B_conf1
REMARK  6 active torsions:
REMARK  status: ('A' for Active; 'I' for Inactive)
REMARK    1  A    between atoms: C_1  and  C_2
REMARK    2  A    between atoms: C_6  and  O_35
REMARK    3  A    between atoms: C_17  and  O_34
REMARK    4  A    between atoms: C_20  and  C_33
REMARK    5  A    between atoms: C_22  and  C_26
REMARK    6  A    between atoms: C_26  and  C_27
REMARK                            x       y       z     vdW  Elec       q    Type
REMARK                         _______ _______ _______ _____ _____    ______ ____
ROOT
ATOM      1  C   UNL     1     153.524 166.434 188.498  0.00  0.00    -0.040 C 
ATOM      2  C   UNL     1     153.075 165.087 189.109  0.00  0.00    -0.050 C 
ATOM      3  C   UNL     1     153.736 164.687 190.440  0.00  0.00    -0.050 C 
ATOM      4  C   UNL     1     153.612 165.677 191.605  0.00  0.00    -0.023 C 
ATOM      5  C   UNL     1     152.296 165.633 192.401  0.00  0.00    +0.074 C 
ATOM      6  C   UNL     1     151.081 165.908 191.572  0.00  0.00    -0.049 C 
ATOM      7  C   UNL     1     150.480 167.100 191.429  0.00  0.00    +0.021 C 
ATOM      8  C   UNL     1     149.367 167.355 190.493  0.00  0.00    +0.333 C 
ATOM      9  O   UNL     1     148.929 168.477 190.290  0.00  0.00    -0.246 OA
ATOM     10  O   UNL     1     148.955 166.216 189.894  0.00  0.00    -0.444 OA
ATOM     11  C   UNL     1     148.100 166.311 188.729  0.00  0.00    +0.202 C 
ATOM     12  C   UNL     1     148.783 167.033 187.538  0.00  0.00    +0.056 C 
ATOM     13  C   UNL     1     150.197 166.535 187.245  0.00  0.00    -0.078 C 
ATOM     14  C   UNL     1     151.313 167.229 187.526  0.00  0.00    -0.087 C 
ATOM     15  C   UNL     1     152.711 166.757 187.224  0.00  0.00    -0.032 C 
ATOM     16  C   UNL     1     147.890 166.962 186.267  0.00  0.00    +0.087 C 
ATOM     17  C   UNL     1     146.403 166.970 186.577  0.00  0.00    -0.045 C 
ATOM     18  C   UNL     1     145.520 166.378 185.754  0.00  0.00    -0.097 C 
ATOM     19  C   UNL     1     146.055 167.645 187.891  0.00  0.00    -0.012 C 
ATOM     20  C   UNL     1     146.678 166.864 189.085  0.00  0.00    +0.033 C 
ATOM     21  C   UNL     1     145.898 165.613 189.547  0.00  0.00    +0.035 C 
ATOM     22  N   UNL     1     146.542 164.528 188.861  0.00  0.00    -0.308 N 
ATOM     23  C   UNL     1     147.794 164.841 188.389  0.00  0.00    +0.258 C 
ATOM     24  O   UNL     1     148.515 164.037 187.822  0.00  0.00    -0.271 OA
ATOM     25  H   UNL     1     153.355 167.240 189.222  0.00  0.00    +0.030 HD
ATOM     26  H   UNL     1     153.287 164.288 188.386  0.00  0.00    +0.027 HD
ATOM     27  H   UNL     1     151.989 165.080 189.227  0.00  0.00    +0.027 HD
ATOM     28  H   UNL     1     153.334 163.715 190.752  0.00  0.00    +0.027 HD
ATOM     29  H   UNL     1     154.803 164.516 190.253  0.00  0.00    +0.027 HD
ATOM     30  H   UNL     1     153.823 166.702 191.279  0.00  0.00    +0.029 HD
ATOM     31  H   UNL     1     154.421 165.451 192.314  0.00  0.00    +0.029 HD
ATOM     32  H   UNL     1     152.178 164.655 192.879  0.00  0.00    +0.064 HD
ATOM     33  H   UNL     1     150.702 165.045 191.026  0.00  0.00    +0.060 HD
ATOM     34  H   UNL     1     150.844 167.980 191.949  0.00  0.00    +0.069 HD
ATOM     35  H   UNL     1     148.887 168.095 187.805  0.00  0.00    +0.042 HD
ATOM     36  H   UNL     1     150.287 165.552 186.784  0.00  0.00    +0.057 HD
ATOM     37  H   UNL     1     151.230 168.213 187.986  0.00  0.00    +0.057 HD
ATOM     38  H   UNL     1     153.202 167.562 186.663  0.00  0.00    +0.031 HD
ATOM     39  H   UNL     1     152.693 165.886 186.557  0.00  0.00    +0.031 HD
ATOM     40  H   UNL     1     148.144 166.075 185.673  0.00  0.00    +0.065 HD
ATOM     41  H   UNL     1     144.455 166.348 185.959  0.00  0.00    +0.054 HD
ATOM     42  H   UNL     1     145.844 165.889 184.838  0.00  0.00    +0.054 HD
ATOM     43  H   UNL     1     146.561 168.623 187.864  0.00  0.00    +0.035 HD
ATOM     44  H   UNL     1     146.715 167.570 189.922  0.00  0.00    +0.037 HD
ATOM     45  H   UNL     1     144.854 165.621 189.226  0.00  0.00    +0.051 HD
ATOM     46  H   UNL     1     146.162 163.594 188.766  0.00  0.00    +0.149 HD
ENDROOT
BRANCH   1  47
ATOM     47  C   UNL     1     155.018 166.414 188.157  0.00  0.00    -0.062 C 
ATOM     48  H   UNL     1     155.590 167.051 188.840  0.00  0.00    +0.023 HD
ATOM     49  H   UNL     1     155.197 166.760 187.135  0.00  0.00    +0.023 HD
ATOM     50  H   UNL     1     155.419 165.397 188.228  0.00  0.00    +0.023 HD
ENDBRANCH   1  47
BRANCH  19  51
ATOM     51  C   UNL     1     144.579 167.998 188.106  0.00  0.00    -0.058 C 
ATOM     52  H   UNL     1     144.046 168.009 187.147  0.00  0.00    +0.024 HD
ATOM     53  H   UNL     1     144.057 167.293 188.759  0.00  0.00    +0.024 HD
ATOM     54  H   UNL     1     144.483 168.997 188.545  0.00  0.00    +0.024 HD
ENDBRANCH  19  51
BRANCH  21  55
ATOM     55  C   UNL     1     145.958 165.431 191.079  0.00  0.00    -0.009 C 
ATOM     56  H   UNL     1     146.233 164.403 191.346  0.00  0.00    +0.033 HD
ATOM     57  H   UNL     1     146.743 166.074 191.499  0.00  0.00    +0.033 HD
BRANCH  55  58
ATOM     58  C   UNL     1     144.649 165.780 191.752  0.00  0.00    -0.046 A 
ATOM     59  C   UNL     1     143.457 165.810 191.016  0.00  0.00    -0.059 A 
ATOM     60  C   UNL     1     142.248 166.110 191.644  0.00  0.00    -0.062 A 
ATOM     61  C   UNL     1     142.218 166.378 193.012  0.00  0.00    -0.062 A 
ATOM     62  C   UNL     1     143.397 166.348 193.752  0.00  0.00    -0.062 A 
ATOM     63  C   UNL     1     144.608 166.049 193.127  0.00  0.00    -0.059 A 
ATOM     64  H   UNL     1     143.462 165.603 189.948  0.00  0.00    +0.062 HD
ATOM     65  H   UNL     1     141.327 166.135 191.066  0.00  0.00    +0.062 HD
ATOM     66  H   UNL     1     141.276 166.613 193.499  0.00  0.00    +0.062 HD
ATOM     67  H   UNL     1     143.375 166.559 194.819  0.00  0.00    +0.062 HD
ATOM     68  H   UNL     1     145.521 166.027 193.719  0.00  0.00    +0.062 HD
ENDBRANCH  55  58
ENDBRANCH  21  55
BRANCH  16  69
ATOM     69  O   UNL     1     148.157 168.108 185.456  0.00  0.00    -0.387 OA
ATOM     70  H   UNL     1     148.601 168.760 186.024  0.00  0.00    +0.210 HD
ENDBRANCH  16  69
BRANCH   5  71
ATOM     71  O   UNL     1     152.368 166.603 193.444  0.00  0.00    -0.388 OA
ATOM     72  H   UNL     1     151.758 167.323 193.209  0.00  0.00    +0.210 HD
ENDBRANCH   5  71
TORSDOF 6
ENDMDL
