MODEL 1
REMARK VINA RESULT:      -6.8      0.000      0.000
REMARK  Name = Cytochalasin B_conf3
REMARK  6 active torsions:
REMARK  status: ('A' for Active; 'I' for Inactive)
REMARK    1  A    between atoms: C_1  and  C_2
REMARK    2  A    between atoms: C_6  and  O_35
REMARK    3  A    between atoms: C_17  and  O_34
REMARK    4  A    between atoms: C_20  and  C_33
REMARK    5  A    between atoms: C_22  and  C_26
REMARK    6  A    between atoms: C_26  and  C_27
REMARK                            x       y       z     vdW  Elec       q    Type
REMARK                         _______ _______ _______ _____ _____    ______ ____
ROOT
ATOM      1  C   UNL     1     162.068 171.860 182.928  0.00  0.00    -0.040 C 
ATOM      2  C   UNL     1     161.457 170.470 183.220  0.00  0.00    -0.050 C 
ATOM      3  C   UNL     1     160.095 170.557 183.901  0.00  0.00    -0.050 C 
ATOM      4  C   UNL     1     159.396 169.189 184.010  0.00  0.00    -0.023 C 
ATOM      5  C   UNL     1     157.948 169.291 184.535  0.00  0.00    +0.074 C 
ATOM      6  C   UNL     1     157.173 170.267 183.694  0.00  0.00    -0.049 C 
ATOM      7  C   UNL     1     156.824 171.504 184.091  0.00  0.00    +0.021 C 
ATOM      8  C   UNL     1     156.465 172.585 183.155  0.00  0.00    +0.333 C 
ATOM      9  O   UNL     1     156.275 173.733 183.527  0.00  0.00    -0.246 OA
ATOM     10  O   UNL     1     156.479 172.154 181.873  0.00  0.00    -0.444 OA
ATOM     11  C   UNL     1     156.551 173.141 180.819  0.00  0.00    +0.202 C 
ATOM     12  C   UNL     1     157.886 173.948 180.848  0.00  0.00    +0.056 C 
ATOM     13  C   UNL     1     159.168 173.107 180.887  0.00  0.00    -0.078 C 
ATOM     14  C   UNL     1     160.155 173.228 181.794  0.00  0.00    -0.087 C 
ATOM     15  C   UNL     1     161.493 172.538 181.657  0.00  0.00    -0.032 C 
ATOM     16  C   UNL     1     157.946 174.922 179.632  0.00  0.00    +0.087 C 
ATOM     17  C   UNL     1     156.606 175.536 179.269  0.00  0.00    -0.045 C 
ATOM     18  C   UNL     1     156.398 176.037 178.037  0.00  0.00    -0.097 C 
ATOM     19  C   UNL     1     155.574 175.495 180.377  0.00  0.00    -0.012 C 
ATOM     20  C   UNL     1     155.256 174.029 180.770  0.00  0.00    +0.033 C 
ATOM     21  C   UNL     1     154.302 173.273 179.819  0.00  0.00    +0.035 C 
ATOM     22  N   UNL     1     155.175 172.482 179.001  0.00  0.00    -0.308 N 
ATOM     23  C   UNL     1     156.433 172.322 179.523  0.00  0.00    +0.258 C 
ATOM     24  O   UNL     1     157.274 171.600 179.011  0.00  0.00    -0.271 OA
ATOM     25  H   UNL     1     161.911 172.515 183.793  0.00  0.00    +0.030 HD
ATOM     26  H   UNL     1     162.124 169.899 183.880  0.00  0.00    +0.027 HD
ATOM     27  H   UNL     1     161.379 169.899 182.287  0.00  0.00    +0.027 HD
ATOM     28  H   UNL     1     160.208 170.995 184.899  0.00  0.00    +0.027 HD
ATOM     29  H   UNL     1     159.473 171.238 183.322  0.00  0.00    +0.027 HD
ATOM     30  H   UNL     1     159.385 168.710 183.022  0.00  0.00    +0.029 HD
ATOM     31  H   UNL     1     159.983 168.547 184.679  0.00  0.00    +0.029 HD
ATOM     32  H   UNL     1     157.462 168.312 184.494  0.00  0.00    +0.064 HD
ATOM     33  H   UNL     1     157.061 169.977 182.651  0.00  0.00    +0.060 HD
ATOM     34  H   UNL     1     156.975 171.833 185.114  0.00  0.00    +0.069 HD
ATOM     35  H   UNL     1     157.898 174.554 181.764  0.00  0.00    +0.042 HD
ATOM     36  H   UNL     1     159.322 172.428 180.047  0.00  0.00    +0.057 HD
ATOM     37  H   UNL     1     160.055 173.938 182.613  0.00  0.00    +0.057 HD
ATOM     38  H   UNL     1     162.192 173.323 181.341  0.00  0.00    +0.031 HD
ATOM     39  H   UNL     1     161.468 171.810 180.836  0.00  0.00    +0.031 HD
ATOM     40  H   UNL     1     158.352 174.398 178.757  0.00  0.00    +0.065 HD
ATOM     41  H   UNL     1     157.193 176.029 177.295  0.00  0.00    +0.054 HD
ATOM     42  H   UNL     1     155.457 176.475 177.727  0.00  0.00    +0.054 HD
ATOM     43  H   UNL     1     156.061 175.956 181.250  0.00  0.00    +0.035 HD
ATOM     44  H   UNL     1     154.768 174.086 181.750  0.00  0.00    +0.037 HD
ATOM     45  H   UNL     1     153.752 173.938 179.151  0.00  0.00    +0.051 HD
ATOM     46  H   UNL     1     154.893 171.999 178.155  0.00  0.00    +0.149 HD
ENDROOT
BRANCH   1  47
ATOM     47  C   UNL     1     163.585 171.693 182.747  0.00  0.00    -0.062 C 
ATOM     48  H   UNL     1     163.850 171.652 181.685  0.00  0.00    +0.023 HD
ATOM     49  H   UNL     1     164.126 172.539 183.186  0.00  0.00    +0.023 HD
ATOM     50  H   UNL     1     163.943 170.775 183.224  0.00  0.00    +0.023 HD
ENDBRANCH   1  47
BRANCH  19  51
ATOM     51  C   UNL     1     154.312 176.342 180.166  0.00  0.00    -0.058 C 
ATOM     52  H   UNL     1     153.901 176.663 181.129  0.00  0.00    +0.024 HD
ATOM     53  H   UNL     1     153.523 175.812 179.624  0.00  0.00    +0.024 HD
ATOM     54  H   UNL     1     154.549 177.247 179.594  0.00  0.00    +0.024 HD
ENDBRANCH  19  51
BRANCH  21  55
ATOM     55  C   UNL     1     153.308 172.387 180.601  0.00  0.00    -0.009 C 
ATOM     56  H   UNL     1     153.731 172.132 181.582  0.00  0.00    +0.033 HD
ATOM     57  H   UNL     1     153.143 171.433 180.084  0.00  0.00    +0.033 HD
BRANCH  55  58
ATOM     58  C   UNL     1     151.978 173.070 180.823  0.00  0.00    -0.046 A 
ATOM     59  C   UNL     1     151.843 174.057 181.809  0.00  0.00    -0.059 A 
ATOM     60  C   UNL     1     150.610 174.671 182.030  0.00  0.00    -0.062 A 
ATOM     61  C   UNL     1     149.502 174.305 181.269  0.00  0.00    -0.062 A 
ATOM     62  C   UNL     1     149.625 173.324 180.287  0.00  0.00    -0.062 A 
ATOM     63  C   UNL     1     150.857 172.707 180.064  0.00  0.00    -0.059 A 
ATOM     64  H   UNL     1     152.698 174.351 182.414  0.00  0.00    +0.062 HD
ATOM     65  H   UNL     1     150.514 175.435 182.797  0.00  0.00    +0.062 HD
ATOM     66  H   UNL     1     148.542 174.784 181.441  0.00  0.00    +0.062 HD
ATOM     67  H   UNL     1     148.760 173.039 179.692  0.00  0.00    +0.062 HD
ATOM     68  H   UNL     1     150.935 171.944 179.294  0.00  0.00    +0.062 HD
ENDBRANCH  55  58
ENDBRANCH  21  55
BRANCH  16  69
ATOM     69  O   UNL     1     158.843 175.998 179.920  0.00  0.00    -0.387 OA
ATOM     70  H   UNL     1     158.531 176.781 179.438  0.00  0.00    +0.210 HD
ENDBRANCH  16  69
BRANCH   5  71
ATOM     71  O   UNL     1     157.959 169.714 185.892  0.00  0.00    -0.388 OA
ATOM     72  H   UNL     1     157.705 170.652 185.902  0.00  0.00    +0.210 HD
ENDBRANCH   5  71
TORSDOF 6
ENDMDL
MODEL 2
REMARK VINA RESULT:      -6.8     11.307     14.201
REMARK  Name = Cytochalasin B_conf3
REMARK  6 active torsions:
REMARK  status: ('A' for Active; 'I' for Inactive)
REMARK    1  A    between atoms: C_1  and  C_2
REMARK    2  A    between atoms: C_6  and  O_35
REMARK    3  A    between atoms: C_17  and  O_34
REMARK    4  A    between atoms: C_20  and  C_33
REMARK    5  A    between atoms: C_22  and  C_26
REMARK    6  A    between atoms: C_26  and  C_27
REMARK                            x       y       z     vdW  Elec       q    Type
REMARK                         _______ _______ _______ _____ _____    ______ ____
ROOT
ATOM      1  C   UNL     1     150.174 165.274 194.927  0.00  0.00    -0.040 C 
ATOM      2  C   UNL     1     151.381 166.108 194.438  0.00  0.00    -0.050 C 
ATOM      3  C   UNL     1     151.631 165.958 192.941  0.00  0.00    -0.050 C 
ATOM      4  C   UNL     1     152.699 166.936 192.416  0.00  0.00    -0.023 C 
ATOM      5  C   UNL     1     152.832 166.915 190.878  0.00  0.00    +0.074 C 
ATOM      6  C   UNL     1     151.486 167.142 190.250  0.00  0.00    -0.049 C 
ATOM      7  C   UNL     1     150.753 166.185 189.653  0.00  0.00    +0.021 C 
ATOM      8  C   UNL     1     149.299 166.294 189.435  0.00  0.00    +0.333 C 
ATOM      9  O   UNL     1     148.632 165.364 189.008  0.00  0.00    -0.246 OA
ATOM     10  O   UNL     1     148.824 167.488 189.857  0.00  0.00    -0.444 OA
ATOM     11  C   UNL     1     147.403 167.615 190.094  0.00  0.00    +0.202 C 
ATOM     12  C   UNL     1     146.908 166.701 191.256  0.00  0.00    +0.056 C 
ATOM     13  C   UNL     1     147.687 166.823 192.572  0.00  0.00    -0.078 C 
ATOM     14  C   UNL     1     148.247 165.801 193.247  0.00  0.00    -0.087 C 
ATOM     15  C   UNL     1     148.802 165.941 194.646  0.00  0.00    -0.032 C 
ATOM     16  C   UNL     1     145.394 166.958 191.528  0.00  0.00    +0.087 C 
ATOM     17  C   UNL     1     144.582 167.230 190.274  0.00  0.00    -0.045 C 
ATOM     18  C   UNL     1     143.402 167.871 190.354  0.00  0.00    -0.097 C 
ATOM     19  C   UNL     1     145.228 166.753 188.991  0.00  0.00    -0.012 C 
ATOM     20  C   UNL     1     146.582 167.475 188.762  0.00  0.00    +0.033 C 
ATOM     21  C   UNL     1     146.487 168.915 188.210  0.00  0.00    +0.035 C 
ATOM     22  N   UNL     1     146.652 169.747 189.367  0.00  0.00    -0.308 N 
ATOM     23  C   UNL     1     147.208 169.101 190.441  0.00  0.00    +0.258 C 
ATOM     24  O   UNL     1     147.511 169.676 191.475  0.00  0.00    -0.271 OA
ATOM     25  H   UNL     1     150.201 164.284 194.456  0.00  0.00    +0.030 HD
ATOM     26  H   UNL     1     152.292 165.790 194.962  0.00  0.00    +0.027 HD
ATOM     27  H   UNL     1     151.226 167.163 194.692  0.00  0.00    +0.027 HD
ATOM     28  H   UNL     1     151.932 164.927 192.718  0.00  0.00    +0.027 HD
ATOM     29  H   UNL     1     150.690 166.134 192.424  0.00  0.00    +0.027 HD
ATOM     30  H   UNL     1     152.444 167.954 192.738  0.00  0.00    +0.029 HD
ATOM     31  H   UNL     1     153.664 166.680 192.871  0.00  0.00    +0.029 HD
ATOM     32  H   UNL     1     153.522 167.697 190.548  0.00  0.00    +0.064 HD
ATOM     33  H   UNL     1     151.042 168.112 190.468  0.00  0.00    +0.060 HD
ATOM     34  H   UNL     1     151.157 165.193 189.473  0.00  0.00    +0.069 HD
ATOM     35  H   UNL     1     147.020 165.656 190.938  0.00  0.00    +0.042 HD
ATOM     36  H   UNL     1     147.693 167.810 193.036  0.00  0.00    +0.057 HD
ATOM     37  H   UNL     1     148.207 164.794 192.837  0.00  0.00    +0.057 HD
ATOM     38  H   UNL     1     148.054 165.476 195.302  0.00  0.00    +0.031 HD
ATOM     39  H   UNL     1     148.844 166.997 194.940  0.00  0.00    +0.031 HD
ATOM     40  H   UNL     1     145.281 167.801 192.222  0.00  0.00    +0.065 HD
ATOM     41  H   UNL     1     143.004 168.182 191.318  0.00  0.00    +0.054 HD
ATOM     42  H   UNL     1     142.790 168.097 189.488  0.00  0.00    +0.054 HD
ATOM     43  H   UNL     1     145.464 165.691 189.155  0.00  0.00    +0.035 HD
ATOM     44  H   UNL     1     147.115 166.873 188.018  0.00  0.00    +0.037 HD
ATOM     45  H   UNL     1     145.507 169.146 187.788  0.00  0.00    +0.051 HD
ATOM     46  H   UNL     1     146.468 170.743 189.393  0.00  0.00    +0.149 HD
ENDROOT
BRANCH   1  47
ATOM     47  C   UNL     1     150.313 165.066 196.443  0.00  0.00    -0.062 C 
ATOM     48  H   UNL     1     151.367 165.059 196.742  0.00  0.00    +0.023 HD
ATOM     49  H   UNL     1     149.822 165.876 196.995  0.00  0.00    +0.023 HD
ATOM     50  H   UNL     1     149.863 164.118 196.757  0.00  0.00    +0.023 HD
ENDBRANCH   1  47
BRANCH  19  51
ATOM     51  C   UNL     1     144.338 166.747 187.740  0.00  0.00    -0.058 C 
ATOM     52  H   UNL     1     144.350 167.731 187.257  0.00  0.00    +0.024 HD
ATOM     53  H   UNL     1     143.297 166.490 187.953  0.00  0.00    +0.024 HD
ATOM     54  H   UNL     1     144.711 166.020 187.009  0.00  0.00    +0.024 HD
ENDBRANCH  19  51
BRANCH  21  55
ATOM     55  C   UNL     1     147.582 169.191 187.157  0.00  0.00    -0.009 C 
ATOM     56  H   UNL     1     148.568 169.199 187.641  0.00  0.00    +0.033 HD
ATOM     57  H   UNL     1     147.455 170.186 186.712  0.00  0.00    +0.033 HD
BRANCH  55  58
ATOM     58  C   UNL     1     147.602 168.152 186.059  0.00  0.00    -0.046 A 
ATOM     59  C   UNL     1     148.676 167.259 185.948  0.00  0.00    -0.059 A 
ATOM     60  C   UNL     1     148.707 166.315 184.922  0.00  0.00    -0.062 A 
ATOM     61  C   UNL     1     147.666 166.256 183.997  0.00  0.00    -0.062 A 
ATOM     62  C   UNL     1     146.595 167.141 184.097  0.00  0.00    -0.062 A 
ATOM     63  C   UNL     1     146.562 168.086 185.123  0.00  0.00    -0.059 A 
ATOM     64  H   UNL     1     149.498 167.295 186.661  0.00  0.00    +0.062 HD
ATOM     65  H   UNL     1     149.544 165.625 184.843  0.00  0.00    +0.062 HD
ATOM     66  H   UNL     1     147.691 165.519 183.198  0.00  0.00    +0.062 HD
ATOM     67  H   UNL     1     145.782 167.094 183.376  0.00  0.00    +0.062 HD
ATOM     68  H   UNL     1     145.718 168.769 185.186  0.00  0.00    +0.062 HD
ENDBRANCH  55  58
ENDBRANCH  21  55
BRANCH  16  69
ATOM     69  O   UNL     1     144.819 165.816 192.169  0.00  0.00    -0.387 OA
ATOM     70  H   UNL     1     143.923 165.699 191.817  0.00  0.00    +0.210 HD
ENDBRANCH  16  69
BRANCH   5  71
ATOM     71  O   UNL     1     153.363 165.664 190.460  0.00  0.00    -0.388 OA
ATOM     72  H   UNL     1     153.870 165.826 189.647  0.00  0.00    +0.210 HD
ENDBRANCH   5  71
TORSDOF 6
ENDMDL
MODEL 3
REMARK VINA RESULT:      -6.6     12.237     14.914
REMARK  Name = Cytochalasin B_conf3
REMARK  6 active torsions:
REMARK  status: ('A' for Active; 'I' for Inactive)
REMARK    1  A    between atoms: C_1  and  C_2
REMARK    2  A    between atoms: C_6  and  O_35
REMARK    3  A    between atoms: C_17  and  O_34
REMARK    4  A    between atoms: C_20  and  C_33
REMARK    5  A    between atoms: C_22  and  C_26
REMARK    6  A    between atoms: C_26  and  C_27
REMARK                            x       y       z     vdW  Elec       q    Type
REMARK                         _______ _______ _______ _____ _____    ______ ____
ROOT
ATOM      1  C   UNL     1     144.428 168.225 186.008  0.00  0.00    -0.040 C 
ATOM      2  C   UNL     1     144.260 166.704 186.231  0.00  0.00    -0.050 C 
ATOM      3  C   UNL     1     145.592 165.991 186.445  0.00  0.00    -0.050 C 
ATOM      4  C   UNL     1     145.417 164.520 186.866  0.00  0.00    -0.023 C 
ATOM      5  C   UNL     1     146.748 163.842 187.255  0.00  0.00    +0.074 C 
ATOM      6  C   UNL     1     147.446 164.661 188.305  0.00  0.00    -0.049 C 
ATOM      7  C   UNL     1     148.531 165.423 188.079  0.00  0.00    +0.021 C 
ATOM      8  C   UNL     1     148.943 166.530 188.960  0.00  0.00    +0.333 C 
ATOM      9  O   UNL     1     149.855 167.290 188.671  0.00  0.00    -0.246 OA
ATOM     10  O   UNL     1     148.128 166.636 190.035  0.00  0.00    -0.444 OA
ATOM     11  C   UNL     1     148.127 167.879 190.775  0.00  0.00    +0.202 C 
ATOM     12  C   UNL     1     147.609 169.079 189.923  0.00  0.00    +0.056 C 
ATOM     13  C   UNL     1     146.258 168.863 189.229  0.00  0.00    -0.078 C 
ATOM     14  C   UNL     1     146.020 169.030 187.914  0.00  0.00    -0.087 C 
ATOM     15  C   UNL     1     144.630 169.028 187.319  0.00  0.00    -0.032 C 
ATOM     16  C   UNL     1     147.536 170.364 190.803  0.00  0.00    +0.087 C 
ATOM     17  C   UNL     1     148.663 170.480 191.815  0.00  0.00    -0.045 C 
ATOM     18  C   UNL     1     148.525 171.266 192.899  0.00  0.00    -0.097 C 
ATOM     19  C   UNL     1     149.880 169.636 191.501  0.00  0.00    -0.012 C 
ATOM     20  C   UNL     1     149.507 168.131 191.481  0.00  0.00    +0.033 C 
ATOM     21  C   UNL     1     149.365 167.458 192.864  0.00  0.00    +0.035 C 
ATOM     22  N   UNL     1     147.950 167.433 193.099  0.00  0.00    -0.308 N 
ATOM     23  C   UNL     1     147.195 167.608 191.968  0.00  0.00    +0.258 C 
ATOM     24  O   UNL     1     145.978 167.518 191.965  0.00  0.00    -0.271 OA
ATOM     25  H   UNL     1     145.277 168.403 185.337  0.00  0.00    +0.030 HD
ATOM     26  H   UNL     1     143.775 166.249 185.358  0.00  0.00    +0.027 HD
ATOM     27  H   UNL     1     143.595 166.529 187.085  0.00  0.00    +0.027 HD
ATOM     28  H   UNL     1     146.191 166.045 185.529  0.00  0.00    +0.027 HD
ATOM     29  H   UNL     1     146.140 166.528 187.217  0.00  0.00    +0.027 HD
ATOM     30  H   UNL     1     144.728 164.468 187.719  0.00  0.00    +0.029 HD
ATOM     31  H   UNL     1     144.955 163.970 186.037  0.00  0.00    +0.029 HD
ATOM     32  H   UNL     1     146.560 162.837 187.646  0.00  0.00    +0.064 HD
ATOM     33  H   UNL     1     146.904 164.749 189.245  0.00  0.00    +0.060 HD
ATOM     34  H   UNL     1     149.056 165.391 187.129  0.00  0.00    +0.069 HD
ATOM     35  H   UNL     1     148.333 169.263 189.119  0.00  0.00    +0.042 HD
ATOM     36  H   UNL     1     145.410 168.655 189.883  0.00  0.00    +0.057 HD
ATOM     37  H   UNL     1     146.836 169.293 187.244  0.00  0.00    +0.057 HD
ATOM     38  H   UNL     1     144.402 170.082 187.115  0.00  0.00    +0.031 HD
ATOM     39  H   UNL     1     143.893 168.701 188.064  0.00  0.00    +0.031 HD
ATOM     40  H   UNL     1     146.574 170.398 191.330  0.00  0.00    +0.065 HD
ATOM     41  H   UNL     1     147.616 171.843 193.053  0.00  0.00    +0.054 HD
ATOM     42  H   UNL     1     149.295 171.374 193.654  0.00  0.00    +0.054 HD
ATOM     43  H   UNL     1     150.167 169.902 190.472  0.00  0.00    +0.035 HD
ATOM     44  H   UNL     1     150.328 167.631 190.955  0.00  0.00    +0.037 HD
ATOM     45  H   UNL     1     149.813 168.042 193.670  0.00  0.00    +0.051 HD
ATOM     46  H   UNL     1     147.517 167.219 193.990  0.00  0.00    +0.149 HD
ENDROOT
BRANCH   1  47
ATOM     47  C   UNL     1     143.168 168.752 185.304  0.00  0.00    -0.062 C 
ATOM     48  H   UNL     1     142.453 169.155 186.030  0.00  0.00    +0.023 HD
ATOM     49  H   UNL     1     143.418 169.562 184.609  0.00  0.00    +0.023 HD
ATOM     50  H   UNL     1     142.668 167.959 184.738  0.00  0.00    +0.023 HD
ENDBRANCH   1  47
BRANCH  19  51
ATOM     51  C   UNL     1     151.142 169.926 192.325  0.00  0.00    -0.058 C 
ATOM     52  H   UNL     1     151.012 169.581 193.357  0.00  0.00    +0.024 HD
ATOM     53  H   UNL     1     151.403 170.987 192.356  0.00  0.00    +0.024 HD
ATOM     54  H   UNL     1     152.003 169.389 191.907  0.00  0.00    +0.024 HD
ENDBRANCH  19  51
BRANCH  21  55
ATOM     55  C   UNL     1     149.961 166.033 192.864  0.00  0.00    -0.009 C 
ATOM     56  H   UNL     1     149.354 165.378 192.226  0.00  0.00    +0.033 HD
ATOM     57  H   UNL     1     149.926 165.594 193.870  0.00  0.00    +0.033 HD
BRANCH  55  58
ATOM     58  C   UNL     1     151.384 166.003 192.357  0.00  0.00    -0.046 A 
ATOM     59  C   UNL     1     152.414 166.599 193.098  0.00  0.00    -0.059 A 
ATOM     60  C   UNL     1     153.724 166.591 192.620  0.00  0.00    -0.062 A 
ATOM     61  C   UNL     1     154.018 165.987 191.398  0.00  0.00    -0.062 A 
ATOM     62  C   UNL     1     153.001 165.393 190.654  0.00  0.00    -0.062 A 
ATOM     63  C   UNL     1     151.689 165.400 191.130  0.00  0.00    -0.059 A 
ATOM     64  H   UNL     1     152.200 167.078 194.051  0.00  0.00    +0.062 HD
ATOM     65  H   UNL     1     154.517 167.056 193.200  0.00  0.00    +0.062 HD
ATOM     66  H   UNL     1     155.039 165.981 191.027  0.00  0.00    +0.062 HD
ATOM     67  H   UNL     1     153.231 164.921 189.701  0.00  0.00    +0.062 HD
ATOM     68  H   UNL     1     150.908 164.931 190.535  0.00  0.00    +0.062 HD
ENDBRANCH  55  58
ENDBRANCH  21  55
BRANCH  16  69
ATOM     69  O   UNL     1     147.591 171.523 189.969  0.00  0.00    -0.387 OA
ATOM     70  H   UNL     1     147.076 172.223 190.400  0.00  0.00    +0.210 HD
ENDBRANCH  16  69
BRANCH   5  71
ATOM     71  O   UNL     1     147.574 163.712 186.105  0.00  0.00    -0.388 OA
ATOM     72  H   UNL     1     147.249 164.347 185.446  0.00  0.00    +0.210 HD
ENDBRANCH   5  71
TORSDOF 6
ENDMDL
MODEL 4
REMARK VINA RESULT:      -6.6      2.194      7.451
REMARK  Name = Cytochalasin B_conf3
REMARK  6 active torsions:
REMARK  status: ('A' for Active; 'I' for Inactive)
REMARK    1  A    between atoms: C_1  and  C_2
REMARK    2  A    between atoms: C_6  and  O_35
REMARK    3  A    between atoms: C_17  and  O_34
REMARK    4  A    between atoms: C_20  and  C_33
REMARK    5  A    between atoms: C_22  and  C_26
REMARK    6  A    between atoms: C_26  and  C_27
REMARK                            x       y       z     vdW  Elec       q    Type
REMARK                         _______ _______ _______ _____ _____    ______ ____
ROOT
ATOM      1  C   UNL     1     153.881 176.992 179.296  0.00  0.00    -0.040 C 
ATOM      2  C   UNL     1     152.570 176.343 179.799  0.00  0.00    -0.050 C 
ATOM      3  C   UNL     1     152.537 174.835 179.576  0.00  0.00    -0.050 C 
ATOM      4  C   UNL     1     151.329 174.160 180.253  0.00  0.00    -0.023 C 
ATOM      5  C   UNL     1     151.382 172.619 180.183  0.00  0.00    +0.074 C 
ATOM      6  C   UNL     1     152.694 172.131 180.730  0.00  0.00    -0.049 C 
ATOM      7  C   UNL     1     153.703 171.655 179.978  0.00  0.00    +0.021 C 
ATOM      8  C   UNL     1     155.100 171.591 180.443  0.00  0.00    +0.333 C 
ATOM      9  O   UNL     1     156.019 171.275 179.702  0.00  0.00    -0.246 OA
ATOM     10  O   UNL     1     155.216 172.015 181.721  0.00  0.00    -0.444 OA
ATOM     11  C   UNL     1     156.526 172.399 182.200  0.00  0.00    +0.202 C 
ATOM     12  C   UNL     1     157.094 173.643 181.449  0.00  0.00    +0.056 C 
ATOM     13  C   UNL     1     156.164 174.861 181.388  0.00  0.00    -0.078 C 
ATOM     14  C   UNL     1     155.799 175.511 180.267  0.00  0.00    -0.087 C 
ATOM     15  C   UNL     1     155.070 176.835 180.279  0.00  0.00    -0.032 C 
ATOM     16  C   UNL     1     158.457 174.067 182.077  0.00  0.00    +0.087 C 
ATOM     17  C   UNL     1     159.316 172.898 182.528  0.00  0.00    -0.045 C 
ATOM     18  C   UNL     1     160.286 173.080 183.443  0.00  0.00    -0.097 C 
ATOM     19  C   UNL     1     158.958 171.572 181.892  0.00  0.00    -0.012 C 
ATOM     20  C   UNL     1     157.503 171.170 182.254  0.00  0.00    +0.033 C 
ATOM     21  C   UNL     1     157.304 170.577 183.666  0.00  0.00    +0.035 C 
ATOM     22  N   UNL     1     156.809 171.676 184.443  0.00  0.00    -0.308 N 
ATOM     23  C   UNL     1     156.309 172.708 183.691  0.00  0.00    +0.258 C 
ATOM     24  O   UNL     1     155.759 173.680 184.184  0.00  0.00    -0.271 OA
ATOM     25  H   UNL     1     154.151 176.560 178.325  0.00  0.00    +0.030 HD
ATOM     26  H   UNL     1     151.711 176.778 179.271  0.00  0.00    +0.027 HD
ATOM     27  H   UNL     1     152.431 176.572 180.863  0.00  0.00    +0.027 HD
ATOM     28  H   UNL     1     152.525 174.621 178.500  0.00  0.00    +0.027 HD
ATOM     29  H   UNL     1     153.459 174.416 179.974  0.00  0.00    +0.027 HD
ATOM     30  H   UNL     1     151.288 174.468 181.306  0.00  0.00    +0.029 HD
ATOM     31  H   UNL     1     150.411 174.518 179.771  0.00  0.00    +0.029 HD
ATOM     32  H   UNL     1     150.563 172.187 180.766  0.00  0.00    +0.064 HD
ATOM     33  H   UNL     1     152.858 172.359 181.782  0.00  0.00    +0.060 HD
ATOM     34  H   UNL     1     153.577 171.471 178.916  0.00  0.00    +0.069 HD
ATOM     35  H   UNL     1     157.279 173.355 180.406  0.00  0.00    +0.042 HD
ATOM     36  H   UNL     1     155.863 175.283 182.348  0.00  0.00    +0.057 HD
ATOM     37  H   UNL     1     156.131 175.146 179.297  0.00  0.00    +0.057 HD
ATOM     38  H   UNL     1     155.829 177.585 180.022  0.00  0.00    +0.031 HD
ATOM     39  H   UNL     1     154.737 177.082 181.296  0.00  0.00    +0.031 HD
ATOM     40  H   UNL     1     158.281 174.735 182.929  0.00  0.00    +0.065 HD
ATOM     41  H   UNL     1     160.482 174.069 183.853  0.00  0.00    +0.054 HD
ATOM     42  H   UNL     1     160.918 172.277 183.805  0.00  0.00    +0.054 HD
ATOM     43  H   UNL     1     158.973 171.750 180.806  0.00  0.00    +0.035 HD
ATOM     44  H   UNL     1     157.222 170.397 181.529  0.00  0.00    +0.037 HD
ATOM     45  H   UNL     1     158.240 170.254 184.128  0.00  0.00    +0.051 HD
ATOM     46  H   UNL     1     156.739 171.683 185.454  0.00  0.00    +0.149 HD
ENDROOT
BRANCH   1  47
ATOM     47  C   UNL     1     153.625 178.491 179.076  0.00  0.00    -0.062 C 
ATOM     48  H   UNL     1     154.288 178.892 178.301  0.00  0.00    +0.023 HD
ATOM     49  H   UNL     1     152.595 178.667 178.748  0.00  0.00    +0.023 HD
ATOM     50  H   UNL     1     153.793 179.062 179.996  0.00  0.00    +0.023 HD
ENDBRANCH   1  47
BRANCH  19  51
ATOM     51  C   UNL     1     159.958 170.426 182.094  0.00  0.00    -0.058 C 
ATOM     52  H   UNL     1     160.692 170.410 181.280  0.00  0.00    +0.024 HD
ATOM     53  H   UNL     1     159.484 169.442 182.137  0.00  0.00    +0.024 HD
ATOM     54  H   UNL     1     160.513 170.562 183.031  0.00  0.00    +0.024 HD
ENDBRANCH  19  51
BRANCH  21  55
ATOM     55  C   UNL     1     156.303 169.402 183.650  0.00  0.00    -0.009 C 
ATOM     56  H   UNL     1     156.239 168.983 182.638  0.00  0.00    +0.033 HD
ATOM     57  H   UNL     1     155.291 169.746 183.900  0.00  0.00    +0.033 HD
BRANCH  55  58
ATOM     58  C   UNL     1     156.698 168.293 184.598  0.00  0.00    -0.046 A 
ATOM     59  C   UNL     1     155.717 167.526 185.242  0.00  0.00    -0.059 A 
ATOM     60  C   UNL     1     156.081 166.517 186.134  0.00  0.00    -0.062 A 
ATOM     61  C   UNL     1     157.428 166.265 186.390  0.00  0.00    -0.062 A 
ATOM     62  C   UNL     1     158.411 167.023 185.757  0.00  0.00    -0.062 A 
ATOM     63  C   UNL     1     158.049 168.033 184.865  0.00  0.00    -0.059 A 
ATOM     64  H   UNL     1     154.662 167.713 185.054  0.00  0.00    +0.062 HD
ATOM     65  H   UNL     1     155.314 165.928 186.628  0.00  0.00    +0.062 HD
ATOM     66  H   UNL     1     157.710 165.479 187.085  0.00  0.00    +0.062 HD
ATOM     67  H   UNL     1     159.461 166.825 185.957  0.00  0.00    +0.062 HD
ATOM     68  H   UNL     1     158.830 168.614 184.379  0.00  0.00    +0.062 HD
ENDBRANCH  55  58
ENDBRANCH  21  55
BRANCH  16  69
ATOM     69  O   UNL     1     159.218 174.809 181.120  0.00  0.00    -0.387 OA
ATOM     70  H   UNL     1     160.155 174.721 181.355  0.00  0.00    +0.210 HD
ENDBRANCH  16  69
BRANCH   5  71
ATOM     71  O   UNL     1     151.225 172.195 178.835  0.00  0.00    -0.388 OA
ATOM     72  H   UNL     1     151.957 171.586 178.640  0.00  0.00    +0.210 HD
ENDBRANCH   5  71
TORSDOF 6
ENDMDL
MODEL 5
REMARK VINA RESULT:      -6.5      2.703      4.449
REMARK  Name = Cytochalasin B_conf3
REMARK  6 active torsions:
REMARK  status: ('A' for Active; 'I' for Inactive)
REMARK    1  A    between atoms: C_1  and  C_2
REMARK    2  A    between atoms: C_6  and  O_35
REMARK    3  A    between atoms: C_17  and  O_34
REMARK    4  A    between atoms: C_20  and  C_33
REMARK    5  A    between atoms: C_22  and  C_26
REMARK    6  A    between atoms: C_26  and  C_27
REMARK                            x       y       z     vdW  Elec       q    Type
REMARK                         _______ _______ _______ _____ _____    ______ ____
ROOT
ATOM      1  C   UNL     1     161.402 166.025 185.330  0.00  0.00    -0.040 C 
ATOM      2  C   UNL     1     160.371 165.037 184.735  0.00  0.00    -0.050 C 
ATOM      3  C   UNL     1     158.931 165.422 185.061  0.00  0.00    -0.050 C 
ATOM      4  C   UNL     1     157.900 164.561 184.307  0.00  0.00    -0.023 C 
ATOM      5  C   UNL     1     156.450 165.056 184.493  0.00  0.00    +0.074 C 
ATOM      6  C   UNL     1     156.361 166.511 184.127  0.00  0.00    -0.049 C 
ATOM      7  C   UNL     1     156.237 167.513 185.016  0.00  0.00    +0.021 C 
ATOM      8  C   UNL     1     156.580 168.914 184.712  0.00  0.00    +0.333 C 
ATOM      9  O   UNL     1     156.582 169.785 185.568  0.00  0.00    -0.246 OA
ATOM     10  O   UNL     1     156.973 169.059 183.426  0.00  0.00    -0.444 OA
ATOM     11  C   UNL     1     157.716 170.246 183.066  0.00  0.00    +0.202 C 
ATOM     12  C   UNL     1     159.099 170.324 183.782  0.00  0.00    +0.056 C 
ATOM     13  C   UNL     1     159.982 169.077 183.655  0.00  0.00    -0.078 C 
ATOM     14  C   UNL     1     160.532 168.400 184.680  0.00  0.00    -0.087 C 
ATOM     15  C   UNL     1     161.574 167.321 184.495  0.00  0.00    -0.032 C 
ATOM     16  C   UNL     1     159.891 171.569 183.277  0.00  0.00    +0.087 C 
ATOM     17  C   UNL     1     159.019 172.783 183.007  0.00  0.00    -0.045 C 
ATOM     18  C   UNL     1     159.452 173.763 182.191  0.00  0.00    -0.097 C 
ATOM     19  C   UNL     1     157.670 172.755 183.693  0.00  0.00    -0.012 C 
ATOM     20  C   UNL     1     156.837 171.541 183.206  0.00  0.00    +0.033 C 
ATOM     21  C   UNL     1     156.161 171.703 181.827  0.00  0.00    +0.035 C 
ATOM     22  N   UNL     1     157.031 171.007 180.924  0.00  0.00    -0.308 N 
ATOM     23  C   UNL     1     157.892 170.136 181.542  0.00  0.00    +0.258 C 
ATOM     24  O   UNL     1     158.634 169.389 180.923  0.00  0.00    -0.271 OA
ATOM     25  H   UNL     1     161.106 166.288 186.353  0.00  0.00    +0.030 HD
ATOM     26  H   UNL     1     160.546 164.029 185.135  0.00  0.00    +0.027 HD
ATOM     27  H   UNL     1     160.509 164.971 183.649  0.00  0.00    +0.027 HD
ATOM     28  H   UNL     1     158.763 165.340 186.141  0.00  0.00    +0.027 HD
ATOM     29  H   UNL     1     158.795 166.469 184.796  0.00  0.00    +0.027 HD
ATOM     30  H   UNL     1     158.144 164.562 183.237  0.00  0.00    +0.029 HD
ATOM     31  H   UNL     1     157.982 163.525 184.660  0.00  0.00    +0.029 HD
ATOM     32  H   UNL     1     155.771 164.480 183.857  0.00  0.00    +0.064 HD
ATOM     33  H   UNL     1     156.589 166.730 183.085  0.00  0.00    +0.060 HD
ATOM     34  H   UNL     1     156.063 167.316 186.069  0.00  0.00    +0.069 HD
ATOM     35  H   UNL     1     158.919 170.454 184.858  0.00  0.00    +0.042 HD
ATOM     36  H   UNL     1     160.259 168.787 182.640  0.00  0.00    +0.057 HD
ATOM     37  H   UNL     1     160.320 168.700 185.704  0.00  0.00    +0.057 HD
ATOM     38  H   UNL     1     162.527 167.787 184.778  0.00  0.00    +0.031 HD
ATOM     39  H   UNL     1     161.673 167.060 183.433  0.00  0.00    +0.031 HD
ATOM     40  H   UNL     1     160.444 171.312 182.366  0.00  0.00    +0.065 HD
ATOM     41  H   UNL     1     160.438 173.708 181.735  0.00  0.00    +0.054 HD
ATOM     42  H   UNL     1     158.864 174.643 181.959  0.00  0.00    +0.054 HD
ATOM     43  H   UNL     1     157.884 172.581 184.759  0.00  0.00    +0.035 HD
ATOM     44  H   UNL     1     156.042 171.412 183.949  0.00  0.00    +0.037 HD
ATOM     45  H   UNL     1     156.118 172.742 181.493  0.00  0.00    +0.051 HD
ATOM     46  H   UNL     1     156.980 171.064 179.913  0.00  0.00    +0.149 HD
ENDROOT
BRANCH   1  47
ATOM     47  C   UNL     1     162.761 165.314 185.412  0.00  0.00    -0.062 C 
ATOM     48  H   UNL     1     163.331 165.450 184.486  0.00  0.00    +0.023 HD
ATOM     49  H   UNL     1     163.366 165.722 186.230  0.00  0.00    +0.023 HD
ATOM     50  H   UNL     1     162.638 164.239 185.582  0.00  0.00    +0.023 HD
ENDBRANCH   1  47
BRANCH  19  51
ATOM     51  C   UNL     1     156.872 174.066 183.684  0.00  0.00    -0.058 C 
ATOM     52  H   UNL     1     157.064 174.624 182.761  0.00  0.00    +0.024 HD
ATOM     53  H   UNL     1     157.108 174.720 184.527  0.00  0.00    +0.024 HD
ATOM     54  H   UNL     1     155.796 173.859 183.722  0.00  0.00    +0.024 HD
ENDBRANCH  19  51
BRANCH  21  55
ATOM     55  C   UNL     1     154.741 171.098 181.818  0.00  0.00    -0.009 C 
ATOM     56  H   UNL     1     154.497 170.709 182.816  0.00  0.00    +0.033 HD
ATOM     57  H   UNL     1     154.684 170.239 181.137  0.00  0.00    +0.033 HD
BRANCH  55  58
ATOM     58  C   UNL     1     153.684 172.108 181.433  0.00  0.00    -0.046 A 
ATOM     59  C   UNL     1     153.544 173.299 182.159  0.00  0.00    -0.059 A 
ATOM     60  C   UNL     1     152.555 174.222 181.818  0.00  0.00    -0.062 A 
ATOM     61  C   UNL     1     151.698 173.963 180.750  0.00  0.00    -0.062 A 
ATOM     62  C   UNL     1     151.828 172.782 180.023  0.00  0.00    -0.062 A 
ATOM     63  C   UNL     1     152.816 171.857 180.362  0.00  0.00    -0.059 A 
ATOM     64  H   UNL     1     154.203 173.513 182.997  0.00  0.00    +0.062 HD
ATOM     65  H   UNL     1     152.453 175.143 182.386  0.00  0.00    +0.062 HD
ATOM     66  H   UNL     1     150.928 174.684 180.485  0.00  0.00    +0.062 HD
ATOM     67  H   UNL     1     151.160 172.582 179.189  0.00  0.00    +0.062 HD
ATOM     68  H   UNL     1     152.904 170.940 179.783  0.00  0.00    +0.062 HD
ENDBRANCH  55  58
ENDBRANCH  21  55
BRANCH  16  69
ATOM     69  O   UNL     1     160.862 171.952 184.255  0.00  0.00    -0.387 OA
ATOM     70  H   UNL     1     161.741 171.835 183.860  0.00  0.00    +0.210 HD
ENDBRANCH  16  69
BRANCH   5  71
ATOM     71  O   UNL     1     156.047 164.864 185.843  0.00  0.00    -0.388 OA
ATOM     72  H   UNL     1     155.092 165.036 185.883  0.00  0.00    +0.210 HD
ENDBRANCH   5  71
TORSDOF 6
ENDMDL
MODEL 6
REMARK VINA RESULT:      -6.5      2.761      6.041
REMARK  Name = Cytochalasin B_conf3
REMARK  6 active torsions:
REMARK  status: ('A' for Active; 'I' for Inactive)
REMARK    1  A    between atoms: C_1  and  C_2
REMARK    2  A    between atoms: C_6  and  O_35
REMARK    3  A    between atoms: C_17  and  O_34
REMARK    4  A    between atoms: C_20  and  C_33
REMARK    5  A    between atoms: C_22  and  C_26
REMARK    6  A    between atoms: C_26  and  C_27
REMARK                            x       y       z     vdW  Elec       q    Type
REMARK                         _______ _______ _______ _____ _____    ______ ____
ROOT
ATOM      1  C   UNL     1     164.205 167.692 182.108  0.00  0.00    -0.040 C 
ATOM      2  C   UNL     1     164.734 168.987 182.768  0.00  0.00    -0.050 C 
ATOM      3  C   UNL     1     164.021 170.238 182.266  0.00  0.00    -0.050 C 
ATOM      4  C   UNL     1     164.402 171.500 183.062  0.00  0.00    -0.023 C 
ATOM      5  C   UNL     1     163.557 172.733 182.678  0.00  0.00    +0.074 C 
ATOM      6  C   UNL     1     162.095 172.402 182.792  0.00  0.00    -0.049 C 
ATOM      7  C   UNL     1     161.278 172.196 181.744  0.00  0.00    +0.021 C 
ATOM      8  C   UNL     1     160.001 171.465 181.842  0.00  0.00    +0.333 C 
ATOM      9  O   UNL     1     159.336 171.180 180.857  0.00  0.00    -0.246 OA
ATOM     10  O   UNL     1     159.744 171.088 183.115  0.00  0.00    -0.444 OA
ATOM     11  C   UNL     1     158.772 170.040 183.336  0.00  0.00    +0.202 C 
ATOM     12  C   UNL     1     159.222 168.673 182.734  0.00  0.00    +0.056 C 
ATOM     13  C   UNL     1     160.625 168.201 183.137  0.00  0.00    -0.078 C 
ATOM     14  C   UNL     1     161.604 167.844 182.285  0.00  0.00    -0.087 C 
ATOM     15  C   UNL     1     162.883 167.172 182.731  0.00  0.00    -0.032 C 
ATOM     16  C   UNL     1     158.184 167.566 183.091  0.00  0.00    +0.087 C 
ATOM     17  C   UNL     1     156.744 168.049 183.087  0.00  0.00    -0.045 C 
ATOM     18  C   UNL     1     155.798 167.373 183.763  0.00  0.00    -0.097 C 
ATOM     19  C   UNL     1     156.511 169.324 182.304  0.00  0.00    -0.012 C 
ATOM     20  C   UNL     1     157.329 170.493 182.913  0.00  0.00    +0.033 C 
ATOM     21  C   UNL     1     156.735 171.134 184.186  0.00  0.00    +0.035 C 
ATOM     22  N   UNL     1     157.474 170.537 185.260  0.00  0.00    -0.308 N 
ATOM     23  C   UNL     1     158.651 169.952 184.866  0.00  0.00    +0.258 C 
ATOM     24  O   UNL     1     159.453 169.483 185.658  0.00  0.00    -0.271 OA
ATOM     25  H   UNL     1     164.059 167.865 181.035  0.00  0.00    +0.030 HD
ATOM     26  H   UNL     1     165.805 169.104 182.555  0.00  0.00    +0.027 HD
ATOM     27  H   UNL     1     164.639 168.909 183.858  0.00  0.00    +0.027 HD
ATOM     28  H   UNL     1     164.246 170.389 181.203  0.00  0.00    +0.027 HD
ATOM     29  H   UNL     1     162.949 170.068 182.344  0.00  0.00    +0.027 HD
ATOM     30  H   UNL     1     164.276 171.301 184.134  0.00  0.00    +0.029 HD
ATOM     31  H   UNL     1     165.464 171.716 182.891  0.00  0.00    +0.029 HD
ATOM     32  H   UNL     1     163.791 173.572 183.341  0.00  0.00    +0.064 HD
ATOM     33  H   UNL     1     161.765 172.152 183.799  0.00  0.00    +0.060 HD
ATOM     34  H   UNL     1     161.604 172.388 180.726  0.00  0.00    +0.069 HD
ATOM     35  H   UNL     1     159.243 168.773 181.640  0.00  0.00    +0.042 HD
ATOM     36  H   UNL     1     160.793 168.054 184.204  0.00  0.00    +0.057 HD
ATOM     37  H   UNL     1     161.446 167.926 181.212  0.00  0.00    +0.057 HD
ATOM     38  H   UNL     1     162.766 166.116 182.455  0.00  0.00    +0.031 HD
ATOM     39  H   UNL     1     162.965 167.189 183.825  0.00  0.00    +0.031 HD
ATOM     40  H   UNL     1     158.419 167.142 184.076  0.00  0.00    +0.065 HD
ATOM     41  H   UNL     1     156.047 166.461 184.303  0.00  0.00    +0.054 HD
ATOM     42  H   UNL     1     154.760 167.682 183.799  0.00  0.00    +0.054 HD
ATOM     43  H   UNL     1     156.928 169.137 181.303  0.00  0.00    +0.035 HD
ATOM     44  H   UNL     1     157.359 171.267 182.138  0.00  0.00    +0.037 HD
ATOM     45  H   UNL     1     155.684 170.879 184.340  0.00  0.00    +0.051 HD
ATOM     46  H   UNL     1     157.223 170.600 186.240  0.00  0.00    +0.149 HD
ENDROOT
BRANCH   1  47
ATOM     47  C   UNL     1     165.276 166.601 182.256  0.00  0.00    -0.062 C 
ATOM     48  H   UNL     1     165.917 166.797 183.123  0.00  0.00    +0.023 HD
ATOM     49  H   UNL     1     164.814 165.619 182.407  0.00  0.00    +0.023 HD
ATOM     50  H   UNL     1     165.913 166.546 181.367  0.00  0.00    +0.023 HD
ENDBRANCH   1  47
BRANCH  19  51
ATOM     51  C   UNL     1     155.048 169.700 182.033  0.00  0.00    -0.058 C 
ATOM     52  H   UNL     1     154.621 170.223 182.896  0.00  0.00    +0.024 HD
ATOM     53  H   UNL     1     154.414 168.836 181.816  0.00  0.00    +0.024 HD
ATOM     54  H   UNL     1     154.981 170.378 181.173  0.00  0.00    +0.024 HD
ENDBRANCH  19  51
BRANCH  21  55
ATOM     55  C   UNL     1     156.898 172.670 184.176  0.00  0.00    -0.009 C 
ATOM     56  H   UNL     1     157.952 172.929 184.007  0.00  0.00    +0.033 HD
ATOM     57  H   UNL     1     156.633 173.098 185.151  0.00  0.00    +0.033 HD
BRANCH  55  58
ATOM     58  C   UNL     1     156.070 173.332 183.099  0.00  0.00    -0.046 A 
ATOM     59  C   UNL     1     156.659 174.239 182.208  0.00  0.00    -0.059 A 
ATOM     60  C   UNL     1     155.891 174.868 181.228  0.00  0.00    -0.062 A 
ATOM     61  C   UNL     1     154.527 174.597 181.130  0.00  0.00    -0.062 A 
ATOM     62  C   UNL     1     153.931 173.698 182.012  0.00  0.00    -0.062 A 
ATOM     63  C   UNL     1     154.698 173.068 182.993  0.00  0.00    -0.059 A 
ATOM     64  H   UNL     1     157.722 174.463 182.274  0.00  0.00    +0.062 HD
ATOM     65  H   UNL     1     156.356 175.569 180.541  0.00  0.00    +0.062 HD
ATOM     66  H   UNL     1     153.930 175.087 180.366  0.00  0.00    +0.062 HD
ATOM     67  H   UNL     1     152.867 173.486 181.935  0.00  0.00    +0.062 HD
ATOM     68  H   UNL     1     154.216 172.369 183.673  0.00  0.00    +0.062 HD
ENDBRANCH  55  58
ENDBRANCH  21  55
BRANCH  16  69
ATOM     69  O   UNL     1     158.277 166.495 182.148  0.00  0.00    -0.387 OA
ATOM     70  H   UNL     1     157.386 166.328 181.802  0.00  0.00    +0.210 HD
ENDBRANCH  16  69
BRANCH   5  71
ATOM     71  O   UNL     1     163.867 173.132 181.349  0.00  0.00    -0.388 OA
ATOM     72  H   UNL     1     163.252 172.666 180.760  0.00  0.00    +0.210 HD
ENDBRANCH   5  71
TORSDOF 6
ENDMDL
MODEL 7
REMARK VINA RESULT:      -6.3      9.595     11.346
REMARK  Name = Cytochalasin B_conf3
REMARK  6 active torsions:
REMARK  status: ('A' for Active; 'I' for Inactive)
REMARK    1  A    between atoms: C_1  and  C_2
REMARK    2  A    between atoms: C_6  and  O_35
REMARK    3  A    between atoms: C_17  and  O_34
REMARK    4  A    between atoms: C_20  and  C_33
REMARK    5  A    between atoms: C_22  and  C_26
REMARK    6  A    between atoms: C_26  and  C_27
REMARK                            x       y       z     vdW  Elec       q    Type
REMARK                         _______ _______ _______ _____ _____    ______ ____
ROOT
ATOM      1  C   UNL     1     157.913 162.909 189.571  0.00  0.00    -0.040 C 
ATOM      2  C   UNL     1     157.963 162.740 188.035  0.00  0.00    -0.050 C 
ATOM      3  C   UNL     1     156.653 162.214 187.457  0.00  0.00    -0.050 C 
ATOM      4  C   UNL     1     156.631 162.235 185.918  0.00  0.00    -0.023 C 
ATOM      5  C   UNL     1     155.250 161.873 185.330  0.00  0.00    +0.074 C 
ATOM      6  C   UNL     1     154.195 162.758 185.931  0.00  0.00    -0.049 C 
ATOM      7  C   UNL     1     153.300 162.357 186.852  0.00  0.00    +0.021 C 
ATOM      8  C   UNL     1     152.577 163.286 187.739  0.00  0.00    +0.333 C 
ATOM      9  O   UNL     1     151.865 162.894 188.652  0.00  0.00    -0.246 OA
ATOM     10  O   UNL     1     152.889 164.573 187.467  0.00  0.00    -0.444 OA
ATOM     11  C   UNL     1     152.602 165.575 188.470  0.00  0.00    +0.202 C 
ATOM     12  C   UNL     1     153.429 165.365 189.776  0.00  0.00    +0.056 C 
ATOM     13  C   UNL     1     154.943 165.214 189.583  0.00  0.00    -0.078 C 
ATOM     14  C   UNL     1     155.693 164.198 190.049  0.00  0.00    -0.087 C 
ATOM     15  C   UNL     1     157.205 164.210 190.031  0.00  0.00    -0.032 C 
ATOM     16  C   UNL     1     153.151 166.529 190.775  0.00  0.00    +0.087 C 
ATOM     17  C   UNL     1     151.713 167.017 190.766  0.00  0.00    -0.045 C 
ATOM     18  C   UNL     1     151.408 168.244 191.225  0.00  0.00    -0.097 C 
ATOM     19  C   UNL     1     150.719 166.034 190.184  0.00  0.00    -0.012 C 
ATOM     20  C   UNL     1     151.056 165.734 188.699  0.00  0.00    +0.033 C 
ATOM     21  C   UNL     1     150.622 166.814 187.683  0.00  0.00    +0.035 C 
ATOM     22  N   UNL     1     151.821 167.559 187.428  0.00  0.00    -0.308 N 
ATOM     23  C   UNL     1     152.970 166.905 187.794  0.00  0.00    +0.258 C 
ATOM     24  O   UNL     1     154.084 167.346 187.560  0.00  0.00    -0.271 OA
ATOM     25  H   UNL     1     157.408 162.043 190.016  0.00  0.00    +0.030 HD
ATOM     26  H   UNL     1     158.757 162.031 187.763  0.00  0.00    +0.027 HD
ATOM     27  H   UNL     1     158.226 163.697 187.568  0.00  0.00    +0.027 HD
ATOM     28  H   UNL     1     156.475 161.193 187.816  0.00  0.00    +0.027 HD
ATOM     29  H   UNL     1     155.844 162.833 187.842  0.00  0.00    +0.027 HD
ATOM     30  H   UNL     1     156.917 163.236 185.567  0.00  0.00    +0.029 HD
ATOM     31  H   UNL     1     157.384 161.530 185.545  0.00  0.00    +0.029 HD
ATOM     32  H   UNL     1     155.257 162.005 184.243  0.00  0.00    +0.064 HD
ATOM     33  H   UNL     1     154.312 163.818 185.710  0.00  0.00    +0.060 HD
ATOM     34  H   UNL     1     153.202 161.311 187.127  0.00  0.00    +0.069 HD
ATOM     35  H   UNL     1     153.093 164.431 190.246  0.00  0.00    +0.042 HD
ATOM     36  H   UNL     1     155.453 166.057 189.114  0.00  0.00    +0.057 HD
ATOM     37  H   UNL     1     155.219 163.369 190.572  0.00  0.00    +0.057 HD
ATOM     38  H   UNL     1     157.505 164.416 191.067  0.00  0.00    +0.031 HD
ATOM     39  H   UNL     1     157.576 165.056 189.437  0.00  0.00    +0.031 HD
ATOM     40  H   UNL     1     153.819 167.372 190.557  0.00  0.00    +0.065 HD
ATOM     41  H   UNL     1     152.182 168.893 191.630  0.00  0.00    +0.054 HD
ATOM     42  H   UNL     1     150.399 168.642 191.230  0.00  0.00    +0.054 HD
ATOM     43  H   UNL     1     150.874 165.095 190.736  0.00  0.00    +0.035 HD
ATOM     44  H   UNL     1     150.513 164.815 188.454  0.00  0.00    +0.037 HD
ATOM     45  H   UNL     1     149.891 167.515 188.093  0.00  0.00    +0.051 HD
ATOM     46  H   UNL     1     151.856 168.449 186.943  0.00  0.00    +0.149 HD
ENDROOT
BRANCH   1  47
ATOM     47  C   UNL     1     159.354 162.925 190.103  0.00  0.00    -0.062 C 
ATOM     48  H   UNL     1     159.655 161.929 190.447  0.00  0.00    +0.023 HD
ATOM     49  H   UNL     1     160.057 163.225 189.318  0.00  0.00    +0.023 HD
ATOM     50  H   UNL     1     159.461 163.621 190.942  0.00  0.00    +0.023 HD
ENDBRANCH   1  47
BRANCH  19  51
ATOM     51  C   UNL     1     149.234 166.354 190.404  0.00  0.00    -0.058 C 
ATOM     52  H   UNL     1     148.634 165.438 190.354  0.00  0.00    +0.024 HD
ATOM     53  H   UNL     1     148.832 167.058 189.671  0.00  0.00    +0.024 HD
ATOM     54  H   UNL     1     149.080 166.792 191.397  0.00  0.00    +0.024 HD
ENDBRANCH  19  51
BRANCH  21  55
ATOM     55  C   UNL     1     150.065 166.183 186.389  0.00  0.00    -0.009 C 
ATOM     56  H   UNL     1     149.621 165.205 186.615  0.00  0.00    +0.033 HD
ATOM     57  H   UNL     1     150.870 165.991 185.669  0.00  0.00    +0.033 HD
BRANCH  55  58
ATOM     58  C   UNL     1     149.007 167.043 185.736  0.00  0.00    -0.046 A 
ATOM     59  C   UNL     1     148.183 166.514 184.733  0.00  0.00    -0.059 A 
ATOM     60  C   UNL     1     147.222 167.313 184.114  0.00  0.00    -0.062 A 
ATOM     61  C   UNL     1     147.076 168.647 184.490  0.00  0.00    -0.062 A 
ATOM     62  C   UNL     1     147.890 169.183 185.485  0.00  0.00    -0.062 A 
ATOM     63  C   UNL     1     148.853 168.386 186.106  0.00  0.00    -0.059 A 
ATOM     64  H   UNL     1     148.288 165.476 184.425  0.00  0.00    +0.062 HD
ATOM     65  H   UNL     1     146.587 166.895 183.337  0.00  0.00    +0.062 HD
ATOM     66  H   UNL     1     146.326 169.268 184.008  0.00  0.00    +0.062 HD
ATOM     67  H   UNL     1     147.775 170.223 185.780  0.00  0.00    +0.062 HD
ATOM     68  H   UNL     1     149.481 168.820 186.881  0.00  0.00    +0.062 HD
ENDBRANCH  55  58
ENDBRANCH  21  55
BRANCH  16  69
ATOM     69  O   UNL     1     153.447 166.102 192.107  0.00  0.00    -0.387 OA
ATOM     70  H   UNL     1     153.016 166.720 192.719  0.00  0.00    +0.210 HD
ENDBRANCH  16  69
BRANCH   5  71
ATOM     71  O   UNL     1     154.958 160.508 185.598  0.00  0.00    -0.388 OA
ATOM     72  H   UNL     1     154.410 160.486 186.401  0.00  0.00    +0.210 HD
ENDBRANCH   5  71
TORSDOF 6
ENDMDL
MODEL 8
REMARK VINA RESULT:      -6.3     13.187     16.417
REMARK  Name = Cytochalasin B_conf3
REMARK  6 active torsions:
REMARK  status: ('A' for Active; 'I' for Inactive)
REMARK    1  A    between atoms: C_1  and  C_2
REMARK    2  A    between atoms: C_6  and  O_35
REMARK    3  A    between atoms: C_17  and  O_34
REMARK    4  A    between atoms: C_20  and  C_33
REMARK    5  A    between atoms: C_22  and  C_26
REMARK    6  A    between atoms: C_26  and  C_27
REMARK                            x       y       z     vdW  Elec       q    Type
REMARK                         _______ _______ _______ _____ _____    ______ ____
ROOT
ATOM      1  C   UNL     1     150.751 189.324 189.149  0.00  0.00    -0.040 C 
ATOM      2  C   UNL     1     150.673 189.602 187.629  0.00  0.00    -0.050 C 
ATOM      3  C   UNL     1     151.073 188.393 186.789  0.00  0.00    -0.050 C 
ATOM      4  C   UNL     1     150.804 188.597 185.287  0.00  0.00    -0.023 C 
ATOM      5  C   UNL     1     151.039 187.320 184.452  0.00  0.00    +0.074 C 
ATOM      6  C   UNL     1     150.241 186.184 185.029  0.00  0.00    -0.049 C 
ATOM      7  C   UNL     1     150.767 185.165 185.731  0.00  0.00    +0.021 C 
ATOM      8  C   UNL     1     149.978 184.315 186.642  0.00  0.00    +0.333 C 
ATOM      9  O   UNL     1     150.496 183.478 187.365  0.00  0.00    -0.246 OA
ATOM     10  O   UNL     1     148.670 184.659 186.630  0.00  0.00    -0.444 OA
ATOM     11  C   UNL     1     147.837 184.224 187.729  0.00  0.00    +0.202 C 
ATOM     12  C   UNL     1     148.270 184.850 189.090  0.00  0.00    +0.056 C 
ATOM     13  C   UNL     1     148.418 186.377 189.099  0.00  0.00    -0.078 C 
ATOM     14  C   UNL     1     149.511 187.054 189.499  0.00  0.00    -0.087 C 
ATOM     15  C   UNL     1     149.526 188.552 189.704  0.00  0.00    -0.032 C 
ATOM     16  C   UNL     1     147.275 184.424 190.213  0.00  0.00    +0.087 C 
ATOM     17  C   UNL     1     146.764 183.001 190.072  0.00  0.00    -0.045 C 
ATOM     18  C   UNL     1     145.620 182.626 190.675  0.00  0.00    -0.097 C 
ATOM     19  C   UNL     1     147.620 182.107 189.200  0.00  0.00    -0.012 C 
ATOM     20  C   UNL     1     147.685 182.660 187.752  0.00  0.00    +0.033 C 
ATOM     21  C   UNL     1     146.447 182.377 186.872  0.00  0.00    +0.035 C 
ATOM     22  N   UNL     1     145.695 183.598 186.918  0.00  0.00    -0.308 N 
ATOM     23  C   UNL     1     146.423 184.683 187.337  0.00  0.00    +0.258 C 
ATOM     24  O   UNL     1     145.972 185.818 187.344  0.00  0.00    -0.271 OA
ATOM     25  H   UNL     1     151.667 188.763 189.369  0.00  0.00    +0.030 HD
ATOM     26  H   UNL     1     151.344 190.429 187.365  0.00  0.00    +0.027 HD
ATOM     27  H   UNL     1     149.658 189.926 187.367  0.00  0.00    +0.027 HD
ATOM     28  H   UNL     1     152.134 188.168 186.948  0.00  0.00    +0.027 HD
ATOM     29  H   UNL     1     150.508 187.533 187.147  0.00  0.00    +0.027 HD
ATOM     30  H   UNL     1     149.767 188.928 185.148  0.00  0.00    +0.029 HD
ATOM     31  H   UNL     1     151.456 189.400 184.919  0.00  0.00    +0.029 HD
ATOM     32  H   UNL     1     150.735 187.486 183.414  0.00  0.00    +0.064 HD
ATOM     33  H   UNL     1     149.163 186.329 185.001  0.00  0.00    +0.060 HD
ATOM     34  H   UNL     1     151.841 185.032 185.817  0.00  0.00    +0.069 HD
ATOM     35  H   UNL     1     149.260 184.452 189.349  0.00  0.00    +0.042 HD
ATOM     36  H   UNL     1     147.522 186.947 188.851  0.00  0.00    +0.057 HD
ATOM     37  H   UNL     1     150.403 186.511 189.806  0.00  0.00    +0.057 HD
ATOM     38  H   UNL     1     149.495 188.695 190.792  0.00  0.00    +0.031 HD
ATOM     39  H   UNL     1     148.604 189.002 189.316  0.00  0.00    +0.031 HD
ATOM     40  H   UNL     1     146.422 185.113 190.234  0.00  0.00    +0.065 HD
ATOM     41  H   UNL     1     145.060 183.331 191.287  0.00  0.00    +0.054 HD
ATOM     42  H   UNL     1     145.208 181.627 190.596  0.00  0.00    +0.054 HD
ATOM     43  H   UNL     1     148.639 182.183 189.610  0.00  0.00    +0.035 HD
ATOM     44  H   UNL     1     148.542 182.163 187.285  0.00  0.00    +0.037 HD
ATOM     45  H   UNL     1     145.807 181.592 187.278  0.00  0.00    +0.051 HD
ATOM     46  H   UNL     1     144.741 183.701 186.594  0.00  0.00    +0.149 HD
ENDROOT
BRANCH   1  47
ATOM     47  C   UNL     1     150.850 190.671 189.881  0.00  0.00    -0.062 C 
ATOM     48  H   UNL     1     149.888 190.945 190.329  0.00  0.00    +0.023 HD
ATOM     49  H   UNL     1     151.585 190.622 190.692  0.00  0.00    +0.023 HD
ATOM     50  H   UNL     1     151.148 191.474 189.198  0.00  0.00    +0.023 HD
ENDBRANCH   1  47
BRANCH  19  51
ATOM     51  C   UNL     1     147.310 180.605 189.250  0.00  0.00    -0.058 C 
ATOM     52  H   UNL     1     148.234 180.021 189.174  0.00  0.00    +0.024 HD
ATOM     53  H   UNL     1     146.640 180.277 188.451  0.00  0.00    +0.024 HD
ATOM     54  H   UNL     1     146.835 180.344 190.203  0.00  0.00    +0.024 HD
ENDBRANCH  19  51
BRANCH  21  55
ATOM     55  C   UNL     1     146.851 182.019 185.426  0.00  0.00    -0.009 C 
ATOM     56  H   UNL     1     147.940 182.104 185.313  0.00  0.00    +0.033 HD
ATOM     57  H   UNL     1     146.417 182.729 184.710  0.00  0.00    +0.033 HD
BRANCH  55  58
ATOM     58  C   UNL     1     146.444 180.615 185.043  0.00  0.00    -0.046 A 
ATOM     59  C   UNL     1     146.543 179.570 185.971  0.00  0.00    -0.059 A 
ATOM     60  C   UNL     1     146.188 178.269 185.611  0.00  0.00    -0.062 A 
ATOM     61  C   UNL     1     145.733 178.002 184.322  0.00  0.00    -0.062 A 
ATOM     62  C   UNL     1     145.632 179.033 183.391  0.00  0.00    -0.062 A 
ATOM     63  C   UNL     1     145.987 180.335 183.748  0.00  0.00    -0.059 A 
ATOM     64  H   UNL     1     146.900 179.762 186.981  0.00  0.00    +0.062 HD
ATOM     65  H   UNL     1     146.268 177.465 186.338  0.00  0.00    +0.062 HD
ATOM     66  H   UNL     1     145.456 176.988 184.043  0.00  0.00    +0.062 HD
ATOM     67  H   UNL     1     145.276 178.824 182.385  0.00  0.00    +0.062 HD
ATOM     68  H   UNL     1     145.902 181.128 183.008  0.00  0.00    +0.062 HD
ENDBRANCH  55  58
ENDBRANCH  21  55
BRANCH  16  69
ATOM     69  O   UNL     1     147.916 184.522 191.487  0.00  0.00    -0.387 OA
ATOM     70  H   UNL     1     148.752 185.000 191.362  0.00  0.00    +0.210 HD
ENDBRANCH  16  69
BRANCH   5  71
ATOM     71  O   UNL     1     152.424 186.996 184.452  0.00  0.00    -0.388 OA
ATOM     72  H   UNL     1     152.729 187.045 185.373  0.00  0.00    +0.210 HD
ENDBRANCH   5  71
TORSDOF 6
ENDMDL
MODEL 9
REMARK VINA RESULT:      -6.2     12.728     16.608
REMARK  Name = Cytochalasin B_conf3
REMARK  6 active torsions:
REMARK  status: ('A' for Active; 'I' for Inactive)
REMARK    1  A    between atoms: C_1  and  C_2
REMARK    2  A    between atoms: C_6  and  O_35
REMARK    3  A    between atoms: C_17  and  O_34
REMARK    4  A    between atoms: C_20  and  C_33
REMARK    5  A    between atoms: C_22  and  C_26
REMARK    6  A    between atoms: C_26  and  C_27
REMARK                            x       y       z     vdW  Elec       q    Type
REMARK                         _______ _______ _______ _____ _____    ______ ____
ROOT
ATOM      1  C   UNL     1     144.364 166.084 184.134  0.00  0.00    -0.040 C 
ATOM      2  C   UNL     1     145.907 166.163 184.050  0.00  0.00    -0.050 C 
ATOM      3  C   UNL     1     146.486 167.277 184.917  0.00  0.00    -0.050 C 
ATOM      4  C   UNL     1     148.024 167.231 184.995  0.00  0.00    -0.023 C 
ATOM      5  C   UNL     1     148.607 168.241 186.006  0.00  0.00    +0.074 C 
ATOM      6  C   UNL     1     147.958 168.046 187.348  0.00  0.00    -0.049 C 
ATOM      7  C   UNL     1     147.041 168.876 187.877  0.00  0.00    +0.021 C 
ATOM      8  C   UNL     1     146.110 168.479 188.949  0.00  0.00    +0.333 C 
ATOM      9  O   UNL     1     145.204 169.206 189.327  0.00  0.00    -0.246 OA
ATOM     10  O   UNL     1     146.338 167.210 189.356  0.00  0.00    -0.444 OA
ATOM     11  C   UNL     1     145.294 166.528 190.089  0.00  0.00    +0.202 C 
ATOM     12  C   UNL     1     144.008 166.311 189.233  0.00  0.00    +0.056 C 
ATOM     13  C   UNL     1     144.227 165.651 187.865  0.00  0.00    -0.078 C 
ATOM     14  C   UNL     1     143.809 166.143 186.684  0.00  0.00    -0.087 C 
ATOM     15  C   UNL     1     143.847 165.350 185.398  0.00  0.00    -0.032 C 
ATOM     16  C   UNL     1     142.962 165.485 190.042  0.00  0.00    +0.087 C 
ATOM     17  C   UNL     1     142.934 165.813 191.525  0.00  0.00    -0.045 C 
ATOM     18  C   UNL     1     142.425 164.934 192.406  0.00  0.00    -0.097 C 
ATOM     19  C   UNL     1     143.540 167.153 191.884  0.00  0.00    -0.012 C 
ATOM     20  C   UNL     1     145.039 167.198 191.487  0.00  0.00    +0.033 C 
ATOM     21  C   UNL     1     146.007 166.473 192.447  0.00  0.00    +0.035 C 
ATOM     22  N   UNL     1     146.250 165.209 191.815  0.00  0.00    -0.308 N 
ATOM     23  C   UNL     1     145.925 165.182 190.483  0.00  0.00    +0.258 C 
ATOM     24  O   UNL     1     146.156 164.222 189.765  0.00  0.00    -0.271 OA
ATOM     25  H   UNL     1     143.946 167.097 184.104  0.00  0.00    +0.030 HD
ATOM     26  H   UNL     1     146.216 166.351 183.014  0.00  0.00    +0.027 HD
ATOM     27  H   UNL     1     146.341 165.197 184.336  0.00  0.00    +0.027 HD
ATOM     28  H   UNL     1     146.164 168.251 184.530  0.00  0.00    +0.027 HD
ATOM     29  H   UNL     1     146.067 167.177 185.917  0.00  0.00    +0.027 HD
ATOM     30  H   UNL     1     148.340 166.219 185.278  0.00  0.00    +0.029 HD
ATOM     31  H   UNL     1     148.432 167.434 183.997  0.00  0.00    +0.029 HD
ATOM     32  H   UNL     1     149.687 168.097 186.102  0.00  0.00    +0.064 HD
ATOM     33  H   UNL     1     148.141 167.074 187.802  0.00  0.00    +0.060 HD
ATOM     34  H   UNL     1     146.805 169.828 187.411  0.00  0.00    +0.069 HD
ATOM     35  H   UNL     1     143.569 167.296 189.023  0.00  0.00    +0.042 HD
ATOM     36  H   UNL     1     144.670 164.655 187.880  0.00  0.00    +0.057 HD
ATOM     37  H   UNL     1     143.312 167.110 186.645  0.00  0.00    +0.057 HD
ATOM     38  H   UNL     1     142.808 165.044 185.216  0.00  0.00    +0.031 HD
ATOM     39  H   UNL     1     144.413 164.419 185.537  0.00  0.00    +0.031 HD
ATOM     40  H   UNL     1     143.157 164.413 189.913  0.00  0.00    +0.065 HD
ATOM     41  H   UNL     1     142.006 163.988 192.067  0.00  0.00    +0.054 HD
ATOM     42  H   UNL     1     142.392 165.116 193.474  0.00  0.00    +0.054 HD
ATOM     43  H   UNL     1     143.025 167.890 191.249  0.00  0.00    +0.035 HD
ATOM     44  H   UNL     1     145.311 168.259 191.483  0.00  0.00    +0.037 HD
ATOM     45  H   UNL     1     145.562 166.263 193.422  0.00  0.00    +0.051 HD
ATOM     46  H   UNL     1     146.702 164.418 192.260  0.00  0.00    +0.149 HD
ENDROOT
BRANCH   1  47
ATOM     47  C   UNL     1     143.851 165.337 182.893  0.00  0.00    -0.062 C 
ATOM     48  H   UNL     1     143.414 164.371 183.170  0.00  0.00    +0.023 HD
ATOM     49  H   UNL     1     143.071 165.915 182.384  0.00  0.00    +0.023 HD
ATOM     50  H   UNL     1     144.660 165.152 182.178  0.00  0.00    +0.023 HD
ENDBRANCH   1  47
BRANCH  19  51
ATOM     51  C   UNL     1     143.288 167.655 193.313  0.00  0.00    -0.058 C 
ATOM     52  H   UNL     1     142.433 167.134 193.756  0.00  0.00    +0.024 HD
ATOM     53  H   UNL     1     143.090 168.729 193.364  0.00  0.00    +0.024 HD
ATOM     54  H   UNL     1     144.159 167.453 193.948  0.00  0.00    +0.024 HD
ENDBRANCH  19  51
BRANCH  21  55
ATOM     55  C   UNL     1     147.317 167.268 192.637  0.00  0.00    -0.009 C 
ATOM     56  H   UNL     1     147.086 168.331 192.793  0.00  0.00    +0.033 HD
ATOM     57  H   UNL     1     147.938 167.222 191.734  0.00  0.00    +0.033 HD
BRANCH  55  58
ATOM     58  C   UNL     1     148.122 166.781 193.820  0.00  0.00    -0.046 A 
ATOM     59  C   UNL     1     149.493 166.523 193.687  0.00  0.00    -0.059 A 
ATOM     60  C   UNL     1     150.233 166.052 194.772  0.00  0.00    -0.062 A 
ATOM     61  C   UNL     1     149.609 165.835 195.999  0.00  0.00    -0.062 A 
ATOM     62  C   UNL     1     148.247 166.087 196.142  0.00  0.00    -0.062 A 
ATOM     63  C   UNL     1     147.505 166.558 195.058  0.00  0.00    -0.059 A 
ATOM     64  H   UNL     1     149.993 166.684 192.734  0.00  0.00    +0.062 HD
ATOM     65  H   UNL     1     151.295 165.854 194.659  0.00  0.00    +0.062 HD
ATOM     66  H   UNL     1     150.187 165.469 196.844  0.00  0.00    +0.062 HD
ATOM     67  H   UNL     1     147.761 165.919 197.101  0.00  0.00    +0.062 HD
ATOM     68  H   UNL     1     146.442 166.750 195.188  0.00  0.00    +0.062 HD
ENDBRANCH  55  58
ENDBRANCH  21  55
BRANCH  16  69
ATOM     69  O   UNL     1     141.651 165.731 189.527  0.00  0.00    -0.387 OA
ATOM     70  H   UNL     1     141.129 164.922 189.648  0.00  0.00    +0.210 HD
ENDBRANCH  16  69
BRANCH   5  71
ATOM     71  O   UNL     1     148.385 169.566 185.542  0.00  0.00    -0.388 OA
ATOM     72  H   UNL     1     148.400 169.535 184.571  0.00  0.00    +0.210 HD
ENDBRANCH   5  71
TORSDOF 6
ENDMDL
MODEL 10
REMARK VINA RESULT:      -6.2     30.781     32.588
REMARK  Name = Cytochalasin B_conf3
REMARK  6 active torsions:
REMARK  status: ('A' for Active; 'I' for Inactive)
REMARK    1  A    between atoms: C_1  and  C_2
REMARK    2  A    between atoms: C_6  and  O_35
REMARK    3  A    between atoms: C_17  and  O_34
REMARK    4  A    between atoms: C_20  and  C_33
REMARK    5  A    between atoms: C_22  and  C_26
REMARK    6  A    between atoms: C_26  and  C_27
REMARK                            x       y       z     vdW  Elec       q    Type
REMARK                         _______ _______ _______ _____ _____    ______ ____
ROOT
ATOM      1  C   UNL     1     151.689 188.972 214.008  0.00  0.00    -0.040 C 
ATOM      2  C   UNL     1     150.744 187.834 213.556  0.00  0.00    -0.050 C 
ATOM      3  C   UNL     1     149.700 188.302 212.547  0.00  0.00    -0.050 C 
ATOM      4  C   UNL     1     148.891 187.138 211.946  0.00  0.00    -0.023 C 
ATOM      5  C   UNL     1     147.958 187.581 210.799  0.00  0.00    +0.074 C 
ATOM      6  C   UNL     1     148.749 188.326 209.761  0.00  0.00    -0.049 C 
ATOM      7  C   UNL     1     148.704 189.659 209.581  0.00  0.00    +0.021 C 
ATOM      8  C   UNL     1     149.761 190.421 208.893  0.00  0.00    +0.333 C 
ATOM      9  O   UNL     1     149.763 191.642 208.852  0.00  0.00    -0.246 OA
ATOM     10  O   UNL     1     150.736 189.606 208.429  0.00  0.00    -0.444 OA
ATOM     11  C   UNL     1     152.017 190.189 208.097  0.00  0.00    +0.202 C 
ATOM     12  C   UNL     1     152.738 190.791 209.342  0.00  0.00    +0.056 C 
ATOM     13  C   UNL     1     152.869 189.853 210.549  0.00  0.00    -0.078 C 
ATOM     14  C   UNL     1     152.469 190.134 211.803  0.00  0.00    -0.087 C 
ATOM     15  C   UNL     1     152.825 189.275 212.996  0.00  0.00    -0.032 C 
ATOM     16  C   UNL     1     154.152 191.311 208.939  0.00  0.00    +0.087 C 
ATOM     17  C   UNL     1     154.204 191.939 207.557  0.00  0.00    -0.045 C 
ATOM     18  C   UNL     1     155.375 192.044 206.901  0.00  0.00    -0.097 C 
ATOM     19  C   UNL     1     152.862 192.382 207.015  0.00  0.00    -0.012 C 
ATOM     20  C   UNL     1     151.905 191.169 206.874  0.00  0.00    +0.033 C 
ATOM     21  C   UNL     1     152.138 190.274 205.637  0.00  0.00    +0.035 C 
ATOM     22  N   UNL     1     152.889 189.161 206.143  0.00  0.00    -0.308 N 
ATOM     23  C   UNL     1     152.823 189.021 207.506  0.00  0.00    +0.258 C 
ATOM     24  O   UNL     1     153.320 188.075 208.097  0.00  0.00    -0.271 OA
ATOM     25  H   UNL     1     151.104 189.883 214.183  0.00  0.00    +0.030 HD
ATOM     26  H   UNL     1     150.210 187.425 214.424  0.00  0.00    +0.027 HD
ATOM     27  H   UNL     1     151.334 187.010 213.136  0.00  0.00    +0.027 HD
ATOM     28  H   UNL     1     149.020 189.018 213.024  0.00  0.00    +0.027 HD
ATOM     29  H   UNL     1     150.218 188.835 211.751  0.00  0.00    +0.027 HD
ATOM     30  H   UNL     1     149.583 186.374 211.567  0.00  0.00    +0.029 HD
ATOM     31  H   UNL     1     148.296 186.674 212.743  0.00  0.00    +0.029 HD
ATOM     32  H   UNL     1     147.487 186.708 210.337  0.00  0.00    +0.064 HD
ATOM     33  H   UNL     1     149.520 187.735 209.268  0.00  0.00    +0.060 HD
ATOM     34  H   UNL     1     147.978 190.275 210.103  0.00  0.00    +0.069 HD
ATOM     35  H   UNL     1     152.151 191.651 209.693  0.00  0.00    +0.042 HD
ATOM     36  H   UNL     1     153.423 188.929 210.380  0.00  0.00    +0.057 HD
ATOM     37  H   UNL     1     151.963 191.074 212.014  0.00  0.00    +0.057 HD
ATOM     38  H   UNL     1     153.616 189.825 213.522  0.00  0.00    +0.031 HD
ATOM     39  H   UNL     1     153.282 188.333 212.668  0.00  0.00    +0.031 HD
ATOM     40  H   UNL     1     154.877 190.490 208.989  0.00  0.00    +0.065 HD
ATOM     41  H   UNL     1     156.300 191.701 207.361  0.00  0.00    +0.054 HD
ATOM     42  H   UNL     1     155.463 192.474 205.910  0.00  0.00    +0.054 HD
ATOM     43  H   UNL     1     152.430 193.032 207.791  0.00  0.00    +0.035 HD
ATOM     44  H   UNL     1     150.899 191.595 206.787  0.00  0.00    +0.037 HD
ATOM     45  H   UNL     1     152.754 190.754 204.873  0.00  0.00    +0.051 HD
ATOM     46  H   UNL     1     153.361 188.473 205.567  0.00  0.00    +0.149 HD
ENDROOT
BRANCH   1  47
ATOM     47  C   UNL     1     152.325 188.569 215.347  0.00  0.00    -0.062 C 
ATOM     48  H   UNL     1     151.971 187.582 215.667  0.00  0.00    +0.023 HD
ATOM     49  H   UNL     1     153.416 188.512 215.260  0.00  0.00    +0.023 HD
ATOM     50  H   UNL     1     152.083 189.290 216.135  0.00  0.00    +0.023 HD
ENDBRANCH   1  47
BRANCH  19  51
ATOM     51  C   UNL     1     152.889 193.267 205.762  0.00  0.00    -0.058 C 
ATOM     52  H   UNL     1     153.875 193.227 205.286  0.00  0.00    +0.024 HD
ATOM     53  H   UNL     1     152.659 194.315 205.969  0.00  0.00    +0.024 HD
ATOM     54  H   UNL     1     152.157 192.911 205.026  0.00  0.00    +0.024 HD
ENDBRANCH  19  51
BRANCH  21  55
ATOM     55  C   UNL     1     150.804 189.814 205.011  0.00  0.00    -0.009 C 
ATOM     56  H   UNL     1     149.979 190.016 205.707  0.00  0.00    +0.033 HD
ATOM     57  H   UNL     1     150.802 188.729 204.846  0.00  0.00    +0.033 HD
BRANCH  55  58
ATOM     58  C   UNL     1     150.505 190.516 203.706  0.00  0.00    -0.046 A 
ATOM     59  C   UNL     1     151.199 190.169 202.539  0.00  0.00    -0.059 A 
ATOM     60  C   UNL     1     150.940 190.833 201.339  0.00  0.00    -0.062 A 
ATOM     61  C   UNL     1     149.987 191.848 201.295  0.00  0.00    -0.062 A 
ATOM     62  C   UNL     1     149.292 192.202 202.450  0.00  0.00    -0.062 A 
ATOM     63  C   UNL     1     149.550 191.540 203.652  0.00  0.00    -0.059 A 
ATOM     64  H   UNL     1     151.949 189.381 202.558  0.00  0.00    +0.062 HD
ATOM     65  H   UNL     1     151.483 190.557 200.439  0.00  0.00    +0.062 HD
ATOM     66  H   UNL     1     149.785 192.364 200.360  0.00  0.00    +0.062 HD
ATOM     67  H   UNL     1     148.548 192.994 202.415  0.00  0.00    +0.062 HD
ATOM     68  H   UNL     1     148.999 191.829 204.544  0.00  0.00    +0.062 HD
ENDBRANCH  55  58
ENDBRANCH  21  55
BRANCH  16  69
ATOM     69  O   UNL     1     154.585 192.303 209.874  0.00  0.00    -0.387 OA
ATOM     70  H   UNL     1     155.039 191.846 210.600  0.00  0.00    +0.210 HD
ENDBRANCH  16  69
BRANCH   5  71
ATOM     71  O   UNL     1     146.924 188.409 211.315  0.00  0.00    -0.388 OA
ATOM     72  H   UNL     1     146.090 187.919 211.220  0.00  0.00    +0.210 HD
ENDBRANCH   5  71
TORSDOF 6
ENDMDL
