MODEL 1
REMARK VINA RESULT:      -5.9      0.000      0.000
REMARK  Name = Cytochalasin D_conf1
REMARK  10 active torsions:
REMARK  status: ('A' for Active; 'I' for Inactive)
REMARK    1  A    between atoms: C_1  and  C_2
REMARK    2  A    between atoms: C_7  and  O_37
REMARK    3  A    between atoms: C_10  and  C_36
REMARK    4  A    between atoms: C_13  and  O_21
REMARK    5  A    between atoms: C_16  and  C_19
REMARK    6  A    between atoms: C_16  and  O_20
REMARK    7  A    between atoms: O_21  and  C_22
REMARK    8  A    between atoms: C_22  and  C_24
REMARK    9  A    between atoms: C_28  and  C_29
REMARK   10  A    between atoms: C_29  and  C_30
REMARK                            x       y       z     vdW  Elec       q    Type
REMARK                         _______ _______ _______ _____ _____    ______ ____
ROOT
ATOM      1  C   UNL     1     163.861 169.752 181.024  0.00  0.00    +0.021 C 
ATOM      2  C   UNL     1     162.944 168.571 181.386  0.00  0.00    -0.025 C 
ATOM      3  C   UNL     1     161.483 168.905 181.230  0.00  0.00    -0.087 C 
ATOM      4  C   UNL     1     160.637 169.075 182.260  0.00  0.00    -0.081 C 
ATOM      5  C   UNL     1     159.155 169.423 182.110  0.00  0.00    +0.025 C 
ATOM      6  C   UNL     1     158.299 168.241 182.649  0.00  0.00    +0.084 C 
ATOM      7  C   UNL     1     156.808 168.513 182.625  0.00  0.00    -0.045 C 
ATOM      8  C   UNL     1     155.952 167.638 183.185  0.00  0.00    -0.097 C 
ATOM      9  C   UNL     1     156.407 169.814 181.958  0.00  0.00    -0.015 C 
ATOM     10  C   UNL     1     157.130 170.996 182.653  0.00  0.00    +0.002 C 
ATOM     11  C   UNL     1     158.708 170.802 182.731  0.00  0.00    +0.101 C 
ATOM     12  C   UNL     1     159.398 172.034 182.043  0.00  0.00    +0.136 C 
ATOM     13  C   UNL     1     160.863 172.236 182.373  0.00  0.00    -0.044 C 
ATOM     14  C   UNL     1     161.906 172.135 181.528  0.00  0.00    -0.046 C 
ATOM     15  C   UNL     1     163.363 172.208 181.906  0.00  0.00    +0.139 C 
ATOM     16  C   UNL     1     163.892 170.770 182.165  0.00  0.00    +0.171 C 
ATOM     17  O   UNL     1     164.325 170.462 183.282  0.00  0.00    -0.294 OA
ATOM     18  C   UNL     1     158.961 170.797 184.236  0.00  0.00    +0.224 C 
ATOM     19  O   UNL     1     160.021 170.601 184.810  0.00  0.00    -0.275 OA
ATOM     20  N   UNL     1     157.801 171.010 184.921  0.00  0.00    -0.311 N 
ATOM     21  C   UNL     1     156.648 171.225 184.107  0.00  0.00    +0.032 C 
ATOM     22  H   UNL     1     163.502 170.232 180.107  0.00  0.00    +0.038 HD
ATOM     23  H   UNL     1     163.149 168.224 182.407  0.00  0.00    +0.031 HD
ATOM     24  H   UNL     1     163.154 167.721 180.725  0.00  0.00    +0.031 HD
ATOM     25  H   UNL     1     161.118 169.011 180.210  0.00  0.00    +0.057 HD
ATOM     26  H   UNL     1     161.017 168.963 183.276  0.00  0.00    +0.057 HD
ATOM     27  H   UNL     1     158.968 169.470 181.028  0.00  0.00    +0.038 HD
ATOM     28  H   UNL     1     158.603 167.982 183.671  0.00  0.00    +0.065 HD
ATOM     29  H   UNL     1     156.317 166.719 183.638  0.00  0.00    +0.054 HD
ATOM     30  H   UNL     1     154.878 167.783 183.193  0.00  0.00    +0.054 HD
ATOM     31  H   UNL     1     156.767 169.765 180.920  0.00  0.00    +0.035 HD
ATOM     32  H   UNL     1     156.889 171.882 182.060  0.00  0.00    +0.034 HD
ATOM     33  H   UNL     1     158.901 172.959 182.351  0.00  0.00    +0.079 HD
ATOM     34  H   UNL     1     161.068 172.466 183.418  0.00  0.00    +0.061 HD
ATOM     35  H   UNL     1     161.711 171.902 180.483  0.00  0.00    +0.060 HD
ATOM     36  H   UNL     1     157.803 170.992 185.934  0.00  0.00    +0.149 HD
ATOM     37  H   UNL     1     155.936 170.451 184.412  0.00  0.00    +0.050 HD
ENDROOT
BRANCH   1  38
ATOM     38  C   UNL     1     165.290 169.272 180.772  0.00  0.00    -0.055 C 
ATOM     39  H   UNL     1     165.598 168.521 181.507  0.00  0.00    +0.024 HD
ATOM     40  H   UNL     1     165.998 170.106 180.834  0.00  0.00    +0.024 HD
ATOM     41  H   UNL     1     165.381 168.827 179.775  0.00  0.00    +0.024 HD
ENDBRANCH   1  38
BRANCH  15  42
ATOM     42  C   UNL     1     164.198 172.917 180.844  0.00  0.00    -0.025 C 
ATOM     43  H   UNL     1     164.094 174.006 180.884  0.00  0.00    +0.026 HD
ATOM     44  H   UNL     1     165.261 172.671 180.951  0.00  0.00    +0.026 HD
ATOM     45  H   UNL     1     163.902 172.591 179.839  0.00  0.00    +0.026 HD
ENDBRANCH  15  42
BRANCH   9  46
ATOM     46  C   UNL     1     154.899 170.075 181.830  0.00  0.00    -0.058 C 
ATOM     47  H   UNL     1     154.699 170.761 181.000  0.00  0.00    +0.024 HD
ATOM     48  H   UNL     1     154.361 169.143 181.617  0.00  0.00    +0.024 HD
ATOM     49  H   UNL     1     154.466 170.512 182.734  0.00  0.00    +0.024 HD
ENDBRANCH   9  46
BRANCH  21  50
ATOM     50  C   UNL     1     155.958 172.580 184.378  0.00  0.00    -0.009 C 
ATOM     51  H   UNL     1     155.104 172.412 185.046  0.00  0.00    +0.033 HD
ATOM     52  H   UNL     1     156.649 173.217 184.946  0.00  0.00    +0.033 HD
BRANCH  50  53
ATOM     53  C   UNL     1     155.507 173.372 183.174  0.00  0.00    -0.046 A 
ATOM     54  C   UNL     1     154.204 173.233 182.681  0.00  0.00    -0.059 A 
ATOM     55  C   UNL     1     153.787 173.952 181.559  0.00  0.00    -0.062 A 
ATOM     56  C   UNL     1     154.664 174.825 180.922  0.00  0.00    -0.062 A 
ATOM     57  C   UNL     1     155.957 174.986 181.411  0.00  0.00    -0.062 A 
ATOM     58  C   UNL     1     156.374 174.268 182.533  0.00  0.00    -0.059 A 
ATOM     59  H   UNL     1     153.502 172.545 183.149  0.00  0.00    +0.062 HD
ATOM     60  H   UNL     1     152.779 173.814 181.176  0.00  0.00    +0.062 HD
ATOM     61  H   UNL     1     154.340 175.376 180.043  0.00  0.00    +0.062 HD
ATOM     62  H   UNL     1     156.643 175.667 180.916  0.00  0.00    +0.062 HD
ATOM     63  H   UNL     1     157.387 174.417 182.899  0.00  0.00    +0.062 HD
ENDBRANCH  50  53
ENDBRANCH  21  50
BRANCH  15  64
ATOM     64  O   UNL     1     163.501 172.976 183.106  0.00  0.00    -0.377 OA
ATOM     65  H   UNL     1     164.455 173.189 183.175  0.00  0.00    +0.211 HD
ENDBRANCH  15  64
BRANCH   6  66
ATOM     66  O   UNL     1     158.506 167.090 181.823  0.00  0.00    -0.387 OA
ATOM     67  H   UNL     1     158.625 167.416 180.915  0.00  0.00    +0.210 HD
ENDBRANCH   6  66
BRANCH  12  68
ATOM     68  O   UNL     1     159.293 171.860 180.603  0.00  0.00    -0.456 OA
BRANCH  68  69
ATOM     69  C   UNL     1     158.653 172.799 179.865  0.00  0.00    +0.305 C 
ATOM     70  O   UNL     1     158.976 173.971 179.747  0.00  0.00    -0.251 OA
BRANCH  69  71
ATOM     71  C   UNL     1     157.432 172.200 179.236  0.00  0.00    +0.033 C 
ATOM     72  H   UNL     1     157.676 171.216 178.827  0.00  0.00    +0.034 HD
ATOM     73  H   UNL     1     156.650 172.090 179.993  0.00  0.00    +0.034 HD
ATOM     74  H   UNL     1     157.055 172.860 178.450  0.00  0.00    +0.034 HD
ENDBRANCH  69  71
ENDBRANCH  68  69
ENDBRANCH  12  68
TORSDOF 10
ENDMDL
MODEL 2
REMARK VINA RESULT:      -5.8     11.978     15.069
REMARK  Name = Cytochalasin D_conf1
REMARK  10 active torsions:
REMARK  status: ('A' for Active; 'I' for Inactive)
REMARK    1  A    between atoms: C_1  and  C_2
REMARK    2  A    between atoms: C_7  and  O_37
REMARK    3  A    between atoms: C_10  and  C_36
REMARK    4  A    between atoms: C_13  and  O_21
REMARK    5  A    between atoms: C_16  and  C_19
REMARK    6  A    between atoms: C_16  and  O_20
REMARK    7  A    between atoms: O_21  and  C_22
REMARK    8  A    between atoms: C_22  and  C_24
REMARK    9  A    between atoms: C_28  and  C_29
REMARK   10  A    between atoms: C_29  and  C_30
REMARK                            x       y       z     vdW  Elec       q    Type
REMARK                         _______ _______ _______ _____ _____    ______ ____
ROOT
ATOM      1  C   UNL     1     151.892 166.228 192.923  0.00  0.00    +0.021 C 
ATOM      2  C   UNL     1     150.690 166.191 193.882  0.00  0.00    -0.025 C 
ATOM      3  C   UNL     1     149.399 165.861 193.177  0.00  0.00    -0.087 C 
ATOM      4  C   UNL     1     148.412 166.748 192.963  0.00  0.00    -0.081 C 
ATOM      5  C   UNL     1     147.104 166.423 192.241  0.00  0.00    +0.025 C 
ATOM      6  C   UNL     1     145.922 166.566 193.242  0.00  0.00    +0.084 C 
ATOM      7  C   UNL     1     144.562 166.347 192.611  0.00  0.00    -0.045 C 
ATOM      8  C   UNL     1     143.442 166.572 193.322  0.00  0.00    -0.097 C 
ATOM      9  C   UNL     1     144.597 165.892 191.165  0.00  0.00    -0.015 C 
ATOM     10  C   UNL     1     145.393 166.919 190.319  0.00  0.00    +0.002 C 
ATOM     11  C   UNL     1     146.841 167.221 190.906  0.00  0.00    +0.101 C 
ATOM     12  C   UNL     1     147.905 166.915 189.793  0.00  0.00    +0.136 C 
ATOM     13  C   UNL     1     149.278 167.519 190.012  0.00  0.00    -0.044 C 
ATOM     14  C   UNL     1     150.429 166.858 190.237  0.00  0.00    -0.046 C 
ATOM     15  C   UNL     1     151.756 167.482 190.585  0.00  0.00    +0.139 C 
ATOM     16  C   UNL     1     151.900 167.537 192.131  0.00  0.00    +0.171 C 
ATOM     17  O   UNL     1     152.013 168.627 192.704  0.00  0.00    -0.294 OA
ATOM     18  C   UNL     1     146.767 168.715 191.203  0.00  0.00    +0.224 C 
ATOM     19  O   UNL     1     147.616 169.409 191.741  0.00  0.00    -0.275 OA
ATOM     20  N   UNL     1     145.561 169.225 190.818  0.00  0.00    -0.311 N 
ATOM     21  C   UNL     1     144.677 168.287 190.202  0.00  0.00    +0.032 C 
ATOM     22  H   UNL     1     151.844 165.377 192.235  0.00  0.00    +0.038 HD
ATOM     23  H   UNL     1     150.598 167.143 194.421  0.00  0.00    +0.031 HD
ATOM     24  H   UNL     1     150.847 165.419 194.646  0.00  0.00    +0.031 HD
ATOM     25  H   UNL     1     149.287 164.835 192.829  0.00  0.00    +0.057 HD
ATOM     26  H   UNL     1     148.538 167.771 193.320  0.00  0.00    +0.057 HD
ATOM     27  H   UNL     1     147.161 165.356 191.985  0.00  0.00    +0.038 HD
ATOM     28  H   UNL     1     145.944 167.553 193.722  0.00  0.00    +0.065 HD
ATOM     29  H   UNL     1     143.500 166.888 194.360  0.00  0.00    +0.054 HD
ATOM     30  H   UNL     1     142.445 166.428 192.919  0.00  0.00    +0.054 HD
ATOM     31  H   UNL     1     145.146 164.941 191.142  0.00  0.00    +0.035 HD
ATOM     32  H   UNL     1     145.475 166.481 189.320  0.00  0.00    +0.034 HD
ATOM     33  H   UNL     1     147.564 167.312 188.832  0.00  0.00    +0.079 HD
ATOM     34  H   UNL     1     149.304 168.609 190.002  0.00  0.00    +0.061 HD
ATOM     35  H   UNL     1     150.411 165.770 190.252  0.00  0.00    +0.060 HD
ATOM     36  H   UNL     1     145.347 170.200 190.991  0.00  0.00    +0.149 HD
ATOM     37  H   UNL     1     143.769 168.310 190.813  0.00  0.00    +0.050 HD
ENDROOT
BRANCH   1  38
ATOM     38  C   UNL     1     153.207 166.129 193.697  0.00  0.00    -0.055 C 
ATOM     39  H   UNL     1     153.714 167.099 193.754  0.00  0.00    +0.024 HD
ATOM     40  H   UNL     1     153.892 165.426 193.213  0.00  0.00    +0.024 HD
ATOM     41  H   UNL     1     153.031 165.779 194.719  0.00  0.00    +0.024 HD
ENDBRANCH   1  38
BRANCH  15  42
ATOM     42  C   UNL     1     152.926 166.736 189.950  0.00  0.00    -0.025 C 
ATOM     43  H   UNL     1     153.007 166.918 188.874  0.00  0.00    +0.026 HD
ATOM     44  H   UNL     1     153.875 167.024 190.418  0.00  0.00    +0.026 HD
ATOM     45  H   UNL     1     152.820 165.655 190.099  0.00  0.00    +0.026 HD
ENDBRANCH  15  42
BRANCH   9  46
ATOM     46  C   UNL     1     143.239 165.568 190.523  0.00  0.00    -0.058 C 
ATOM     47  H   UNL     1     143.333 165.524 189.432  0.00  0.00    +0.024 HD
ATOM     48  H   UNL     1     142.877 164.588 190.857  0.00  0.00    +0.024 HD
ATOM     49  H   UNL     1     142.469 166.308 190.760  0.00  0.00    +0.024 HD
ENDBRANCH   9  46
BRANCH  21  50
ATOM     50  C   UNL     1     144.250 168.701 188.777  0.00  0.00    -0.009 C 
ATOM     51  H   UNL     1     143.308 168.196 188.531  0.00  0.00    +0.033 HD
ATOM     52  H   UNL     1     144.012 169.774 188.781  0.00  0.00    +0.033 HD
BRANCH  50  53
ATOM     53  C   UNL     1     145.249 168.469 187.669  0.00  0.00    -0.046 A 
ATOM     54  C   UNL     1     145.168 167.323 186.869  0.00  0.00    -0.059 A 
ATOM     55  C   UNL     1     146.098 167.096 185.853  0.00  0.00    -0.062 A 
ATOM     56  C   UNL     1     147.115 168.016 185.618  0.00  0.00    -0.062 A 
ATOM     57  C   UNL     1     147.198 169.169 186.394  0.00  0.00    -0.062 A 
ATOM     58  C   UNL     1     146.268 169.397 187.409  0.00  0.00    -0.059 A 
ATOM     59  H   UNL     1     144.393 166.577 187.042  0.00  0.00    +0.062 HD
ATOM     60  H   UNL     1     146.034 166.189 185.258  0.00  0.00    +0.062 HD
ATOM     61  H   UNL     1     147.844 167.834 184.833  0.00  0.00    +0.062 HD
ATOM     62  H   UNL     1     147.991 169.890 186.211  0.00  0.00    +0.062 HD
ATOM     63  H   UNL     1     146.351 170.308 187.996  0.00  0.00    +0.062 HD
ENDBRANCH  50  53
ENDBRANCH  21  50
BRANCH  15  64
ATOM     64  O   UNL     1     151.800 168.816 190.068  0.00  0.00    -0.377 OA
ATOM     65  H   UNL     1     152.728 169.111 190.176  0.00  0.00    +0.211 HD
ENDBRANCH  15  64
BRANCH   6  66
ATOM     66  O   UNL     1     146.047 165.576 194.269  0.00  0.00    -0.387 OA
ATOM     67  H   UNL     1     146.591 164.859 193.900  0.00  0.00    +0.210 HD
ENDBRANCH   6  66
BRANCH  12  68
ATOM     68  O   UNL     1     148.070 165.472 189.713  0.00  0.00    -0.456 OA
BRANCH  68  69
ATOM     69  C   UNL     1     147.893 164.849 188.523  0.00  0.00    +0.305 C 
ATOM     70  O   UNL     1     148.617 164.937 187.544  0.00  0.00    -0.251 OA
BRANCH  69  71
ATOM     71  C   UNL     1     146.624 164.052 188.556  0.00  0.00    +0.033 C 
ATOM     72  H   UNL     1     146.861 162.986 188.585  0.00  0.00    +0.034 HD
ATOM     73  H   UNL     1     146.052 164.317 189.451  0.00  0.00    +0.034 HD
ATOM     74  H   UNL     1     146.012 164.287 187.681  0.00  0.00    +0.034 HD
ENDBRANCH  69  71
ENDBRANCH  68  69
ENDBRANCH  12  68
TORSDOF 10
ENDMDL
MODEL 3
REMARK VINA RESULT:      -5.6     15.986     18.916
REMARK  Name = Cytochalasin D_conf1
REMARK  10 active torsions:
REMARK  status: ('A' for Active; 'I' for Inactive)
REMARK    1  A    between atoms: C_1  and  C_2
REMARK    2  A    between atoms: C_7  and  O_37
REMARK    3  A    between atoms: C_10  and  C_36
REMARK    4  A    between atoms: C_13  and  O_21
REMARK    5  A    between atoms: C_16  and  C_19
REMARK    6  A    between atoms: C_16  and  O_20
REMARK    7  A    between atoms: O_21  and  C_22
REMARK    8  A    between atoms: C_22  and  C_24
REMARK    9  A    between atoms: C_28  and  C_29
REMARK   10  A    between atoms: C_29  and  C_30
REMARK                            x       y       z     vdW  Elec       q    Type
REMARK                         _______ _______ _______ _____ _____    ______ ____
ROOT
ATOM      1  C   UNL     1     150.729 186.900 186.932  0.00  0.00    +0.021 C 
ATOM      2  C   UNL     1     150.726 185.581 186.140  0.00  0.00    -0.025 C 
ATOM      3  C   UNL     1     149.379 184.907 186.144  0.00  0.00    -0.087 C 
ATOM      4  C   UNL     1     149.105 183.781 186.824  0.00  0.00    -0.081 C 
ATOM      5  C   UNL     1     147.737 183.096 186.842  0.00  0.00    +0.025 C 
ATOM      6  C   UNL     1     147.859 181.701 186.165  0.00  0.00    +0.084 C 
ATOM      7  C   UNL     1     146.576 180.895 186.200  0.00  0.00    -0.045 C 
ATOM      8  C   UNL     1     146.567 179.618 185.775  0.00  0.00    -0.097 C 
ATOM      9  C   UNL     1     145.374 181.634 186.755  0.00  0.00    -0.015 C 
ATOM     10  C   UNL     1     145.695 182.146 188.182  0.00  0.00    +0.002 C 
ATOM     11  C   UNL     1     147.034 183.005 188.251  0.00  0.00    +0.101 C 
ATOM     12  C   UNL     1     146.695 184.413 188.856  0.00  0.00    +0.136 C 
ATOM     13  C   UNL     1     147.876 185.208 189.376  0.00  0.00    -0.044 C 
ATOM     14  C   UNL     1     148.352 186.368 188.886  0.00  0.00    -0.046 C 
ATOM     15  C   UNL     1     149.608 187.070 189.334  0.00  0.00    +0.139 C 
ATOM     16  C   UNL     1     150.790 186.617 188.434  0.00  0.00    +0.171 C 
ATOM     17  O   UNL     1     151.759 186.032 188.933  0.00  0.00    -0.294 OA
ATOM     18  C   UNL     1     147.897 182.186 189.206  0.00  0.00    +0.224 C 
ATOM     19  O   UNL     1     149.057 182.396 189.524  0.00  0.00    -0.275 OA
ATOM     20  N   UNL     1     147.209 181.103 189.671  0.00  0.00    -0.311 N 
ATOM     21  C   UNL     1     145.862 180.999 189.210  0.00  0.00    +0.032 C 
ATOM     22  H   UNL     1     149.827 187.475 186.698  0.00  0.00    +0.038 HD
ATOM     23  H   UNL     1     151.496 184.899 186.525  0.00  0.00    +0.031 HD
ATOM     24  H   UNL     1     150.986 185.777 185.091  0.00  0.00    +0.031 HD
ATOM     25  H   UNL     1     148.597 185.385 185.556  0.00  0.00    +0.057 HD
ATOM     26  H   UNL     1     149.898 183.313 187.408  0.00  0.00    +0.057 HD
ATOM     27  H   UNL     1     147.093 183.699 186.187  0.00  0.00    +0.038 HD
ATOM     28  H   UNL     1     148.665 181.118 186.629  0.00  0.00    +0.065 HD
ATOM     29  H   UNL     1     147.470 179.160 185.381  0.00  0.00    +0.054 HD
ATOM     30  H   UNL     1     145.676 178.999 185.777  0.00  0.00    +0.054 HD
ATOM     31  H   UNL     1     145.215 182.512 186.113  0.00  0.00    +0.035 HD
ATOM     32  H   UNL     1     144.840 182.759 188.478  0.00  0.00    +0.034 HD
ATOM     33  H   UNL     1     146.023 184.298 189.712  0.00  0.00    +0.079 HD
ATOM     34  H   UNL     1     148.391 184.758 190.225  0.00  0.00    +0.061 HD
ATOM     35  H   UNL     1     147.846 186.822 188.036  0.00  0.00    +0.060 HD
ATOM     36  H   UNL     1     147.667 180.440 190.285  0.00  0.00    +0.149 HD
ATOM     37  H   UNL     1     145.804 180.021 188.721  0.00  0.00    +0.050 HD
ENDROOT
BRANCH   1  38
ATOM     38  C   UNL     1     151.939 187.756 186.557  0.00  0.00    -0.055 C 
ATOM     39  H   UNL     1     151.652 188.606 185.928  0.00  0.00    +0.024 HD
ATOM     40  H   UNL     1     152.676 187.167 186.001  0.00  0.00    +0.024 HD
ATOM     41  H   UNL     1     152.430 188.149 187.454  0.00  0.00    +0.024 HD
ENDBRANCH   1  38
BRANCH  15  42
ATOM     42  C   UNL     1     149.455 188.588 189.317  0.00  0.00    -0.025 C 
ATOM     43  H   UNL     1     148.692 188.926 188.607  0.00  0.00    +0.026 HD
ATOM     44  H   UNL     1     149.188 188.967 190.311  0.00  0.00    +0.026 HD
ATOM     45  H   UNL     1     150.401 189.068 189.043  0.00  0.00    +0.026 HD
ENDBRANCH  15  42
BRANCH   9  46
ATOM     46  C   UNL     1     144.036 180.881 186.716  0.00  0.00    -0.058 C 
ATOM     47  H   UNL     1     143.199 181.585 186.780  0.00  0.00    +0.024 HD
ATOM     48  H   UNL     1     143.928 180.333 185.772  0.00  0.00    +0.024 HD
ATOM     49  H   UNL     1     143.930 180.163 187.535  0.00  0.00    +0.024 HD
ENDBRANCH   9  46
BRANCH  21  50
ATOM     50  C   UNL     1     144.828 180.971 190.357  0.00  0.00    -0.009 C 
ATOM     51  H   UNL     1     144.055 180.230 190.116  0.00  0.00    +0.033 HD
ATOM     52  H   UNL     1     145.320 180.593 191.263  0.00  0.00    +0.033 HD
BRANCH  50  53
ATOM     53  C   UNL     1     144.172 182.282 190.719  0.00  0.00    -0.046 A 
ATOM     54  C   UNL     1     142.919 182.618 190.192  0.00  0.00    -0.059 A 
ATOM     55  C   UNL     1     142.315 183.835 190.512  0.00  0.00    -0.062 A 
ATOM     56  C   UNL     1     142.952 184.728 191.370  0.00  0.00    -0.062 A 
ATOM     57  C   UNL     1     144.190 184.399 191.915  0.00  0.00    -0.062 A 
ATOM     58  C   UNL     1     144.793 183.182 191.596  0.00  0.00    -0.059 A 
ATOM     59  H   UNL     1     142.406 181.947 189.505  0.00  0.00    +0.062 HD
ATOM     60  H   UNL     1     141.353 184.090 190.075  0.00  0.00    +0.062 HD
ATOM     61  H   UNL     1     142.485 185.679 191.610  0.00  0.00    +0.062 HD
ATOM     62  H   UNL     1     144.688 185.094 192.585  0.00  0.00    +0.062 HD
ATOM     63  H   UNL     1     145.758 182.947 192.040  0.00  0.00    +0.062 HD
ENDBRANCH  50  53
ENDBRANCH  21  50
BRANCH  15  64
ATOM     64  O   UNL     1     149.892 186.709 190.689  0.00  0.00    -0.377 OA
ATOM     65  H   UNL     1     149.927 185.730 190.700  0.00  0.00    +0.211 HD
ENDBRANCH  15  64
BRANCH   6  66
ATOM     66  O   UNL     1     148.183 181.871 184.780  0.00  0.00    -0.387 OA
ATOM     67  H   UNL     1     147.579 182.552 184.435  0.00  0.00    +0.210 HD
ENDBRANCH   6  66
BRANCH  12  68
ATOM     68  O   UNL     1     146.056 185.206 187.817  0.00  0.00    -0.456 OA
BRANCH  68  69
ATOM     69  C   UNL     1     144.842 185.758 188.055  0.00  0.00    +0.305 C 
ATOM     70  O   UNL     1     144.598 186.660 188.840  0.00  0.00    -0.251 OA
BRANCH  69  71
ATOM     71  C   UNL     1     143.801 185.056 187.236  0.00  0.00    +0.033 C 
ATOM     72  H   UNL     1     143.749 185.510 186.243  0.00  0.00    +0.034 HD
ATOM     73  H   UNL     1     144.070 184.001 187.134  0.00  0.00    +0.034 HD
ATOM     74  H   UNL     1     142.831 185.113 187.737  0.00  0.00    +0.034 HD
ENDBRANCH  69  71
ENDBRANCH  68  69
ENDBRANCH  12  68
TORSDOF 10
ENDMDL
MODEL 4
REMARK VINA RESULT:      -5.6      4.371      8.523
REMARK  Name = Cytochalasin D_conf1
REMARK  10 active torsions:
REMARK  status: ('A' for Active; 'I' for Inactive)
REMARK    1  A    between atoms: C_1  and  C_2
REMARK    2  A    between atoms: C_7  and  O_37
REMARK    3  A    between atoms: C_10  and  C_36
REMARK    4  A    between atoms: C_13  and  O_21
REMARK    5  A    between atoms: C_16  and  C_19
REMARK    6  A    between atoms: C_16  and  O_20
REMARK    7  A    between atoms: O_21  and  C_22
REMARK    8  A    between atoms: C_22  and  C_24
REMARK    9  A    between atoms: C_28  and  C_29
REMARK   10  A    between atoms: C_29  and  C_30
REMARK                            x       y       z     vdW  Elec       q    Type
REMARK                         _______ _______ _______ _____ _____    ______ ____
ROOT
ATOM      1  C   UNL     1     152.667 176.967 176.636  0.00  0.00    +0.021 C 
ATOM      2  C   UNL     1     153.871 176.327 175.924  0.00  0.00    -0.025 C 
ATOM      3  C   UNL     1     154.545 175.273 176.763  0.00  0.00    -0.087 C 
ATOM      4  C   UNL     1     155.751 175.425 177.335  0.00  0.00    -0.081 C 
ATOM      5  C   UNL     1     156.438 174.364 178.196  0.00  0.00    +0.025 C 
ATOM      6  C   UNL     1     157.732 173.886 177.477  0.00  0.00    +0.084 C 
ATOM      7  C   UNL     1     158.540 172.889 178.282  0.00  0.00    -0.045 C 
ATOM      8  C   UNL     1     159.751 172.491 177.849  0.00  0.00    -0.097 C 
ATOM      9  C   UNL     1     157.884 172.427 179.568  0.00  0.00    -0.015 C 
ATOM     10  C   UNL     1     157.561 173.657 180.455  0.00  0.00    +0.002 C 
ATOM     11  C   UNL     1     156.714 174.769 179.694  0.00  0.00    +0.101 C 
ATOM     12  C   UNL     1     155.398 175.039 180.507  0.00  0.00    +0.136 C 
ATOM     13  C   UNL     1     154.674 176.328 180.177  0.00  0.00    -0.044 C 
ATOM     14  C   UNL     1     153.458 176.455 179.613  0.00  0.00    -0.046 C 
ATOM     15  C   UNL     1     152.816 177.745 179.172  0.00  0.00    +0.139 C 
ATOM     16  C   UNL     1     153.143 177.987 177.672  0.00  0.00    +0.171 C 
ATOM     17  O   UNL     1     153.784 178.989 177.333  0.00  0.00    -0.294 OA
ATOM     18  C   UNL     1     157.647 175.976 179.739  0.00  0.00    +0.224 C 
ATOM     19  O   UNL     1     157.477 177.066 179.216  0.00  0.00    -0.275 OA
ATOM     20  N   UNL     1     158.784 175.682 180.434  0.00  0.00    -0.311 N 
ATOM     21  C   UNL     1     158.832 174.366 180.986  0.00  0.00    +0.032 C 
ATOM     22  H   UNL     1     152.070 176.191 177.125  0.00  0.00    +0.038 HD
ATOM     23  H   UNL     1     154.595 177.097 175.624  0.00  0.00    +0.031 HD
ATOM     24  H   UNL     1     153.540 175.840 174.998  0.00  0.00    +0.031 HD
ATOM     25  H   UNL     1     153.998 174.341 176.900  0.00  0.00    +0.057 HD
ATOM     26  H   UNL     1     156.289 176.363 177.186  0.00  0.00    +0.057 HD
ATOM     27  H   UNL     1     155.756 173.501 178.205  0.00  0.00    +0.038 HD
ATOM     28  H   UNL     1     158.367 174.744 177.221  0.00  0.00    +0.065 HD
ATOM     29  H   UNL     1     160.150 172.862 176.908  0.00  0.00    +0.054 HD
ATOM     30  H   UNL     1     160.367 171.778 178.385  0.00  0.00    +0.054 HD
ATOM     31  H   UNL     1     156.930 171.956 179.290  0.00  0.00    +0.035 HD
ATOM     32  H   UNL     1     156.995 173.270 181.306  0.00  0.00    +0.034 HD
ATOM     33  H   UNL     1     155.626 175.099 181.575  0.00  0.00    +0.079 HD
ATOM     34  H   UNL     1     155.229 177.237 180.413  0.00  0.00    +0.061 HD
ATOM     35  H   UNL     1     152.899 175.553 179.371  0.00  0.00    +0.060 HD
ATOM     36  H   UNL     1     159.519 176.374 180.513  0.00  0.00    +0.149 HD
ATOM     37  H   UNL     1     159.738 173.915 180.568  0.00  0.00    +0.050 HD
ENDROOT
BRANCH   1  38
ATOM     38  C   UNL     1     151.765 177.689 175.634  0.00  0.00    -0.055 C 
ATOM     39  H   UNL     1     151.822 177.234 174.640  0.00  0.00    +0.024 HD
ATOM     40  H   UNL     1     152.056 178.740 175.535  0.00  0.00    +0.024 HD
ATOM     41  H   UNL     1     150.720 177.659 175.961  0.00  0.00    +0.024 HD
ENDBRANCH   1  38
BRANCH  15  42
ATOM     42  C   UNL     1     151.309 177.748 179.412  0.00  0.00    -0.025 C 
ATOM     43  H   UNL     1     150.901 178.759 179.516  0.00  0.00    +0.026 HD
ATOM     44  H   UNL     1     150.779 177.249 178.591  0.00  0.00    +0.026 HD
ATOM     45  H   UNL     1     151.063 177.194 180.326  0.00  0.00    +0.026 HD
ENDBRANCH  15  42
BRANCH   9  46
ATOM     46  C   UNL     1     158.630 171.343 180.361  0.00  0.00    -0.058 C 
ATOM     47  H   UNL     1     159.675 171.635 180.515  0.00  0.00    +0.024 HD
ATOM     48  H   UNL     1     158.181 171.209 181.352  0.00  0.00    +0.024 HD
ATOM     49  H   UNL     1     158.628 170.372 179.857  0.00  0.00    +0.024 HD
ENDBRANCH   9  46
BRANCH  21  50
ATOM     50  C   UNL     1     159.013 174.357 182.520  0.00  0.00    -0.009 C 
ATOM     51  H   UNL     1     160.036 174.035 182.752  0.00  0.00    +0.033 HD
ATOM     52  H   UNL     1     158.944 175.391 182.886  0.00  0.00    +0.033 HD
BRANCH  50  53
ATOM     53  C   UNL     1     158.033 173.534 183.320  0.00  0.00    -0.046 A 
ATOM     54  C   UNL     1     158.346 172.221 183.693  0.00  0.00    -0.059 A 
ATOM     55  C   UNL     1     157.437 171.450 184.420  0.00  0.00    -0.062 A 
ATOM     56  C   UNL     1     156.207 171.985 184.792  0.00  0.00    -0.062 A 
ATOM     57  C   UNL     1     155.889 173.295 184.443  0.00  0.00    -0.062 A 
ATOM     58  C   UNL     1     156.797 174.066 183.717  0.00  0.00    -0.059 A 
ATOM     59  H   UNL     1     159.294 171.771 183.401  0.00  0.00    +0.062 HD
ATOM     60  H   UNL     1     157.688 170.426 184.680  0.00  0.00    +0.062 HD
ATOM     61  H   UNL     1     155.497 171.381 185.349  0.00  0.00    +0.062 HD
ATOM     62  H   UNL     1     154.929 173.715 184.733  0.00  0.00    +0.062 HD
ATOM     63  H   UNL     1     156.527 175.088 183.463  0.00  0.00    +0.062 HD
ENDBRANCH  50  53
ENDBRANCH  21  50
BRANCH  15  64
ATOM     64  O   UNL     1     153.350 178.825 179.943  0.00  0.00    -0.377 OA
ATOM     65  H   UNL     1     152.587 179.209 180.423  0.00  0.00    +0.211 HD
ENDBRANCH  15  64
BRANCH   6  66
ATOM     66  O   UNL     1     157.381 173.221 176.258  0.00  0.00    -0.387 OA
ATOM     67  H   UNL     1     157.320 172.273 176.466  0.00  0.00    +0.210 HD
ENDBRANCH   6  66
BRANCH  12  68
ATOM     68  O   UNL     1     154.479 173.942 180.248  0.00  0.00    -0.456 OA
BRANCH  68  69
ATOM     69  C   UNL     1     153.954 173.255 181.291  0.00  0.00    +0.305 C 
ATOM     70  O   UNL     1     153.182 173.691 182.131  0.00  0.00    -0.251 OA
BRANCH  69  71
ATOM     71  C   UNL     1     154.504 171.861 181.304  0.00  0.00    +0.033 C 
ATOM     72  H   UNL     1     153.841 171.210 181.879  0.00  0.00    +0.034 HD
ATOM     73  H   UNL     1     154.572 171.488 180.278  0.00  0.00    +0.034 HD
ATOM     74  H   UNL     1     155.510 171.860 181.733  0.00  0.00    +0.034 HD
ENDBRANCH  69  71
ENDBRANCH  68  69
ENDBRANCH  12  68
TORSDOF 10
ENDMDL
MODEL 5
REMARK VINA RESULT:      -5.5     27.861     31.014
REMARK  Name = Cytochalasin D_conf1
REMARK  10 active torsions:
REMARK  status: ('A' for Active; 'I' for Inactive)
REMARK    1  A    between atoms: C_1  and  C_2
REMARK    2  A    between atoms: C_7  and  O_37
REMARK    3  A    between atoms: C_10  and  C_36
REMARK    4  A    between atoms: C_13  and  O_21
REMARK    5  A    between atoms: C_16  and  C_19
REMARK    6  A    between atoms: C_16  and  O_20
REMARK    7  A    between atoms: O_21  and  C_22
REMARK    8  A    between atoms: C_22  and  C_24
REMARK    9  A    between atoms: C_28  and  C_29
REMARK   10  A    between atoms: C_29  and  C_30
REMARK                            x       y       z     vdW  Elec       q    Type
REMARK                         _______ _______ _______ _____ _____    ______ ____
ROOT
ATOM      1  C   UNL     1     132.706 173.429 197.615  0.00  0.00    +0.021 C 
ATOM      2  C   UNL     1     131.999 173.630 198.967  0.00  0.00    -0.025 C 
ATOM      3  C   UNL     1     132.633 174.717 199.795  0.00  0.00    -0.087 C 
ATOM      4  C   UNL     1     133.354 174.492 200.907  0.00  0.00    -0.081 C 
ATOM      5  C   UNL     1     134.009 175.589 201.747  0.00  0.00    +0.025 C 
ATOM      6  C   UNL     1     133.343 175.617 203.153  0.00  0.00    +0.084 C 
ATOM      7  C   UNL     1     133.973 176.616 204.102  0.00  0.00    -0.045 C 
ATOM      8  C   UNL     1     133.593 176.656 205.393  0.00  0.00    -0.097 C 
ATOM      9  C   UNL     1     135.034 177.504 203.481  0.00  0.00    -0.015 C 
ATOM     10  C   UNL     1     136.146 176.623 202.857  0.00  0.00    +0.002 C 
ATOM     11  C   UNL     1     135.582 175.533 201.843  0.00  0.00    +0.101 C 
ATOM     12  C   UNL     1     136.286 175.731 200.454  0.00  0.00    +0.136 C 
ATOM     13  C   UNL     1     136.193 174.559 199.497  0.00  0.00    -0.044 C 
ATOM     14  C   UNL     1     135.546 174.524 198.317  0.00  0.00    -0.046 C 
ATOM     15  C   UNL     1     135.355 173.308 197.447  0.00  0.00    +0.139 C 
ATOM     16  C   UNL     1     134.000 172.637 197.805  0.00  0.00    +0.171 C 
ATOM     17  O   UNL     1     133.980 171.479 198.243  0.00  0.00    -0.294 OA
ATOM     18  C   UNL     1     136.013 174.225 202.499  0.00  0.00    +0.224 C 
ATOM     19  O   UNL     1     135.748 173.089 202.136  0.00  0.00    -0.275 OA
ATOM     20  N   UNL     1     136.739 174.467 203.629  0.00  0.00    -0.311 N 
ATOM     21  C   UNL     1     136.965 175.847 203.918  0.00  0.00    +0.032 C 
ATOM     22  H   UNL     1     132.929 174.403 197.166  0.00  0.00    +0.038 HD
ATOM     23  H   UNL     1     131.972 172.688 199.530  0.00  0.00    +0.031 HD
ATOM     24  H   UNL     1     130.954 173.919 198.801  0.00  0.00    +0.031 HD
ATOM     25  H   UNL     1     132.486 175.739 199.447  0.00  0.00    +0.057 HD
ATOM     26  H   UNL     1     133.491 173.464 201.244  0.00  0.00    +0.057 HD
ATOM     27  H   UNL     1     133.739 176.538 201.262  0.00  0.00    +0.038 HD
ATOM     28  H   UNL     1     133.370 174.619 203.609  0.00  0.00    +0.065 HD
ATOM     29  H   UNL     1     132.817 175.991 205.762  0.00  0.00    +0.054 HD
ATOM     30  H   UNL     1     134.010 177.353 206.112  0.00  0.00    +0.054 HD
ATOM     31  H   UNL     1     134.549 178.059 202.666  0.00  0.00    +0.035 HD
ATOM     32  H   UNL     1     136.814 177.313 202.334  0.00  0.00    +0.034 HD
ATOM     33  H   UNL     1     137.356 175.903 200.600  0.00  0.00    +0.079 HD
ATOM     34  H   UNL     1     136.697 173.653 199.835  0.00  0.00    +0.061 HD
ATOM     35  H   UNL     1     135.038 175.423 197.974  0.00  0.00    +0.060 HD
ATOM     36  H   UNL     1     137.060 173.693 204.197  0.00  0.00    +0.149 HD
ATOM     37  H   UNL     1     136.554 175.998 204.921  0.00  0.00    +0.050 HD
ENDROOT
BRANCH   1  38
ATOM     38  C   UNL     1     131.812 172.659 196.644  0.00  0.00    -0.055 C 
ATOM     39  H   UNL     1     132.315 172.482 195.687  0.00  0.00    +0.024 HD
ATOM     40  H   UNL     1     130.892 173.216 196.436  0.00  0.00    +0.024 HD
ATOM     41  H   UNL     1     131.530 171.687 197.063  0.00  0.00    +0.024 HD
ENDBRANCH   1  38
BRANCH  15  42
ATOM     42  C   UNL     1     135.422 173.649 195.962  0.00  0.00    -0.025 C 
ATOM     43  H   UNL     1     136.431 173.927 195.639  0.00  0.00    +0.026 HD
ATOM     44  H   UNL     1     135.089 172.802 195.349  0.00  0.00    +0.026 HD
ATOM     45  H   UNL     1     134.755 174.486 195.727  0.00  0.00    +0.026 HD
ENDBRANCH  15  42
BRANCH   9  46
ATOM     46  C   UNL     1     135.624 178.594 204.390  0.00  0.00    -0.058 C 
ATOM     47  H   UNL     1     136.054 179.401 203.787  0.00  0.00    +0.024 HD
ATOM     48  H   UNL     1     134.844 179.038 205.019  0.00  0.00    +0.024 HD
ATOM     49  H   UNL     1     136.412 178.216 205.049  0.00  0.00    +0.024 HD
ENDBRANCH   9  46
BRANCH  21  50
ATOM     50  C   UNL     1     138.464 176.211 204.004  0.00  0.00    -0.009 C 
ATOM     51  H   UNL     1     138.781 176.149 205.053  0.00  0.00    +0.033 HD
ATOM     52  H   UNL     1     139.043 175.437 203.481  0.00  0.00    +0.033 HD
BRANCH  50  53
ATOM     53  C   UNL     1     138.879 177.544 203.431  0.00  0.00    -0.046 A 
ATOM     54  C   UNL     1     139.070 178.649 204.270  0.00  0.00    -0.059 A 
ATOM     55  C   UNL     1     139.439 179.888 203.743  0.00  0.00    -0.062 A 
ATOM     56  C   UNL     1     139.631 180.036 202.372  0.00  0.00    -0.062 A 
ATOM     57  C   UNL     1     139.462 178.942 201.528  0.00  0.00    -0.062 A 
ATOM     58  C   UNL     1     139.094 177.703 202.055  0.00  0.00    -0.059 A 
ATOM     59  H   UNL     1     138.910 178.566 205.344  0.00  0.00    +0.062 HD
ATOM     60  H   UNL     1     139.560 180.740 204.406  0.00  0.00    +0.062 HD
ATOM     61  H   UNL     1     139.909 181.003 201.963  0.00  0.00    +0.062 HD
ATOM     62  H   UNL     1     139.612 179.055 200.458  0.00  0.00    +0.062 HD
ATOM     63  H   UNL     1     138.974 176.863 201.375  0.00  0.00    +0.062 HD
ENDBRANCH  50  53
ENDBRANCH  21  50
BRANCH  15  64
ATOM     64  O   UNL     1     136.414 172.379 197.697  0.00  0.00    -0.377 OA
ATOM     65  H   UNL     1     136.768 172.139 196.815  0.00  0.00    +0.211 HD
ENDBRANCH  15  64
BRANCH   6  66
ATOM     66  O   UNL     1     131.971 176.004 203.022  0.00  0.00    -0.387 OA
ATOM     67  H   UNL     1     131.631 176.134 203.925  0.00  0.00    +0.210 HD
ENDBRANCH   6  66
BRANCH  12  68
ATOM     68  O   UNL     1     135.675 176.878 199.801  0.00  0.00    -0.456 OA
BRANCH  68  69
ATOM     69  C   UNL     1     136.448 177.938 199.461  0.00  0.00    +0.305 C 
ATOM     70  O   UNL     1     137.433 177.914 198.740  0.00  0.00    -0.251 OA
BRANCH  69  71
ATOM     71  C   UNL     1     135.945 179.170 200.151  0.00  0.00    +0.033 C 
ATOM     72  H   UNL     1     136.713 179.946 200.120  0.00  0.00    +0.034 HD
ATOM     73  H   UNL     1     135.048 179.531 199.640  0.00  0.00    +0.034 HD
ATOM     74  H   UNL     1     135.676 178.936 201.185  0.00  0.00    +0.034 HD
ENDBRANCH  69  71
ENDBRANCH  68  69
ENDBRANCH  12  68
TORSDOF 10
ENDMDL
MODEL 6
REMARK VINA RESULT:      -5.4      4.450      9.084
REMARK  Name = Cytochalasin D_conf1
REMARK  10 active torsions:
REMARK  status: ('A' for Active; 'I' for Inactive)
REMARK    1  A    between atoms: C_1  and  C_2
REMARK    2  A    between atoms: C_7  and  O_37
REMARK    3  A    between atoms: C_10  and  C_36
REMARK    4  A    between atoms: C_13  and  O_21
REMARK    5  A    between atoms: C_16  and  C_19
REMARK    6  A    between atoms: C_16  and  O_20
REMARK    7  A    between atoms: O_21  and  C_22
REMARK    8  A    between atoms: C_22  and  C_24
REMARK    9  A    between atoms: C_28  and  C_29
REMARK   10  A    between atoms: C_29  and  C_30
REMARK                            x       y       z     vdW  Elec       q    Type
REMARK                         _______ _______ _______ _____ _____    ______ ____
ROOT
ATOM      1  C   UNL     1     150.301 174.464 178.186  0.00  0.00    +0.021 C 
ATOM      2  C   UNL     1     151.341 174.861 177.124  0.00  0.00    -0.025 C 
ATOM      3  C   UNL     1     152.701 174.275 177.401  0.00  0.00    -0.087 C 
ATOM      4  C   UNL     1     153.759 174.994 177.813  0.00  0.00    -0.081 C 
ATOM      5  C   UNL     1     155.140 174.406 178.105  0.00  0.00    +0.025 C 
ATOM      6  C   UNL     1     156.164 174.982 177.085  0.00  0.00    +0.084 C 
ATOM      7  C   UNL     1     157.589 174.529 177.334  0.00  0.00    -0.045 C 
ATOM      8  C   UNL     1     158.601 175.053 176.617  0.00  0.00    -0.097 C 
ATOM      9  C   UNL     1     157.746 173.493 178.430  0.00  0.00    -0.015 C 
ATOM     10  C   UNL     1     157.148 174.042 179.750  0.00  0.00    +0.002 C 
ATOM     11  C   UNL     1     155.648 174.550 179.591  0.00  0.00    +0.101 C 
ATOM     12  C   UNL     1     154.747 173.780 180.621  0.00  0.00    +0.136 C 
ATOM     13  C   UNL     1     153.395 174.402 180.907  0.00  0.00    -0.044 C 
ATOM     14  C   UNL     1     152.186 173.889 180.608  0.00  0.00    -0.046 C 
ATOM     15  C   UNL     1     150.861 174.585 180.781  0.00  0.00    +0.139 C 
ATOM     16  C   UNL     1     150.489 175.301 179.453  0.00  0.00    +0.171 C 
ATOM     17  O   UNL     1     150.355 176.531 179.430  0.00  0.00    -0.294 OA
ATOM     18  C   UNL     1     155.764 176.027 179.956  0.00  0.00    +0.224 C 
ATOM     19  O   UNL     1     154.886 176.874 179.912  0.00  0.00    -0.275 OA
ATOM     20  N   UNL     1     157.042 176.335 180.323  0.00  0.00    -0.311 N 
ATOM     21  C   UNL     1     157.952 175.234 180.325  0.00  0.00    +0.032 C 
ATOM     22  H   UNL     1     150.402 173.401 178.425  0.00  0.00    +0.038 HD
ATOM     23  H   UNL     1     151.406 175.954 177.039  0.00  0.00    +0.031 HD
ATOM     24  H   UNL     1     151.025 174.494 176.140  0.00  0.00    +0.031 HD
ATOM     25  H   UNL     1     152.805 173.201 177.253  0.00  0.00    +0.057 HD
ATOM     26  H   UNL     1     153.641 176.069 177.955  0.00  0.00    +0.057 HD
ATOM     27  H   UNL     1     155.060 173.332 177.884  0.00  0.00    +0.038 HD
ATOM     28  H   UNL     1     156.128 176.079 177.086  0.00  0.00    +0.065 HD
ATOM     29  H   UNL     1     158.405 175.787 175.840  0.00  0.00    +0.054 HD
ATOM     30  H   UNL     1     159.636 174.762 176.753  0.00  0.00    +0.054 HD
ATOM     31  H   UNL     1     157.151 172.618 178.130  0.00  0.00    +0.035 HD
ATOM     32  H   UNL     1     157.191 173.214 180.463  0.00  0.00    +0.034 HD
ATOM     33  H   UNL     1     155.252 173.726 181.590  0.00  0.00    +0.079 HD
ATOM     34  H   UNL     1     153.435 175.379 181.387  0.00  0.00    +0.061 HD
ATOM     35  H   UNL     1     152.138 172.915 180.126  0.00  0.00    +0.060 HD
ATOM     36  H   UNL     1     157.284 177.291 180.553  0.00  0.00    +0.149 HD
ATOM     37  H   UNL     1     158.757 175.530 179.645  0.00  0.00    +0.050 HD
ENDROOT
BRANCH   1  38
ATOM     38  C   UNL     1     148.881 174.694 177.668  0.00  0.00    -0.055 C 
ATOM     39  H   UNL     1     148.879 175.291 176.749  0.00  0.00    +0.024 HD
ATOM     40  H   UNL     1     148.277 175.227 178.410  0.00  0.00    +0.024 HD
ATOM     41  H   UNL     1     148.387 173.741 177.453  0.00  0.00    +0.024 HD
ENDBRANCH   1  38
BRANCH  15  42
ATOM     42  C   UNL     1     149.759 173.624 181.213  0.00  0.00    -0.025 C 
ATOM     43  H   UNL     1     148.981 174.114 181.807  0.00  0.00    +0.026 HD
ATOM     44  H   UNL     1     149.280 173.158 180.343  0.00  0.00    +0.026 HD
ATOM     45  H   UNL     1     150.173 172.807 181.816  0.00  0.00    +0.026 HD
ENDBRANCH  15  42
BRANCH   9  46
ATOM     46  C   UNL     1     159.163 172.939 178.642  0.00  0.00    -0.058 C 
ATOM     47  H   UNL     1     159.145 171.844 178.668  0.00  0.00    +0.024 HD
ATOM     48  H   UNL     1     159.822 173.234 177.817  0.00  0.00    +0.024 HD
ATOM     49  H   UNL     1     159.618 173.286 179.575  0.00  0.00    +0.024 HD
ENDBRANCH   9  46
BRANCH  21  50
ATOM     50  C   UNL     1     158.612 174.996 181.701  0.00  0.00    -0.009 C 
ATOM     51  H   UNL     1     159.658 174.705 181.544  0.00  0.00    +0.033 HD
ATOM     52  H   UNL     1     158.655 175.953 182.239  0.00  0.00    +0.033 HD
BRANCH  50  53
ATOM     53  C   UNL     1     157.944 173.999 182.617  0.00  0.00    -0.046 A 
ATOM     54  C   UNL     1     158.476 172.713 182.774  0.00  0.00    -0.059 A 
ATOM     55  C   UNL     1     157.854 171.782 183.607  0.00  0.00    -0.062 A 
ATOM     56  C   UNL     1     156.698 172.127 184.303  0.00  0.00    -0.062 A 
ATOM     57  C   UNL     1     156.169 173.408 184.170  0.00  0.00    -0.062 A 
ATOM     58  C   UNL     1     156.791 174.339 183.337  0.00  0.00    -0.059 A 
ATOM     59  H   UNL     1     159.368 172.409 182.229  0.00  0.00    +0.062 HD
ATOM     60  H   UNL     1     158.266 170.781 183.699  0.00  0.00    +0.062 HD
ATOM     61  H   UNL     1     156.210 171.399 184.944  0.00  0.00    +0.062 HD
ATOM     62  H   UNL     1     155.267 173.680 184.712  0.00  0.00    +0.062 HD
ATOM     63  H   UNL     1     156.360 175.334 183.256  0.00  0.00    +0.062 HD
ENDBRANCH  50  53
ENDBRANCH  21  50
BRANCH  15  64
ATOM     64  O   UNL     1     150.974 175.563 181.819  0.00  0.00    -0.377 OA
ATOM     65  H   UNL     1     150.346 175.281 182.517  0.00  0.00    +0.211 HD
ENDBRANCH  15  64
BRANCH   6  66
ATOM     66  O   UNL     1     155.828 174.533 175.768  0.00  0.00    -0.387 OA
ATOM     67  H   UNL     1     154.867 174.651 175.671  0.00  0.00    +0.210 HD
ENDBRANCH   6  66
BRANCH  12  68
ATOM     68  O   UNL     1     154.512 172.442 180.100  0.00  0.00    -0.456 OA
BRANCH  68  69
ATOM     69  C   UNL     1     154.861 171.367 180.847  0.00  0.00    +0.305 C 
ATOM     70  O   UNL     1     154.295 170.971 181.854  0.00  0.00    -0.251 OA
BRANCH  69  71
ATOM     71  C   UNL     1     156.100 170.742 180.282  0.00  0.00    +0.033 C 
ATOM     72  H   UNL     1     155.876 169.730 179.938  0.00  0.00    +0.034 HD
ATOM     73  H   UNL     1     156.455 171.339 179.437  0.00  0.00    +0.034 HD
ATOM     74  H   UNL     1     156.889 170.725 181.040  0.00  0.00    +0.034 HD
ENDBRANCH  69  71
ENDBRANCH  68  69
ENDBRANCH  12  68
TORSDOF 10
ENDMDL
MODEL 7
REMARK VINA RESULT:      -5.4      3.031      7.756
REMARK  Name = Cytochalasin D_conf1
REMARK  10 active torsions:
REMARK  status: ('A' for Active; 'I' for Inactive)
REMARK    1  A    between atoms: C_1  and  C_2
REMARK    2  A    between atoms: C_7  and  O_37
REMARK    3  A    between atoms: C_10  and  C_36
REMARK    4  A    between atoms: C_13  and  O_21
REMARK    5  A    between atoms: C_16  and  C_19
REMARK    6  A    between atoms: C_16  and  O_20
REMARK    7  A    between atoms: O_21  and  C_22
REMARK    8  A    between atoms: C_22  and  C_24
REMARK    9  A    between atoms: C_28  and  C_29
REMARK   10  A    between atoms: C_29  and  C_30
REMARK                            x       y       z     vdW  Elec       q    Type
REMARK                         _______ _______ _______ _____ _____    ______ ____
ROOT
ATOM      1  C   UNL     1     153.347 175.511 179.082  0.00  0.00    +0.021 C 
ATOM      2  C   UNL     1     154.610 176.112 179.724  0.00  0.00    -0.025 C 
ATOM      3  C   UNL     1     155.645 175.067 180.049  0.00  0.00    -0.087 C 
ATOM      4  C   UNL     1     155.949 174.674 181.298  0.00  0.00    -0.081 C 
ATOM      5  C   UNL     1     156.991 173.607 181.636  0.00  0.00    +0.025 C 
ATOM      6  C   UNL     1     158.158 174.269 182.424  0.00  0.00    +0.084 C 
ATOM      7  C   UNL     1     159.214 173.285 182.885  0.00  0.00    -0.045 C 
ATOM      8  C   UNL     1     160.211 173.691 183.693  0.00  0.00    -0.097 C 
ATOM      9  C   UNL     1     159.026 171.867 182.383  0.00  0.00    -0.015 C 
ATOM     10  C   UNL     1     157.628 171.349 182.805  0.00  0.00    +0.002 C 
ATOM     11  C   UNL     1     156.445 172.321 182.368  0.00  0.00    +0.101 C 
ATOM     12  C   UNL     1     155.427 171.507 181.492  0.00  0.00    +0.136 C 
ATOM     13  C   UNL     1     154.055 172.131 181.329  0.00  0.00    -0.044 C 
ATOM     14  C   UNL     1     153.505 172.596 180.191  0.00  0.00    -0.046 C 
ATOM     15  C   UNL     1     152.196 173.333 180.077  0.00  0.00    +0.139 C 
ATOM     16  C   UNL     1     152.466 174.861 180.151  0.00  0.00    +0.171 C 
ATOM     17  O   UNL     1     151.977 175.532 181.068  0.00  0.00    -0.294 OA
ATOM     18  C   UNL     1     155.831 172.712 183.709  0.00  0.00    +0.224 C 
ATOM     19  O   UNL     1     154.930 173.510 183.909  0.00  0.00    -0.275 OA
ATOM     20  N   UNL     1     156.460 172.065 184.733  0.00  0.00    -0.311 N 
ATOM     21  C   UNL     1     157.492 171.162 184.337  0.00  0.00    +0.032 C 
ATOM     22  H   UNL     1     153.631 174.767 178.331  0.00  0.00    +0.038 HD
ATOM     23  H   UNL     1     154.349 176.685 180.623  0.00  0.00    +0.031 HD
ATOM     24  H   UNL     1     155.076 176.823 179.031  0.00  0.00    +0.031 HD
ATOM     25  H   UNL     1     156.162 174.617 179.202  0.00  0.00    +0.057 HD
ATOM     26  H   UNL     1     155.425 175.135 182.136  0.00  0.00    +0.057 HD
ATOM     27  H   UNL     1     157.415 173.287 180.673  0.00  0.00    +0.038 HD
ATOM     28  H   UNL     1     157.771 174.818 183.292  0.00  0.00    +0.065 HD
ATOM     29  H   UNL     1     160.283 174.730 184.003  0.00  0.00    +0.054 HD
ATOM     30  H   UNL     1     160.992 173.029 184.049  0.00  0.00    +0.054 HD
ATOM     31  H   UNL     1     159.050 171.911 181.284  0.00  0.00    +0.035 HD
ATOM     32  H   UNL     1     157.512 170.375 182.322  0.00  0.00    +0.034 HD
ATOM     33  H   UNL     1     155.248 170.527 181.944  0.00  0.00    +0.079 HD
ATOM     34  H   UNL     1     153.481 172.219 182.251  0.00  0.00    +0.061 HD
ATOM     35  H   UNL     1     154.073 172.515 179.267  0.00  0.00    +0.060 HD
ATOM     36  H   UNL     1     156.189 172.256 185.691  0.00  0.00    +0.149 HD
ATOM     37  H   UNL     1     158.390 171.511 184.857  0.00  0.00    +0.050 HD
ENDROOT
BRANCH   1  38
ATOM     38  C   UNL     1     152.526 176.594 178.381  0.00  0.00    -0.055 C 
ATOM     39  H   UNL     1     151.456 176.359 178.393  0.00  0.00    +0.024 HD
ATOM     40  H   UNL     1     152.831 176.697 177.334  0.00  0.00    +0.024 HD
ATOM     41  H   UNL     1     152.665 177.564 178.870  0.00  0.00    +0.024 HD
ENDBRANCH   1  38
BRANCH  15  42
ATOM     42  C   UNL     1     151.443 172.970 178.801  0.00  0.00    -0.025 C 
ATOM     43  H   UNL     1     151.588 173.706 178.003  0.00  0.00    +0.026 HD
ATOM     44  H   UNL     1     151.758 171.990 178.423  0.00  0.00    +0.026 HD
ATOM     45  H   UNL     1     150.366 172.898 178.995  0.00  0.00    +0.026 HD
ENDBRANCH  15  42
BRANCH   9  46
ATOM     46  C   UNL     1     160.131 170.864 182.751  0.00  0.00    -0.058 C 
ATOM     47  H   UNL     1     160.839 170.755 181.922  0.00  0.00    +0.024 HD
ATOM     48  H   UNL     1     160.700 171.216 183.619  0.00  0.00    +0.024 HD
ATOM     49  H   UNL     1     159.740 169.870 182.986  0.00  0.00    +0.024 HD
ENDBRANCH   9  46
BRANCH  21  50
ATOM     50  C   UNL     1     157.249 169.715 184.816  0.00  0.00    -0.009 C 
ATOM     51  H   UNL     1     158.100 169.401 185.434  0.00  0.00    +0.033 HD
ATOM     52  H   UNL     1     156.383 169.710 185.492  0.00  0.00    +0.033 HD
BRANCH  50  53
ATOM     53  C   UNL     1     156.991 168.675 183.752  0.00  0.00    -0.046 A 
ATOM     54  C   UNL     1     158.045 167.915 183.231  0.00  0.00    -0.059 A 
ATOM     55  C   UNL     1     157.813 166.964 182.236  0.00  0.00    -0.062 A 
ATOM     56  C   UNL     1     156.523 166.753 181.756  0.00  0.00    -0.062 A 
ATOM     57  C   UNL     1     155.463 167.490 182.277  0.00  0.00    -0.062 A 
ATOM     58  C   UNL     1     155.694 168.440 183.272  0.00  0.00    -0.059 A 
ATOM     59  H   UNL     1     159.066 168.071 183.575  0.00  0.00    +0.062 HD
ATOM     60  H   UNL     1     158.646 166.400 181.826  0.00  0.00    +0.062 HD
ATOM     61  H   UNL     1     156.346 166.019 180.975  0.00  0.00    +0.062 HD
ATOM     62  H   UNL     1     154.455 167.326 181.904  0.00  0.00    +0.062 HD
ATOM     63  H   UNL     1     154.848 168.997 183.667  0.00  0.00    +0.062 HD
ENDBRANCH  50  53
ENDBRANCH  21  50
BRANCH  15  64
ATOM     64  O   UNL     1     151.347 172.959 181.167  0.00  0.00    -0.377 OA
ATOM     65  H   UNL     1     151.639 173.503 181.927  0.00  0.00    +0.211 HD
ENDBRANCH  15  64
BRANCH   6  66
ATOM     66  O   UNL     1     158.832 175.207 181.577  0.00  0.00    -0.387 OA
ATOM     67  H   UNL     1     158.426 176.075 181.744  0.00  0.00    +0.210 HD
ENDBRANCH   6  66
BRANCH  12  68
ATOM     68  O   UNL     1     155.999 171.354 180.164  0.00  0.00    -0.456 OA
BRANCH  68  69
ATOM     69  C   UNL     1     156.130 170.113 179.636  0.00  0.00    +0.305 C 
ATOM     70  O   UNL     1     155.223 169.387 179.259  0.00  0.00    -0.251 OA
BRANCH  69  71
ATOM     71  C   UNL     1     157.576 169.721 179.623  0.00  0.00    +0.033 C 
ATOM     72  H   UNL     1     157.671 168.662 179.876  0.00  0.00    +0.034 HD
ATOM     73  H   UNL     1     157.989 169.890 178.624  0.00  0.00    +0.034 HD
ATOM     74  H   UNL     1     158.137 170.337 180.332  0.00  0.00    +0.034 HD
ENDBRANCH  69  71
ENDBRANCH  68  69
ENDBRANCH  12  68
TORSDOF 10
ENDMDL
MODEL 8
REMARK VINA RESULT:      -5.4      2.300      3.294
REMARK  Name = Cytochalasin D_conf1
REMARK  10 active torsions:
REMARK  status: ('A' for Active; 'I' for Inactive)
REMARK    1  A    between atoms: C_1  and  C_2
REMARK    2  A    between atoms: C_7  and  O_37
REMARK    3  A    between atoms: C_10  and  C_36
REMARK    4  A    between atoms: C_13  and  O_21
REMARK    5  A    between atoms: C_16  and  C_19
REMARK    6  A    between atoms: C_16  and  O_20
REMARK    7  A    between atoms: O_21  and  C_22
REMARK    8  A    between atoms: C_22  and  C_24
REMARK    9  A    between atoms: C_28  and  C_29
REMARK   10  A    between atoms: C_29  and  C_30
REMARK                            x       y       z     vdW  Elec       q    Type
REMARK                         _______ _______ _______ _____ _____    ______ ____
ROOT
ATOM      1  C   UNL     1     162.022 170.490 177.510  0.00  0.00    +0.021 C 
ATOM      2  C   UNL     1     162.363 169.832 178.859  0.00  0.00    -0.025 C 
ATOM      3  C   UNL     1     161.167 169.733 179.771  0.00  0.00    -0.087 C 
ATOM      4  C   UNL     1     161.004 170.476 180.878  0.00  0.00    -0.081 C 
ATOM      5  C   UNL     1     159.789 170.389 181.804  0.00  0.00    +0.025 C 
ATOM      6  C   UNL     1     160.248 169.866 183.195  0.00  0.00    +0.084 C 
ATOM      7  C   UNL     1     159.135 169.818 184.222  0.00  0.00    -0.045 C 
ATOM      8  C   UNL     1     159.410 169.517 185.505  0.00  0.00    -0.097 C 
ATOM      9  C   UNL     1     157.756 170.146 183.684  0.00  0.00    -0.015 C 
ATOM     10  C   UNL     1     157.779 171.548 183.022  0.00  0.00    +0.002 C 
ATOM     11  C   UNL     1     158.923 171.701 181.926  0.00  0.00    +0.101 C 
ATOM     12  C   UNL     1     158.260 172.123 180.567  0.00  0.00    +0.136 C 
ATOM     13  C   UNL     1     159.199 172.709 179.531  0.00  0.00    -0.044 C 
ATOM     14  C   UNL     1     159.527 172.175 178.339  0.00  0.00    -0.046 C 
ATOM     15  C   UNL     1     160.564 172.708 177.385  0.00  0.00    +0.139 C 
ATOM     16  C   UNL     1     161.922 172.008 177.670  0.00  0.00    +0.171 C 
ATOM     17  O   UNL     1     162.899 172.677 178.027  0.00  0.00    -0.294 OA
ATOM     18  C   UNL     1     159.775 172.830 182.499  0.00  0.00    +0.224 C 
ATOM     19  O   UNL     1     160.824 173.268 182.055  0.00  0.00    -0.275 OA
ATOM     20  N   UNL     1     159.230 173.305 183.656  0.00  0.00    -0.311 N 
ATOM     21  C   UNL     1     158.000 172.691 184.043  0.00  0.00    +0.032 C 
ATOM     22  H   UNL     1     161.074 170.093 177.132  0.00  0.00    +0.038 HD
ATOM     23  H   UNL     1     163.178 170.373 179.356  0.00  0.00    +0.031 HD
ATOM     24  H   UNL     1     162.727 168.811 178.692  0.00  0.00    +0.031 HD
ATOM     25  H   UNL     1     160.404 169.009 179.490  0.00  0.00    +0.057 HD
ATOM     26  H   UNL     1     161.778 171.196 181.147  0.00  0.00    +0.057 HD
ATOM     27  H   UNL     1     159.147 169.604 181.379  0.00  0.00    +0.038 HD
ATOM     28  H   UNL     1     161.071 170.481 183.583  0.00  0.00    +0.065 HD
ATOM     29  H   UNL     1     160.426 169.284 185.813  0.00  0.00    +0.054 HD
ATOM     30  H   UNL     1     158.651 169.467 186.278  0.00  0.00    +0.054 HD
ATOM     31  H   UNL     1     157.536 169.409 182.899  0.00  0.00    +0.035 HD
ATOM     32  H   UNL     1     156.796 171.675 182.561  0.00  0.00    +0.034 HD
ATOM     33  H   UNL     1     157.506 172.896 180.745  0.00  0.00    +0.079 HD
ATOM     34  H   UNL     1     159.661 173.654 179.816  0.00  0.00    +0.061 HD
ATOM     35  H   UNL     1     159.072 171.230 178.049  0.00  0.00    +0.060 HD
ATOM     36  H   UNL     1     159.707 174.032 184.177  0.00  0.00    +0.149 HD
ATOM     37  H   UNL     1     158.184 172.293 185.046  0.00  0.00    +0.050 HD
ENDROOT
BRANCH   1  38
ATOM     38  C   UNL     1     163.103 170.190 176.471  0.00  0.00    -0.055 C 
ATOM     39  H   UNL     1     163.878 170.965 176.460  0.00  0.00    +0.024 HD
ATOM     40  H   UNL     1     162.673 170.137 175.466  0.00  0.00    +0.024 HD
ATOM     41  H   UNL     1     163.588 169.230 176.681  0.00  0.00    +0.024 HD
ENDBRANCH   1  38
BRANCH  15  42
ATOM     42  C   UNL     1     160.150 172.528 175.928  0.00  0.00    -0.025 C 
ATOM     43  H   UNL     1     159.844 171.501 175.700  0.00  0.00    +0.026 HD
ATOM     44  H   UNL     1     159.319 173.196 175.670  0.00  0.00    +0.026 HD
ATOM     45  H   UNL     1     160.978 172.785 175.257  0.00  0.00    +0.026 HD
ENDBRANCH  15  42
BRANCH   9  46
ATOM     46  C   UNL     1     156.590 170.012 184.675  0.00  0.00    -0.058 C 
ATOM     47  H   UNL     1     156.567 169.004 185.103  0.00  0.00    +0.024 HD
ATOM     48  H   UNL     1     156.707 170.716 185.508  0.00  0.00    +0.024 HD
ATOM     49  H   UNL     1     155.616 170.198 184.213  0.00  0.00    +0.024 HD
ENDBRANCH   9  46
BRANCH  21  50
ATOM     50  C   UNL     1     156.837 173.698 184.183  0.00  0.00    -0.009 C 
ATOM     51  H   UNL     1     156.283 173.470 185.103  0.00  0.00    +0.033 HD
ATOM     52  H   UNL     1     157.259 174.700 184.340  0.00  0.00    +0.033 HD
BRANCH  50  53
ATOM     53  C   UNL     1     155.872 173.795 183.026  0.00  0.00    -0.046 A 
ATOM     54  C   UNL     1     154.668 173.080 183.045  0.00  0.00    -0.059 A 
ATOM     55  C   UNL     1     153.780 173.154 181.970  0.00  0.00    -0.062 A 
ATOM     56  C   UNL     1     154.079 173.951 180.868  0.00  0.00    -0.062 A 
ATOM     57  C   UNL     1     155.264 174.680 180.844  0.00  0.00    -0.062 A 
ATOM     58  C   UNL     1     156.152 174.607 181.918  0.00  0.00    -0.059 A 
ATOM     59  H   UNL     1     154.416 172.436 183.885  0.00  0.00    +0.062 HD
ATOM     60  H   UNL     1     152.861 172.575 181.991  0.00  0.00    +0.062 HD
ATOM     61  H   UNL     1     153.390 174.000 180.030  0.00  0.00    +0.062 HD
ATOM     62  H   UNL     1     155.500 175.303 179.986  0.00  0.00    +0.062 HD
ATOM     63  H   UNL     1     157.068 175.191 181.877  0.00  0.00    +0.062 HD
ENDBRANCH  50  53
ENDBRANCH  21  50
BRANCH  15  64
ATOM     64  O   UNL     1     160.715 174.116 177.591  0.00  0.00    -0.377 OA
ATOM     65  H   UNL     1     159.829 174.441 177.852  0.00  0.00    +0.211 HD
ENDBRANCH  15  64
BRANCH   6  66
ATOM     66  O   UNL     1     160.727 168.523 183.065  0.00  0.00    -0.387 OA
ATOM     67  H   UNL     1     160.849 168.182 183.968  0.00  0.00    +0.210 HD
ENDBRANCH   6  66
BRANCH  12  68
ATOM     68  O   UNL     1     157.644 170.943 179.982  0.00  0.00    -0.456 OA
BRANCH  68  69
ATOM     69  C   UNL     1     156.331 170.975 179.649  0.00  0.00    +0.305 C 
ATOM     70  O   UNL     1     155.826 171.640 178.759  0.00  0.00    -0.251 OA
BRANCH  69  71
ATOM     71  C   UNL     1     155.553 170.095 180.580  0.00  0.00    +0.033 C 
ATOM     72  H   UNL     1     154.996 170.713 181.288  0.00  0.00    +0.034 HD
ATOM     73  H   UNL     1     154.851 169.487 180.003  0.00  0.00    +0.034 HD
ATOM     74  H   UNL     1     156.232 169.420 181.110  0.00  0.00    +0.034 HD
ENDBRANCH  69  71
ENDBRANCH  68  69
ENDBRANCH  12  68
TORSDOF 10
ENDMDL
MODEL 9
REMARK VINA RESULT:      -5.4      3.525      7.715
REMARK  Name = Cytochalasin D_conf1
REMARK  10 active torsions:
REMARK  status: ('A' for Active; 'I' for Inactive)
REMARK    1  A    between atoms: C_1  and  C_2
REMARK    2  A    between atoms: C_7  and  O_37
REMARK    3  A    between atoms: C_10  and  C_36
REMARK    4  A    between atoms: C_13  and  O_21
REMARK    5  A    between atoms: C_16  and  C_19
REMARK    6  A    between atoms: C_16  and  O_20
REMARK    7  A    between atoms: O_21  and  C_22
REMARK    8  A    between atoms: C_22  and  C_24
REMARK    9  A    between atoms: C_28  and  C_29
REMARK   10  A    between atoms: C_29  and  C_30
REMARK                            x       y       z     vdW  Elec       q    Type
REMARK                         _______ _______ _______ _____ _____    ______ ____
ROOT
ATOM      1  C   UNL     1     153.001 177.367 179.423  0.00  0.00    +0.021 C 
ATOM      2  C   UNL     1     152.218 176.061 179.206  0.00  0.00    -0.025 C 
ATOM      3  C   UNL     1     152.764 174.918 180.021  0.00  0.00    -0.087 C 
ATOM      4  C   UNL     1     153.434 173.876 179.499  0.00  0.00    -0.081 C 
ATOM      5  C   UNL     1     154.001 172.717 180.319  0.00  0.00    +0.025 C 
ATOM      6  C   UNL     1     153.262 171.406 179.923  0.00  0.00    +0.084 C 
ATOM      7  C   UNL     1     153.802 170.172 180.618  0.00  0.00    -0.045 C 
ATOM      8  C   UNL     1     153.354 168.950 180.273  0.00  0.00    -0.097 C 
ATOM      9  C   UNL     1     154.857 170.444 181.672  0.00  0.00    -0.015 C 
ATOM     10  C   UNL     1     156.034 171.227 181.035  0.00  0.00    +0.002 C 
ATOM     11  C   UNL     1     155.568 172.545 180.274  0.00  0.00    +0.101 C 
ATOM     12  C   UNL     1     156.334 173.772 180.882  0.00  0.00    +0.136 C 
ATOM     13  C   UNL     1     156.338 175.030 180.037  0.00  0.00    -0.044 C 
ATOM     14  C   UNL     1     155.755 176.207 180.331  0.00  0.00    -0.046 C 
ATOM     15  C   UNL     1     155.658 177.400 179.416  0.00  0.00    +0.139 C 
ATOM     16  C   UNL     1     154.314 177.335 178.639  0.00  0.00    +0.171 C 
ATOM     17  O   UNL     1     154.317 177.252 177.404  0.00  0.00    -0.294 OA
ATOM     18  C   UNL     1     156.015 172.269 178.842  0.00  0.00    +0.224 C 
ATOM     19  O   UNL     1     155.814 172.959 177.855  0.00  0.00    -0.275 OA
ATOM     20  N   UNL     1     156.671 171.075 178.762  0.00  0.00    -0.311 N 
ATOM     21  C   UNL     1     156.828 170.387 180.004  0.00  0.00    +0.032 C 
ATOM     22  H   UNL     1     153.209 177.503 180.490  0.00  0.00    +0.038 HD
ATOM     23  H   UNL     1     152.198 175.796 178.141  0.00  0.00    +0.031 HD
ATOM     24  H   UNL     1     151.172 176.201 179.507  0.00  0.00    +0.031 HD
ATOM     25  H   UNL     1     152.595 174.965 181.096  0.00  0.00    +0.057 HD
ATOM     26  H   UNL     1     153.595 173.842 178.420  0.00  0.00    +0.057 HD
ATOM     27  H   UNL     1     153.719 172.923 181.362  0.00  0.00    +0.038 HD
ATOM     28  H   UNL     1     153.304 171.256 178.836  0.00  0.00    +0.065 HD
ATOM     29  H   UNL     1     152.586 168.838 179.512  0.00  0.00    +0.054 HD
ATOM     30  H   UNL     1     153.705 168.037 180.741  0.00  0.00    +0.054 HD
ATOM     31  H   UNL     1     154.394 171.093 182.428  0.00  0.00    +0.035 HD
ATOM     32  H   UNL     1     156.701 171.486 181.862  0.00  0.00    +0.034 HD
ATOM     33  H   UNL     1     157.388 173.517 181.029  0.00  0.00    +0.079 HD
ATOM     34  H   UNL     1     156.859 174.937 179.084  0.00  0.00    +0.061 HD
ATOM     35  H   UNL     1     155.231 176.306 181.279  0.00  0.00    +0.060 HD
ATOM     36  H   UNL     1     156.993 170.735 177.864  0.00  0.00    +0.149 HD
ATOM     37  H   UNL     1     156.359 169.410 179.848  0.00  0.00    +0.050 HD
ENDROOT
BRANCH   1  38
ATOM     38  C   UNL     1     152.190 178.573 178.947  0.00  0.00    -0.055 C 
ATOM     39  H   UNL     1     152.737 179.510 179.098  0.00  0.00    +0.024 HD
ATOM     40  H   UNL     1     151.246 178.648 179.497  0.00  0.00    +0.024 HD
ATOM     41  H   UNL     1     151.954 178.486 177.881  0.00  0.00    +0.024 HD
ENDBRANCH   1  38
BRANCH  15  42
ATOM     42  C   UNL     1     155.789 178.718 180.174  0.00  0.00    -0.025 C 
ATOM     43  H   UNL     1     155.813 178.578 181.260  0.00  0.00    +0.026 HD
ATOM     44  H   UNL     1     156.701 179.252 179.880  0.00  0.00    +0.026 HD
ATOM     45  H   UNL     1     154.949 179.382 179.942  0.00  0.00    +0.026 HD
ENDBRANCH  15  42
BRANCH   9  46
ATOM     46  C   UNL     1     155.356 169.226 182.464  0.00  0.00    -0.058 C 
ATOM     47  H   UNL     1     154.600 168.907 183.189  0.00  0.00    +0.024 HD
ATOM     48  H   UNL     1     155.542 168.378 181.794  0.00  0.00    +0.024 HD
ATOM     49  H   UNL     1     156.280 169.427 183.015  0.00  0.00    +0.024 HD
ENDBRANCH   9  46
BRANCH  21  50
ATOM     50  C   UNL     1     158.304 170.107 180.361  0.00  0.00    -0.009 C 
ATOM     51  H   UNL     1     158.405 169.050 180.639  0.00  0.00    +0.033 HD
ATOM     52  H   UNL     1     158.912 170.227 179.454  0.00  0.00    +0.033 HD
BRANCH  50  53
ATOM     53  C   UNL     1     158.924 170.970 181.432  0.00  0.00    -0.046 A 
ATOM     54  C   UNL     1     159.594 172.152 181.093  0.00  0.00    -0.059 A 
ATOM     55  C   UNL     1     160.184 172.945 182.079  0.00  0.00    -0.062 A 
ATOM     56  C   UNL     1     160.102 172.573 183.418  0.00  0.00    -0.062 A 
ATOM     57  C   UNL     1     159.424 171.410 183.771  0.00  0.00    -0.062 A 
ATOM     58  C   UNL     1     158.834 170.617 182.786  0.00  0.00    -0.059 A 
ATOM     59  H   UNL     1     159.689 172.459 180.052  0.00  0.00    +0.062 HD
ATOM     60  H   UNL     1     160.720 173.847 181.795  0.00  0.00    +0.062 HD
ATOM     61  H   UNL     1     160.569 173.187 184.183  0.00  0.00    +0.062 HD
ATOM     62  H   UNL     1     159.359 171.117 184.816  0.00  0.00    +0.062 HD
ATOM     63  H   UNL     1     158.306 169.717 183.090  0.00  0.00    +0.062 HD
ENDBRANCH  50  53
ENDBRANCH  21  50
BRANCH  15  64
ATOM     64  O   UNL     1     156.738 177.365 178.478  0.00  0.00    -0.377 OA
ATOM     65  H   UNL     1     156.369 177.706 177.637  0.00  0.00    +0.211 HD
ENDBRANCH  15  64
BRANCH   6  66
ATOM     66  O   UNL     1     151.885 171.504 180.300  0.00  0.00    -0.387 OA
ATOM     67  H   UNL     1     151.395 171.762 179.500  0.00  0.00    +0.210 HD
ENDBRANCH   6  66
BRANCH  12  68
ATOM     68  O   UNL     1     155.714 174.102 182.156  0.00  0.00    -0.456 OA
BRANCH  68  69
ATOM     69  C   UNL     1     156.461 174.072 183.286  0.00  0.00    +0.305 C 
ATOM     70  O   UNL     1     157.501 174.681 183.483  0.00  0.00    -0.251 OA
BRANCH  69  71
ATOM     71  C   UNL     1     155.846 173.125 184.271  0.00  0.00    +0.033 C 
ATOM     72  H   UNL     1     155.229 173.683 184.980  0.00  0.00    +0.034 HD
ATOM     73  H   UNL     1     155.218 172.405 183.738  0.00  0.00    +0.034 HD
ATOM     74  H   UNL     1     156.629 172.570 184.795  0.00  0.00    +0.034 HD
ENDBRANCH  69  71
ENDBRANCH  68  69
ENDBRANCH  12  68
TORSDOF 10
ENDMDL
MODEL 10
REMARK VINA RESULT:      -5.4     33.584     37.158
REMARK  Name = Cytochalasin D_conf1
REMARK  10 active torsions:
REMARK  status: ('A' for Active; 'I' for Inactive)
REMARK    1  A    between atoms: C_1  and  C_2
REMARK    2  A    between atoms: C_7  and  O_37
REMARK    3  A    between atoms: C_10  and  C_36
REMARK    4  A    between atoms: C_13  and  O_21
REMARK    5  A    between atoms: C_16  and  C_19
REMARK    6  A    between atoms: C_16  and  O_20
REMARK    7  A    between atoms: O_21  and  C_22
REMARK    8  A    between atoms: C_22  and  C_24
REMARK    9  A    between atoms: C_28  and  C_29
REMARK   10  A    between atoms: C_29  and  C_30
REMARK                            x       y       z     vdW  Elec       q    Type
REMARK                         _______ _______ _______ _____ _____    ______ ____
ROOT
ATOM      1  C   UNL     1     139.428 177.389 215.621  0.00  0.00    +0.021 C 
ATOM      2  C   UNL     1     138.528 178.608 215.352  0.00  0.00    -0.025 C 
ATOM      3  C   UNL     1     138.883 179.316 214.070  0.00  0.00    -0.087 C 
ATOM      4  C   UNL     1     139.477 180.521 214.017  0.00  0.00    -0.081 C 
ATOM      5  C   UNL     1     139.850 181.242 212.721  0.00  0.00    +0.025 C 
ATOM      6  C   UNL     1     139.009 182.546 212.606  0.00  0.00    +0.084 C 
ATOM      7  C   UNL     1     139.357 183.386 211.394  0.00  0.00    -0.045 C 
ATOM      8  C   UNL     1     138.810 184.606 211.236  0.00  0.00    -0.097 C 
ATOM      9  C   UNL     1     140.349 182.750 210.440  0.00  0.00    -0.015 C 
ATOM     10  C   UNL     1     141.649 182.396 211.206  0.00  0.00    +0.002 C 
ATOM     11  C   UNL     1     141.388 181.514 212.504  0.00  0.00    +0.101 C 
ATOM     12  C   UNL     1     142.231 180.194 212.390  0.00  0.00    +0.136 C 
ATOM     13  C   UNL     1     142.436 179.431 213.684  0.00  0.00    -0.044 C 
ATOM     14  C   UNL     1     141.961 178.209 213.989  0.00  0.00    -0.046 C 
ATOM     15  C   UNL     1     142.065 177.528 215.329  0.00  0.00    +0.139 C 
ATOM     16  C   UNL     1     140.788 177.840 216.157  0.00  0.00    +0.171 C 
ATOM     17  O   UNL     1     140.879 178.451 217.229  0.00  0.00    -0.294 OA
ATOM     18  C   UNL     1     141.915 182.411 213.620  0.00  0.00    +0.224 C 
ATOM     19  O   UNL     1     141.868 182.207 214.822  0.00  0.00    -0.275 OA
ATOM     20  N   UNL     1     142.444 183.560 213.106  0.00  0.00    -0.311 N 
ATOM     21  C   UNL     1     142.427 183.649 211.681  0.00  0.00    +0.032 C 
ATOM     22  H   UNL     1     139.563 176.817 214.697  0.00  0.00    +0.038 HD
ATOM     23  H   UNL     1     138.565 179.307 216.197  0.00  0.00    +0.031 HD
ATOM     24  H   UNL     1     137.483 178.286 215.264  0.00  0.00    +0.031 HD
ATOM     25  H   UNL     1     138.635 178.797 213.146  0.00  0.00    +0.057 HD
ATOM     26  H   UNL     1     139.718 181.030 214.951  0.00  0.00    +0.057 HD
ATOM     27  H   UNL     1     139.510 180.586 211.906  0.00  0.00    +0.038 HD
ATOM     28  H   UNL     1     139.121 183.154 213.512  0.00  0.00    +0.065 HD
ATOM     29  H   UNL     1     138.097 184.990 211.962  0.00  0.00    +0.054 HD
ATOM     30  H   UNL     1     139.022 185.246 210.387  0.00  0.00    +0.054 HD
ATOM     31  H   UNL     1     139.899 181.809 210.092  0.00  0.00    +0.035 HD
ATOM     32  H   UNL     1     142.272 181.846 210.496  0.00  0.00    +0.034 HD
ATOM     33  H   UNL     1     143.237 180.426 212.027  0.00  0.00    +0.079 HD
ATOM     34  H   UNL     1     143.018 179.961 214.438  0.00  0.00    +0.061 HD
ATOM     35  H   UNL     1     141.377 177.676 213.242  0.00  0.00    +0.060 HD
ATOM     36  H   UNL     1     142.797 184.275 213.730  0.00  0.00    +0.149 HD
ATOM     37  H   UNL     1     141.870 184.565 211.460  0.00  0.00    +0.050 HD
ENDROOT
BRANCH   1  38
ATOM     38  C   UNL     1     138.790 176.462 216.656  0.00  0.00    -0.055 C 
ATOM     39  H   UNL     1     139.518 175.748 217.059  0.00  0.00    +0.024 HD
ATOM     40  H   UNL     1     137.973 175.885 216.210  0.00  0.00    +0.024 HD
ATOM     41  H   UNL     1     138.380 177.037 217.492  0.00  0.00    +0.024 HD
ENDBRANCH   1  38
BRANCH  15  42
ATOM     42  C   UNL     1     142.276 176.023 215.193  0.00  0.00    -0.025 C 
ATOM     43  H   UNL     1     142.740 175.747 214.240  0.00  0.00    +0.026 HD
ATOM     44  H   UNL     1     142.908 175.640 216.004  0.00  0.00    +0.026 HD
ATOM     45  H   UNL     1     141.320 175.491 215.264  0.00  0.00    +0.026 HD
ENDBRANCH  15  42
BRANCH   9  46
ATOM     46  C   UNL     1     140.650 183.532 209.152  0.00  0.00    -0.058 C 
ATOM     47  H   UNL     1     140.777 184.597 209.373  0.00  0.00    +0.024 HD
ATOM     48  H   UNL     1     141.583 183.181 208.695  0.00  0.00    +0.024 HD
ATOM     49  H   UNL     1     139.855 183.441 208.405  0.00  0.00    +0.024 HD
ENDBRANCH   9  46
BRANCH  21  50
ATOM     50  C   UNL     1     143.832 183.837 211.068  0.00  0.00    -0.009 C 
ATOM     51  H   UNL     1     143.845 183.379 210.071  0.00  0.00    +0.033 HD
ATOM     52  H   UNL     1     143.998 184.909 210.896  0.00  0.00    +0.033 HD
BRANCH  50  53
ATOM     53  C   UNL     1     145.003 183.326 211.871  0.00  0.00    -0.046 A 
ATOM     54  C   UNL     1     145.366 181.975 211.818  0.00  0.00    -0.059 A 
ATOM     55  C   UNL     1     146.438 181.494 212.571  0.00  0.00    -0.062 A 
ATOM     56  C   UNL     1     147.169 182.361 213.380  0.00  0.00    -0.062 A 
ATOM     57  C   UNL     1     146.831 183.710 213.429  0.00  0.00    -0.062 A 
ATOM     58  C   UNL     1     145.760 184.191 212.675  0.00  0.00    -0.059 A 
ATOM     59  H   UNL     1     144.801 181.271 211.208  0.00  0.00    +0.062 HD
ATOM     60  H   UNL     1     146.691 180.438 212.536  0.00  0.00    +0.062 HD
ATOM     61  H   UNL     1     147.998 181.984 213.972  0.00  0.00    +0.062 HD
ATOM     62  H   UNL     1     147.401 184.389 214.059  0.00  0.00    +0.062 HD
ATOM     63  H   UNL     1     145.520 185.250 212.727  0.00  0.00    +0.062 HD
ENDBRANCH  50  53
ENDBRANCH  21  50
BRANCH  15  64
ATOM     64  O   UNL     1     143.206 178.034 216.028  0.00  0.00    -0.377 OA
ATOM     65  H   UNL     1     143.256 177.518 216.860  0.00  0.00    +0.211 HD
ENDBRANCH  15  64
BRANCH   6  66
ATOM     66  O   UNL     1     137.624 182.208 212.471  0.00  0.00    -0.387 OA
ATOM     67  H   UNL     1     137.120 182.935 212.876  0.00  0.00    +0.210 HD
ENDBRANCH   6  66
BRANCH  12  68
ATOM     68  O   UNL     1     141.551 179.306 211.461  0.00  0.00    -0.456 OA
BRANCH  68  69
ATOM     69  C   UNL     1     142.282 178.573 210.587  0.00  0.00    +0.305 C 
ATOM     70  O   UNL     1     142.332 177.354 210.529  0.00  0.00    -0.251 OA
BRANCH  69  71
ATOM     71  C   UNL     1     143.082 179.487 209.709  0.00  0.00    +0.033 C 
ATOM     72  H   UNL     1     143.566 180.252 210.321  0.00  0.00    +0.034 HD
ATOM     73  H   UNL     1     143.849 178.907 209.186  0.00  0.00    +0.034 HD
ATOM     74  H   UNL     1     142.433 179.947 208.959  0.00  0.00    +0.034 HD
ENDBRANCH  69  71
ENDBRANCH  68  69
ENDBRANCH  12  68
TORSDOF 10
ENDMDL
