MODEL 1
REMARK VINA RESULT:      -6.8      0.000      0.000
REMARK  Name = Cytochalasin D_conf3
REMARK  10 active torsions:
REMARK  status: ('A' for Active; 'I' for Inactive)
REMARK    1  A    between atoms: C_1  and  C_2
REMARK    2  A    between atoms: C_7  and  O_37
REMARK    3  A    between atoms: C_10  and  C_36
REMARK    4  A    between atoms: C_13  and  O_21
REMARK    5  A    between atoms: C_16  and  C_19
REMARK    6  A    between atoms: C_16  and  O_20
REMARK    7  A    between atoms: O_21  and  C_22
REMARK    8  A    between atoms: C_22  and  C_24
REMARK    9  A    between atoms: C_28  and  C_29
REMARK   10  A    between atoms: C_29  and  C_30
REMARK                            x       y       z     vdW  Elec       q    Type
REMARK                         _______ _______ _______ _____ _____    ______ ____
ROOT
ATOM      1  C   UNL     1     155.087 164.252 189.329  0.00  0.00    +0.021 C 
ATOM      2  C   UNL     1     154.770 164.691 190.767  0.00  0.00    -0.025 C 
ATOM      3  C   UNL     1     153.305 164.723 191.116  0.00  0.00    -0.087 C 
ATOM      4  C   UNL     1     152.739 165.755 191.769  0.00  0.00    -0.081 C 
ATOM      5  C   UNL     1     151.250 165.892 192.091  0.00  0.00    +0.025 C 
ATOM      6  C   UNL     1     151.089 165.728 193.636  0.00  0.00    +0.084 C 
ATOM      7  C   UNL     1     149.731 166.135 194.154  0.00  0.00    -0.045 C 
ATOM      8  C   UNL     1     149.552 166.451 195.449  0.00  0.00    -0.097 C 
ATOM      9  C   UNL     1     148.660 166.170 193.090  0.00  0.00    -0.015 C 
ATOM     10  C   UNL     1     149.013 167.261 192.042  0.00  0.00    +0.002 C 
ATOM     11  C   UNL     1     150.537 167.196 191.568  0.00  0.00    +0.101 C 
ATOM     12  C   UNL     1     150.589 167.396 190.014  0.00  0.00    +0.136 C 
ATOM     13  C   UNL     1     151.982 167.412 189.410  0.00  0.00    -0.044 C 
ATOM     14  C   UNL     1     152.471 166.514 188.533  0.00  0.00    -0.046 C 
ATOM     15  C   UNL     1     153.910 166.329 188.089  0.00  0.00    +0.139 C 
ATOM     16  C   UNL     1     154.186 164.798 188.219  0.00  0.00    +0.171 C 
ATOM     17  O   UNL     1     153.664 163.992 187.434  0.00  0.00    -0.294 OA
ATOM     18  C   UNL     1     151.127 168.436 192.225  0.00  0.00    +0.224 C 
ATOM     19  O   UNL     1     152.308 168.729 192.311  0.00  0.00    -0.275 OA
ATOM     20  N   UNL     1     150.128 169.233 192.705  0.00  0.00    -0.311 N 
ATOM     21  C   UNL     1     148.799 168.712 192.544  0.00  0.00    +0.032 C 
ATOM     22  H   UNL     1     154.932 163.162 189.302  0.00  0.00    +0.038 HD
ATOM     23  H   UNL     1     155.234 165.662 190.977  0.00  0.00    +0.031 HD
ATOM     24  H   UNL     1     155.256 163.982 191.452  0.00  0.00    +0.031 HD
ATOM     25  H   UNL     1     152.696 163.879 190.798  0.00  0.00    +0.057 HD
ATOM     26  H   UNL     1     153.378 166.572 192.104  0.00  0.00    +0.057 HD
ATOM     27  H   UNL     1     150.751 165.038 191.610  0.00  0.00    +0.038 HD
ATOM     28  H   UNL     1     151.865 166.297 194.165  0.00  0.00    +0.065 HD
ATOM     29  H   UNL     1     150.376 166.393 196.155  0.00  0.00    +0.054 HD
ATOM     30  H   UNL     1     148.592 166.749 195.855  0.00  0.00    +0.054 HD
ATOM     31  H   UNL     1     148.700 165.200 192.574  0.00  0.00    +0.035 HD
ATOM     32  H   UNL     1     148.343 167.073 191.198  0.00  0.00    +0.034 HD
ATOM     33  H   UNL     1     150.144 168.367 189.771  0.00  0.00    +0.079 HD
ATOM     34  H   UNL     1     152.629 168.204 189.782  0.00  0.00    +0.061 HD
ATOM     35  H   UNL     1     151.797 165.749 188.142  0.00  0.00    +0.060 HD
ATOM     36  H   UNL     1     150.354 170.097 193.187  0.00  0.00    +0.149 HD
ATOM     37  H   UNL     1     148.351 168.744 193.541  0.00  0.00    +0.050 HD
ENDROOT
BRANCH   1  38
ATOM     38  C   UNL     1     156.554 164.491 188.977  0.00  0.00    -0.055 C 
ATOM     39  H   UNL     1     157.202 164.269 189.832  0.00  0.00    +0.024 HD
ATOM     40  H   UNL     1     156.717 165.535 188.691  0.00  0.00    +0.024 HD
ATOM     41  H   UNL     1     156.881 163.860 188.145  0.00  0.00    +0.024 HD
ENDBRANCH   1  38
BRANCH  15  42
ATOM     42  C   UNL     1     154.063 166.731 186.621  0.00  0.00    -0.025 C 
ATOM     43  H   UNL     1     155.028 166.425 186.201  0.00  0.00    +0.026 HD
ATOM     44  H   UNL     1     153.979 167.818 186.510  0.00  0.00    +0.026 HD
ATOM     45  H   UNL     1     153.267 166.290 186.007  0.00  0.00    +0.026 HD
ENDBRANCH  15  42
BRANCH   9  46
ATOM     46  C   UNL     1     147.211 166.260 193.587  0.00  0.00    -0.058 C 
ATOM     47  H   UNL     1     146.825 167.277 193.460  0.00  0.00    +0.024 HD
ATOM     48  H   UNL     1     147.099 165.987 194.640  0.00  0.00    +0.024 HD
ATOM     49  H   UNL     1     146.565 165.591 193.007  0.00  0.00    +0.024 HD
ENDBRANCH   9  46
BRANCH  21  50
ATOM     50  C   UNL     1     147.981 169.604 191.589  0.00  0.00    -0.009 C 
ATOM     51  H   UNL     1     148.231 169.351 190.549  0.00  0.00    +0.033 HD
ATOM     52  H   UNL     1     146.911 169.389 191.683  0.00  0.00    +0.033 HD
BRANCH  50  53
ATOM     53  C   UNL     1     148.235 171.081 191.773  0.00  0.00    -0.046 A 
ATOM     54  C   UNL     1     148.446 171.909 190.664  0.00  0.00    -0.059 A 
ATOM     55  C   UNL     1     148.668 173.277 190.832  0.00  0.00    -0.062 A 
ATOM     56  C   UNL     1     148.690 173.829 192.110  0.00  0.00    -0.062 A 
ATOM     57  C   UNL     1     148.496 173.013 193.223  0.00  0.00    -0.062 A 
ATOM     58  C   UNL     1     148.274 171.645 193.056  0.00  0.00    -0.059 A 
ATOM     59  H   UNL     1     148.448 171.496 189.657  0.00  0.00    +0.062 HD
ATOM     60  H   UNL     1     148.833 173.910 189.963  0.00  0.00    +0.062 HD
ATOM     61  H   UNL     1     148.866 174.893 192.240  0.00  0.00    +0.062 HD
ATOM     62  H   UNL     1     148.523 173.441 194.221  0.00  0.00    +0.062 HD
ATOM     63  H   UNL     1     148.134 171.023 193.938  0.00  0.00    +0.062 HD
ENDBRANCH  50  53
ENDBRANCH  21  50
BRANCH  15  64
ATOM     64  O   UNL     1     154.794 167.154 188.826  0.00  0.00    -0.377 OA
ATOM     65  H   UNL     1     155.685 166.774 188.768  0.00  0.00    +0.211 HD
ENDBRANCH  15  64
BRANCH   6  66
ATOM     66  O   UNL     1     151.252 164.350 193.979  0.00  0.00    -0.387 OA
ATOM     67  H   UNL     1     152.006 164.302 194.591  0.00  0.00    +0.210 HD
ENDBRANCH   6  66
BRANCH  12  68
ATOM     68  O   UNL     1     149.832 166.319 189.412  0.00  0.00    -0.456 OA
BRANCH  68  69
ATOM     69  C   UNL     1     148.881 166.662 188.503  0.00  0.00    +0.305 C 
ATOM     70  O   UNL     1     148.132 167.624 188.580  0.00  0.00    -0.251 OA
BRANCH  69  71
ATOM     71  C   UNL     1     148.858 165.660 187.390  0.00  0.00    +0.033 C 
ATOM     72  H   UNL     1     149.123 164.675 187.782  0.00  0.00    +0.034 HD
ATOM     73  H   UNL     1     147.854 165.603 186.962  0.00  0.00    +0.034 HD
ATOM     74  H   UNL     1     149.586 165.941 186.624  0.00  0.00    +0.034 HD
ENDBRANCH  69  71
ENDBRANCH  68  69
ENDBRANCH  12  68
TORSDOF 10
ENDMDL
MODEL 2
REMARK VINA RESULT:      -6.7      3.125      7.419
REMARK  Name = Cytochalasin D_conf3
REMARK  10 active torsions:
REMARK  status: ('A' for Active; 'I' for Inactive)
REMARK    1  A    between atoms: C_1  and  C_2
REMARK    2  A    between atoms: C_7  and  O_37
REMARK    3  A    between atoms: C_10  and  C_36
REMARK    4  A    between atoms: C_13  and  O_21
REMARK    5  A    between atoms: C_16  and  C_19
REMARK    6  A    between atoms: C_16  and  O_20
REMARK    7  A    between atoms: O_21  and  C_22
REMARK    8  A    between atoms: C_22  and  C_24
REMARK    9  A    between atoms: C_28  and  C_29
REMARK   10  A    between atoms: C_29  and  C_30
REMARK                            x       y       z     vdW  Elec       q    Type
REMARK                         _______ _______ _______ _____ _____    ______ ____
ROOT
ATOM      1  C   UNL     1     144.800 170.045 185.343  0.00  0.00    +0.021 C 
ATOM      2  C   UNL     1     144.731 170.636 186.759  0.00  0.00    -0.025 C 
ATOM      3  C   UNL     1     146.024 170.598 187.531  0.00  0.00    -0.087 C 
ATOM      4  C   UNL     1     146.091 170.191 188.812  0.00  0.00    -0.081 C 
ATOM      5  C   UNL     1     147.373 170.055 189.635  0.00  0.00    +0.025 C 
ATOM      6  C   UNL     1     147.355 171.179 190.718  0.00  0.00    +0.084 C 
ATOM      7  C   UNL     1     148.394 171.000 191.799  0.00  0.00    -0.045 C 
ATOM      8  C   UNL     1     148.261 171.608 192.992  0.00  0.00    -0.097 C 
ATOM      9  C   UNL     1     149.527 170.081 191.408  0.00  0.00    -0.015 C 
ATOM     10  C   UNL     1     148.968 168.652 191.172  0.00  0.00    +0.002 C 
ATOM     11  C   UNL     1     147.650 168.640 190.270  0.00  0.00    +0.101 C 
ATOM     12  C   UNL     1     147.757 167.465 189.238  0.00  0.00    +0.136 C 
ATOM     13  C   UNL     1     146.550 167.286 188.334  0.00  0.00    -0.044 C 
ATOM     14  C   UNL     1     146.540 167.431 186.995  0.00  0.00    -0.046 C 
ATOM     15  C   UNL     1     145.338 167.513 186.073  0.00  0.00    +0.139 C 
ATOM     16  C   UNL     1     145.602 168.755 185.164  0.00  0.00    +0.171 C 
ATOM     17  O   UNL     1     146.481 168.724 184.290  0.00  0.00    -0.294 OA
ATOM     18  C   UNL     1     146.574 168.282 191.286  0.00  0.00    +0.224 C 
ATOM     19  O   UNL     1     145.366 168.329 191.121  0.00  0.00    -0.275 OA
ATOM     20  N   UNL     1     147.149 167.858 192.449  0.00  0.00    -0.311 N 
ATOM     21  C   UNL     1     148.585 167.901 192.473  0.00  0.00    +0.032 C 
ATOM     22  H   UNL     1     145.329 170.790 184.728  0.00  0.00    +0.038 HD
ATOM     23  H   UNL     1     143.930 170.153 187.332  0.00  0.00    +0.031 HD
ATOM     24  H   UNL     1     144.431 171.690 186.673  0.00  0.00    +0.031 HD
ATOM     25  H   UNL     1     146.930 170.892 187.004  0.00  0.00    +0.057 HD
ATOM     26  H   UNL     1     145.164 169.933 189.326  0.00  0.00    +0.057 HD
ATOM     27  H   UNL     1     148.204 170.266 188.946  0.00  0.00    +0.038 HD
ATOM     28  H   UNL     1     146.361 171.254 191.178  0.00  0.00    +0.065 HD
ATOM     29  H   UNL     1     147.417 172.263 193.192  0.00  0.00    +0.054 HD
ATOM     30  H   UNL     1     148.986 171.500 193.791  0.00  0.00    +0.054 HD
ATOM     31  H   UNL     1     149.905 170.445 190.441  0.00  0.00    +0.035 HD
ATOM     32  H   UNL     1     149.777 168.109 190.672  0.00  0.00    +0.034 HD
ATOM     33  H   UNL     1     147.863 166.523 189.789  0.00  0.00    +0.079 HD
ATOM     34  H   UNL     1     145.620 167.072 188.856  0.00  0.00    +0.061 HD
ATOM     35  H   UNL     1     147.489 167.609 186.485  0.00  0.00    +0.060 HD
ATOM     36  H   UNL     1     146.567 167.593 193.236  0.00  0.00    +0.149 HD
ATOM     37  H   UNL     1     148.843 168.468 193.371  0.00  0.00    +0.050 HD
ENDROOT
BRANCH   1  38
ATOM     38  C   UNL     1     143.410 169.886 184.730  0.00  0.00    -0.055 C 
ATOM     39  H   UNL     1     143.257 168.863 184.368  0.00  0.00    +0.024 HD
ATOM     40  H   UNL     1     143.280 170.568 183.884  0.00  0.00    +0.024 HD
ATOM     41  H   UNL     1     142.619 170.099 185.456  0.00  0.00    +0.024 HD
ENDBRANCH   1  38
BRANCH  15  42
ATOM     42  C   UNL     1     145.269 166.266 185.189  0.00  0.00    -0.025 C 
ATOM     43  H   UNL     1     144.253 166.063 184.830  0.00  0.00    +0.026 HD
ATOM     44  H   UNL     1     145.611 165.384 185.743  0.00  0.00    +0.026 HD
ATOM     45  H   UNL     1     145.927 166.365 184.317  0.00  0.00    +0.026 HD
ENDBRANCH  15  42
BRANCH   9  46
ATOM     46  C   UNL     1     150.763 170.103 192.316  0.00  0.00    -0.058 C 
ATOM     47  H   UNL     1     150.936 171.112 192.705  0.00  0.00    +0.024 HD
ATOM     48  H   UNL     1     151.676 169.778 191.809  0.00  0.00    +0.024 HD
ATOM     49  H   UNL     1     150.616 169.443 193.178  0.00  0.00    +0.024 HD
ENDBRANCH   9  46
BRANCH  21  50
ATOM     50  C   UNL     1     149.166 166.477 192.585  0.00  0.00    -0.009 C 
ATOM     51  H   UNL     1     148.442 165.754 192.183  0.00  0.00    +0.033 HD
ATOM     52  H   UNL     1     150.053 166.372 191.950  0.00  0.00    +0.033 HD
BRANCH  50  53
ATOM     53  C   UNL     1     149.486 166.063 194.001  0.00  0.00    -0.046 A 
ATOM     54  C   UNL     1     150.771 165.618 194.338  0.00  0.00    -0.059 A 
ATOM     55  C   UNL     1     151.071 165.246 195.650  0.00  0.00    -0.062 A 
ATOM     56  C   UNL     1     150.089 165.307 196.635  0.00  0.00    -0.062 A 
ATOM     57  C   UNL     1     148.803 165.733 196.309  0.00  0.00    -0.062 A 
ATOM     58  C   UNL     1     148.501 166.105 194.998  0.00  0.00    -0.059 A 
ATOM     59  H   UNL     1     151.549 165.549 193.580  0.00  0.00    +0.062 HD
ATOM     60  H   UNL     1     152.071 164.900 195.899  0.00  0.00    +0.062 HD
ATOM     61  H   UNL     1     150.323 165.014 197.654  0.00  0.00    +0.062 HD
ATOM     62  H   UNL     1     148.033 165.771 197.075  0.00  0.00    +0.062 HD
ATOM     63  H   UNL     1     147.489 166.427 194.761  0.00  0.00    +0.062 HD
ENDBRANCH  50  53
ENDBRANCH  21  50
BRANCH  15  64
ATOM     64  O   UNL     1     144.124 167.560 186.800  0.00  0.00    -0.377 OA
ATOM     65  H   UNL     1     143.987 168.470 187.107  0.00  0.00    +0.211 HD
ENDBRANCH  15  64
BRANCH   6  66
ATOM     66  O   UNL     1     147.640 172.434 190.094  0.00  0.00    -0.387 OA
ATOM     67  H   UNL     1     148.457 172.311 189.580  0.00  0.00    +0.210 HD
ENDBRANCH   6  66
BRANCH  12  68
ATOM     68  O   UNL     1     148.923 167.712 188.417  0.00  0.00    -0.456 OA
BRANCH  68  69
ATOM     69  C   UNL     1     149.818 166.697 188.288  0.00  0.00    +0.305 C 
ATOM     70  O   UNL     1     149.984 165.785 189.083  0.00  0.00    -0.251 OA
BRANCH  69  71
ATOM     71  C   UNL     1     150.607 166.873 187.026  0.00  0.00    +0.033 C 
ATOM     72  H   UNL     1     150.040 167.494 186.327  0.00  0.00    +0.034 HD
ATOM     73  H   UNL     1     151.552 167.376 187.246  0.00  0.00    +0.034 HD
ATOM     74  H   UNL     1     150.788 165.899 186.564  0.00  0.00    +0.034 HD
ENDBRANCH  69  71
ENDBRANCH  68  69
ENDBRANCH  12  68
TORSDOF 10
ENDMDL
MODEL 3
REMARK VINA RESULT:      -6.7      2.316      3.689
REMARK  Name = Cytochalasin D_conf3
REMARK  10 active torsions:
REMARK  status: ('A' for Active; 'I' for Inactive)
REMARK    1  A    between atoms: C_1  and  C_2
REMARK    2  A    between atoms: C_7  and  O_37
REMARK    3  A    between atoms: C_10  and  C_36
REMARK    4  A    between atoms: C_13  and  O_21
REMARK    5  A    between atoms: C_16  and  C_19
REMARK    6  A    between atoms: C_16  and  O_20
REMARK    7  A    between atoms: O_21  and  C_22
REMARK    8  A    between atoms: C_22  and  C_24
REMARK    9  A    between atoms: C_28  and  C_29
REMARK   10  A    between atoms: C_29  and  C_30
REMARK                            x       y       z     vdW  Elec       q    Type
REMARK                         _______ _______ _______ _____ _____    ______ ____
ROOT
ATOM      1  C   UNL     1     154.465 165.388 190.019  0.00  0.00    +0.021 C 
ATOM      2  C   UNL     1     153.965 165.930 191.367  0.00  0.00    -0.025 C 
ATOM      3  C   UNL     1     152.606 165.437 191.790  0.00  0.00    -0.087 C 
ATOM      4  C   UNL     1     151.655 166.259 192.272  0.00  0.00    -0.081 C 
ATOM      5  C   UNL     1     150.232 165.844 192.651  0.00  0.00    +0.025 C 
ATOM      6  C   UNL     1     150.118 165.931 194.205  0.00  0.00    +0.084 C 
ATOM      7  C   UNL     1     148.700 165.849 194.718  0.00  0.00    -0.045 C 
ATOM      8  C   UNL     1     148.380 166.309 195.940  0.00  0.00    -0.097 C 
ATOM      9  C   UNL     1     147.731 165.244 193.730  0.00  0.00    -0.015 C 
ATOM     10  C   UNL     1     147.635 166.160 192.480  0.00  0.00    +0.002 C 
ATOM     11  C   UNL     1     149.063 166.624 191.938  0.00  0.00    +0.101 C 
ATOM     12  C   UNL     1     149.064 166.524 190.373  0.00  0.00    +0.136 C 
ATOM     13  C   UNL     1     150.344 166.982 189.696  0.00  0.00    -0.044 C 
ATOM     14  C   UNL     1     151.174 166.207 188.973  0.00  0.00    -0.046 C 
ATOM     15  C   UNL     1     152.574 166.534 188.488  0.00  0.00    +0.139 C 
ATOM     16  C   UNL     1     153.445 165.300 188.883  0.00  0.00    +0.171 C 
ATOM     17  O   UNL     1     153.312 164.218 188.291  0.00  0.00    -0.294 OA
ATOM     18  C   UNL     1     149.085 168.098 192.318  0.00  0.00    +0.224 C 
ATOM     19  O   UNL     1     150.043 168.852 192.279  0.00  0.00    -0.275 OA
ATOM     20  N   UNL     1     147.838 168.502 192.701  0.00  0.00    -0.311 N 
ATOM     21  C   UNL     1     146.839 167.469 192.716  0.00  0.00    +0.032 C 
ATOM     22  H   UNL     1     154.767 164.345 190.203  0.00  0.00    +0.038 HD
ATOM     23  H   UNL     1     153.991 167.026 191.367  0.00  0.00    +0.031 HD
ATOM     24  H   UNL     1     154.682 165.623 192.142  0.00  0.00    +0.031 HD
ATOM     25  H   UNL     1     152.399 164.375 191.669  0.00  0.00    +0.057 HD
ATOM     26  H   UNL     1     151.900 167.312 192.413  0.00  0.00    +0.057 HD
ATOM     27  H   UNL     1     150.134 164.787 192.365  0.00  0.00    +0.038 HD
ATOM     28  H   UNL     1     150.585 166.855 194.574  0.00  0.00    +0.065 HD
ATOM     29  H   UNL     1     149.141 166.725 196.596  0.00  0.00    +0.054 HD
ATOM     30  H   UNL     1     147.373 166.268 196.339  0.00  0.00    +0.054 HD
ATOM     31  H   UNL     1     148.173 164.292 193.401  0.00  0.00    +0.035 HD
ATOM     32  H   UNL     1     147.117 165.560 191.726  0.00  0.00    +0.034 HD
ATOM     33  H   UNL     1     148.269 167.168 189.981  0.00  0.00    +0.079 HD
ATOM     34  H   UNL     1     150.605 168.023 189.877  0.00  0.00    +0.061 HD
ATOM     35  H   UNL     1     150.877 165.176 188.771  0.00  0.00    +0.060 HD
ATOM     36  H   UNL     1     147.683 169.458 193.000  0.00  0.00    +0.149 HD
ATOM     37  H   UNL     1     146.395 167.510 193.714  0.00  0.00    +0.050 HD
ENDROOT
BRANCH   1  38
ATOM     38  C   UNL     1     155.715 166.124 189.544  0.00  0.00    -0.055 C 
ATOM     39  H   UNL     1     156.163 166.701 190.361  0.00  0.00    +0.024 HD
ATOM     40  H   UNL     1     155.471 166.818 188.734  0.00  0.00    +0.024 HD
ATOM     41  H   UNL     1     156.479 165.432 189.174  0.00  0.00    +0.024 HD
ENDBRANCH   1  38
BRANCH  15  42
ATOM     42  C   UNL     1     152.583 166.672 186.964  0.00  0.00    -0.025 C 
ATOM     43  H   UNL     1     151.927 165.944 186.473  0.00  0.00    +0.026 HD
ATOM     44  H   UNL     1     153.596 166.527 186.572  0.00  0.00    +0.026 HD
ATOM     45  H   UNL     1     152.268 167.677 186.658  0.00  0.00    +0.026 HD
ENDBRANCH  15  42
BRANCH   9  46
ATOM     46  C   UNL     1     146.360 164.837 194.286  0.00  0.00    -0.058 C 
ATOM     47  H   UNL     1     145.847 165.706 194.714  0.00  0.00    +0.024 HD
ATOM     48  H   UNL     1     146.420 164.068 195.061  0.00  0.00    +0.024 HD
ATOM     49  H   UNL     1     145.723 164.445 193.485  0.00  0.00    +0.024 HD
ENDBRANCH   9  46
BRANCH  21  50
ATOM     50  C   UNL     1     145.750 167.755 191.663  0.00  0.00    -0.009 C 
ATOM     51  H   UNL     1     145.578 168.840 191.599  0.00  0.00    +0.033 HD
ATOM     52  H   UNL     1     146.095 167.465 190.664  0.00  0.00    +0.033 HD
BRANCH  50  53
ATOM     53  C   UNL     1     144.424 167.101 191.967  0.00  0.00    -0.046 A 
ATOM     54  C   UNL     1     143.695 166.467 190.953  0.00  0.00    -0.059 A 
ATOM     55  C   UNL     1     142.474 165.852 191.235  0.00  0.00    -0.062 A 
ATOM     56  C   UNL     1     141.967 165.869 192.532  0.00  0.00    -0.062 A 
ATOM     57  C   UNL     1     142.676 166.509 193.547  0.00  0.00    -0.062 A 
ATOM     58  C   UNL     1     143.896 167.126 193.266  0.00  0.00    -0.059 A 
ATOM     59  H   UNL     1     144.066 166.455 189.929  0.00  0.00    +0.062 HD
ATOM     60  H   UNL     1     141.916 165.365 190.439  0.00  0.00    +0.062 HD
ATOM     61  H   UNL     1     141.016 165.392 192.750  0.00  0.00    +0.062 HD
ATOM     62  H   UNL     1     142.276 166.532 194.557  0.00  0.00    +0.062 HD
ATOM     63  H   UNL     1     144.431 167.628 194.070  0.00  0.00    +0.062 HD
ENDBRANCH  50  53
ENDBRANCH  21  50
BRANCH  15  64
ATOM     64  O   UNL     1     153.031 167.771 189.007  0.00  0.00    -0.377 OA
ATOM     65  H   UNL     1     152.484 167.998 189.776  0.00  0.00    +0.211 HD
ENDBRANCH  15  64
BRANCH   6  66
ATOM     66  O   UNL     1     150.818 164.829 194.787  0.00  0.00    -0.387 OA
ATOM     67  H   UNL     1     151.387 165.197 195.486  0.00  0.00    +0.210 HD
ENDBRANCH   6  66
BRANCH  12  68
ATOM     68  O   UNL     1     148.823 165.140 190.026  0.00  0.00    -0.456 OA
BRANCH  68  69
ATOM     69  C   UNL     1     148.050 164.900 188.934  0.00  0.00    +0.305 C 
ATOM     70  O   UNL     1     148.456 164.565 187.830  0.00  0.00    -0.251 OA
BRANCH  69  71
ATOM     71  C   UNL     1     146.609 165.136 189.268  0.00  0.00    +0.033 C 
ATOM     72  H   UNL     1     146.517 166.064 189.840  0.00  0.00    +0.034 HD
ATOM     73  H   UNL     1     146.026 165.237 188.349  0.00  0.00    +0.034 HD
ATOM     74  H   UNL     1     146.230 164.310 189.876  0.00  0.00    +0.034 HD
ENDBRANCH  69  71
ENDBRANCH  68  69
ENDBRANCH  12  68
TORSDOF 10
ENDMDL
MODEL 4
REMARK VINA RESULT:      -6.5      3.666      5.714
REMARK  Name = Cytochalasin D_conf3
REMARK  10 active torsions:
REMARK  status: ('A' for Active; 'I' for Inactive)
REMARK    1  A    between atoms: C_1  and  C_2
REMARK    2  A    between atoms: C_7  and  O_37
REMARK    3  A    between atoms: C_10  and  C_36
REMARK    4  A    between atoms: C_13  and  O_21
REMARK    5  A    between atoms: C_16  and  C_19
REMARK    6  A    between atoms: C_16  and  O_20
REMARK    7  A    between atoms: O_21  and  C_22
REMARK    8  A    between atoms: C_22  and  C_24
REMARK    9  A    between atoms: C_28  and  C_29
REMARK   10  A    between atoms: C_29  and  C_30
REMARK                            x       y       z     vdW  Elec       q    Type
REMARK                         _______ _______ _______ _____ _____    ______ ____
ROOT
ATOM      1  C   UNL     1     152.143 166.026 192.775  0.00  0.00    +0.021 C 
ATOM      2  C   UNL     1     150.893 166.589 193.469  0.00  0.00    -0.025 C 
ATOM      3  C   UNL     1     149.583 166.028 192.981  0.00  0.00    -0.087 C 
ATOM      4  C   UNL     1     148.522 166.807 192.700  0.00  0.00    -0.081 C 
ATOM      5  C   UNL     1     147.188 166.318 192.131  0.00  0.00    +0.025 C 
ATOM      6  C   UNL     1     146.119 166.461 193.260  0.00  0.00    +0.084 C 
ATOM      7  C   UNL     1     144.697 166.309 192.775  0.00  0.00    -0.045 C 
ATOM      8  C   UNL     1     143.668 166.797 193.489  0.00  0.00    -0.097 C 
ATOM      9  C   UNL     1     144.580 165.603 191.445  0.00  0.00    -0.015 C 
ATOM     10  C   UNL     1     145.271 166.459 190.348  0.00  0.00    +0.002 C 
ATOM     11  C   UNL     1     146.710 166.991 190.789  0.00  0.00    +0.101 C 
ATOM     12  C   UNL     1     147.699 166.827 189.584  0.00  0.00    +0.136 C 
ATOM     13  C   UNL     1     149.108 167.338 189.827  0.00  0.00    -0.044 C 
ATOM     14  C   UNL     1     150.226 166.588 189.842  0.00  0.00    -0.046 C 
ATOM     15  C   UNL     1     151.611 166.985 190.319  0.00  0.00    +0.139 C 
ATOM     16  C   UNL     1     152.068 165.826 191.261  0.00  0.00    +0.171 C 
ATOM     17  O   UNL     1     152.363 164.714 190.797  0.00  0.00    -0.294 OA
ATOM     18  C   UNL     1     146.452 168.478 190.992  0.00  0.00    +0.224 C 
ATOM     19  O   UNL     1     147.203 169.289 191.508  0.00  0.00    -0.275 OA
ATOM     20  N   UNL     1     145.233 168.816 190.478  0.00  0.00    -0.311 N 
ATOM     21  C   UNL     1     144.472 167.723 189.938  0.00  0.00    +0.032 C 
ATOM     22  H   UNL     1     152.286 165.012 193.183  0.00  0.00    +0.038 HD
ATOM     23  H   UNL     1     150.887 167.684 193.406  0.00  0.00    +0.031 HD
ATOM     24  H   UNL     1     150.969 166.361 194.542  0.00  0.00    +0.031 HD
ATOM     25  H   UNL     1     149.524 164.951 192.834  0.00  0.00    +0.057 HD
ATOM     26  H   UNL     1     148.598 167.878 192.886  0.00  0.00    +0.057 HD
ATOM     27  H   UNL     1     147.317 165.245 191.925  0.00  0.00    +0.038 HD
ATOM     28  H   UNL     1     146.227 167.426 193.772  0.00  0.00    +0.065 HD
ATOM     29  H   UNL     1     143.836 167.287 194.445  0.00  0.00    +0.054 HD
ATOM     30  H   UNL     1     142.635 166.708 193.170  0.00  0.00    +0.054 HD
ATOM     31  H   UNL     1     145.154 164.669 191.535  0.00  0.00    +0.035 HD
ATOM     32  H   UNL     1     145.358 165.796 189.482  0.00  0.00    +0.034 HD
ATOM     33  H   UNL     1     147.312 167.402 188.734  0.00  0.00    +0.079 HD
ATOM     34  H   UNL     1     149.172 168.400 190.056  0.00  0.00    +0.061 HD
ATOM     35  H   UNL     1     150.148 165.533 189.574  0.00  0.00    +0.060 HD
ATOM     36  H   UNL     1     144.902 169.772 190.544  0.00  0.00    +0.149 HD
ATOM     37  H   UNL     1     143.498 167.777 190.431  0.00  0.00    +0.050 HD
ENDROOT
BRANCH   1  38
ATOM     38  C   UNL     1     153.395 166.820 193.138  0.00  0.00    -0.055 C 
ATOM     39  H   UNL     1     153.618 166.732 194.207  0.00  0.00    +0.024 HD
ATOM     40  H   UNL     1     153.260 167.881 192.907  0.00  0.00    +0.024 HD
ATOM     41  H   UNL     1     154.274 166.467 192.589  0.00  0.00    +0.024 HD
ENDBRANCH   1  38
BRANCH  15  42
ATOM     42  C   UNL     1     152.574 167.060 189.133  0.00  0.00    -0.025 C 
ATOM     43  H   UNL     1     152.493 168.007 188.587  0.00  0.00    +0.026 HD
ATOM     44  H   UNL     1     152.373 166.248 188.424  0.00  0.00    +0.026 HD
ATOM     45  H   UNL     1     153.613 166.941 189.462  0.00  0.00    +0.026 HD
ENDBRANCH  15  42
BRANCH   9  46
ATOM     46  C   UNL     1     143.175 165.133 191.046  0.00  0.00    -0.058 C 
ATOM     47  H   UNL     1     142.497 165.184 191.905  0.00  0.00    +0.024 HD
ATOM     48  H   UNL     1     143.157 164.109 190.663  0.00  0.00    +0.024 HD
ATOM     49  H   UNL     1     142.762 165.781 190.265  0.00  0.00    +0.024 HD
ENDBRANCH   9  46
BRANCH  21  50
ATOM     50  C   UNL     1     144.284 167.895 188.418  0.00  0.00    -0.009 C 
ATOM     51  H   UNL     1     143.867 168.892 188.212  0.00  0.00    +0.033 HD
ATOM     52  H   UNL     1     145.253 167.884 187.906  0.00  0.00    +0.033 HD
BRANCH  50  53
ATOM     53  C   UNL     1     143.355 166.876 187.803  0.00  0.00    -0.046 A 
ATOM     54  C   UNL     1     143.859 165.864 186.976  0.00  0.00    -0.059 A 
ATOM     55  C   UNL     1     143.003 164.914 186.416  0.00  0.00    -0.062 A 
ATOM     56  C   UNL     1     141.635 164.970 186.670  0.00  0.00    -0.062 A 
ATOM     57  C   UNL     1     141.120 165.982 187.479  0.00  0.00    -0.062 A 
ATOM     58  C   UNL     1     141.975 166.932 188.039  0.00  0.00    -0.059 A 
ATOM     59  H   UNL     1     144.923 165.810 186.752  0.00  0.00    +0.062 HD
ATOM     60  H   UNL     1     143.406 164.134 185.774  0.00  0.00    +0.062 HD
ATOM     61  H   UNL     1     140.970 164.232 186.232  0.00  0.00    +0.062 HD
ATOM     62  H   UNL     1     140.051 166.032 187.670  0.00  0.00    +0.062 HD
ATOM     63  H   UNL     1     141.552 167.719 188.660  0.00  0.00    +0.062 HD
ENDBRANCH  50  53
ENDBRANCH  21  50
BRANCH  15  64
ATOM     64  O   UNL     1     151.609 168.268 190.919  0.00  0.00    -0.377 OA
ATOM     65  H   UNL     1     152.403 168.742 190.625  0.00  0.00    +0.211 HD
ENDBRANCH  15  64
BRANCH   6  66
ATOM     66  O   UNL     1     146.323 165.430 194.230  0.00  0.00    -0.387 OA
ATOM     67  H   UNL     1     145.986 164.606 193.837  0.00  0.00    +0.210 HD
ENDBRANCH   6  66
BRANCH  12  68
ATOM     68  O   UNL     1     147.763 165.417 189.263  0.00  0.00    -0.456 OA
BRANCH  68  69
ATOM     69  C   UNL     1     147.417 165.052 188.000  0.00  0.00    +0.305 C 
ATOM     70  O   UNL     1     147.600 165.713 186.988  0.00  0.00    -0.251 OA
BRANCH  69  71
ATOM     71  C   UNL     1     146.741 163.715 188.025  0.00  0.00    +0.033 C 
ATOM     72  H   UNL     1     146.746 163.325 189.046  0.00  0.00    +0.034 HD
ATOM     73  H   UNL     1     145.702 163.818 187.699  0.00  0.00    +0.034 HD
ATOM     74  H   UNL     1     147.279 163.016 187.379  0.00  0.00    +0.034 HD
ENDBRANCH  69  71
ENDBRANCH  68  69
ENDBRANCH  12  68
TORSDOF 10
ENDMDL
MODEL 5
REMARK VINA RESULT:      -6.5      2.668      5.560
REMARK  Name = Cytochalasin D_conf3
REMARK  10 active torsions:
REMARK  status: ('A' for Active; 'I' for Inactive)
REMARK    1  A    between atoms: C_1  and  C_2
REMARK    2  A    between atoms: C_7  and  O_37
REMARK    3  A    between atoms: C_10  and  C_36
REMARK    4  A    between atoms: C_13  and  O_21
REMARK    5  A    between atoms: C_16  and  C_19
REMARK    6  A    between atoms: C_16  and  O_20
REMARK    7  A    between atoms: O_21  and  C_22
REMARK    8  A    between atoms: C_22  and  C_24
REMARK    9  A    between atoms: C_28  and  C_29
REMARK   10  A    between atoms: C_29  and  C_30
REMARK                            x       y       z     vdW  Elec       q    Type
REMARK                         _______ _______ _______ _____ _____    ______ ____
ROOT
ATOM      1  C   UNL     1     153.981 165.868 187.008  0.00  0.00    +0.021 C 
ATOM      2  C   UNL     1     152.583 165.890 186.370  0.00  0.00    -0.025 C 
ATOM      3  C   UNL     1     151.623 166.883 186.970  0.00  0.00    -0.087 C 
ATOM      4  C   UNL     1     150.352 166.565 187.281  0.00  0.00    -0.081 C 
ATOM      5  C   UNL     1     149.345 167.495 187.959  0.00  0.00    +0.025 C 
ATOM      6  C   UNL     1     148.261 167.863 186.897  0.00  0.00    +0.084 C 
ATOM      7  C   UNL     1     147.035 168.525 187.481  0.00  0.00    -0.045 C 
ATOM      8  C   UNL     1     145.869 168.531 186.811  0.00  0.00    -0.097 C 
ATOM      9  C   UNL     1     147.261 169.123 188.848  0.00  0.00    -0.015 C 
ATOM     10  C   UNL     1     147.601 167.989 189.854  0.00  0.00    +0.002 C 
ATOM     11  C   UNL     1     148.695 166.969 189.294  0.00  0.00    +0.101 C 
ATOM     12  C   UNL     1     149.715 166.646 190.440  0.00  0.00    +0.136 C 
ATOM     13  C   UNL     1     150.797 165.643 190.080  0.00  0.00    -0.044 C 
ATOM     14  C   UNL     1     152.119 165.894 190.028  0.00  0.00    -0.046 C 
ATOM     15  C   UNL     1     153.214 165.022 189.443  0.00  0.00    +0.139 C 
ATOM     16  C   UNL     1     154.053 165.972 188.532  0.00  0.00    +0.171 C 
ATOM     17  O   UNL     1     154.782 166.844 189.030  0.00  0.00    -0.294 OA
ATOM     18  C   UNL     1     147.862 165.721 189.036  0.00  0.00    +0.224 C 
ATOM     19  O   UNL     1     148.209 164.719 188.432  0.00  0.00    -0.275 OA
ATOM     20  N   UNL     1     146.631 165.851 189.611  0.00  0.00    -0.311 N 
ATOM     21  C   UNL     1     146.386 167.113 190.252  0.00  0.00    +0.032 C 
ATOM     22  H   UNL     1     154.496 166.770 186.642  0.00  0.00    +0.038 HD
ATOM     23  H   UNL     1     152.148 164.883 186.379  0.00  0.00    +0.031 HD
ATOM     24  H   UNL     1     152.700 166.145 185.308  0.00  0.00    +0.031 HD
ATOM     25  H   UNL     1     152.000 167.884 187.173  0.00  0.00    +0.057 HD
ATOM     26  H   UNL     1     149.991 165.565 187.037  0.00  0.00    +0.057 HD
ATOM     27  H   UNL     1     149.895 168.414 188.209  0.00  0.00    +0.038 HD
ATOM     28  H   UNL     1     147.958 166.971 186.332  0.00  0.00    +0.065 HD
ATOM     29  H   UNL     1     145.791 168.083 185.824  0.00  0.00    +0.054 HD
ATOM     30  H   UNL     1     144.970 168.994 187.201  0.00  0.00    +0.054 HD
ATOM     31  H   UNL     1     148.153 169.762 188.767  0.00  0.00    +0.035 HD
ATOM     32  H   UNL     1     147.979 168.502 190.745  0.00  0.00    +0.034 HD
ATOM     33  H   UNL     1     149.168 166.210 191.283  0.00  0.00    +0.079 HD
ATOM     34  H   UNL     1     150.427 164.660 189.795  0.00  0.00    +0.061 HD
ATOM     35  H   UNL     1     152.474 166.873 190.353  0.00  0.00    +0.060 HD
ATOM     36  H   UNL     1     145.946 165.109 189.520  0.00  0.00    +0.149 HD
ATOM     37  H   UNL     1     145.451 167.481 189.822  0.00  0.00    +0.050 HD
ENDROOT
BRANCH   1  38
ATOM     38  C   UNL     1     154.802 164.674 186.526  0.00  0.00    -0.055 C 
ATOM     39  H   UNL     1     154.700 164.542 185.443  0.00  0.00    +0.024 HD
ATOM     40  H   UNL     1     154.467 163.753 187.012  0.00  0.00    +0.024 HD
ATOM     41  H   UNL     1     155.868 164.799 186.742  0.00  0.00    +0.024 HD
ENDBRANCH   1  38
BRANCH  15  42
ATOM     42  C   UNL     1     154.115 164.491 190.559  0.00  0.00    -0.025 C 
ATOM     43  H   UNL     1     153.567 163.886 191.289  0.00  0.00    +0.026 HD
ATOM     44  H   UNL     1     154.587 165.321 191.099  0.00  0.00    +0.026 HD
ATOM     45  H   UNL     1     154.929 163.880 190.150  0.00  0.00    +0.026 HD
ENDBRANCH  15  42
BRANCH   9  46
ATOM     46  C   UNL     1     146.174 170.077 189.361  0.00  0.00    -0.058 C 
ATOM     47  H   UNL     1     146.374 170.364 190.398  0.00  0.00    +0.024 HD
ATOM     48  H   UNL     1     145.170 169.647 189.318  0.00  0.00    +0.024 HD
ATOM     49  H   UNL     1     146.161 170.997 188.765  0.00  0.00    +0.024 HD
ENDBRANCH   9  46
BRANCH  21  50
ATOM     50  C   UNL     1     146.206 166.921 191.771  0.00  0.00    -0.009 C 
ATOM     51  H   UNL     1     146.692 165.985 192.082  0.00  0.00    +0.033 HD
ATOM     52  H   UNL     1     146.732 167.708 192.324  0.00  0.00    +0.033 HD
BRANCH  50  53
ATOM     53  C   UNL     1     144.763 166.853 192.208  0.00  0.00    -0.046 A 
ATOM     54  C   UNL     1     143.749 167.374 191.394  0.00  0.00    -0.059 A 
ATOM     55  C   UNL     1     142.412 167.301 191.791  0.00  0.00    -0.062 A 
ATOM     56  C   UNL     1     142.077 166.712 193.008  0.00  0.00    -0.062 A 
ATOM     57  C   UNL     1     143.078 166.203 193.833  0.00  0.00    -0.062 A 
ATOM     58  C   UNL     1     144.414 166.277 193.437  0.00  0.00    -0.059 A 
ATOM     59  H   UNL     1     143.991 167.852 190.446  0.00  0.00    +0.062 HD
ATOM     60  H   UNL     1     141.634 167.711 191.152  0.00  0.00    +0.062 HD
ATOM     61  H   UNL     1     141.037 166.658 193.317  0.00  0.00    +0.062 HD
ATOM     62  H   UNL     1     142.818 165.752 194.787  0.00  0.00    +0.062 HD
ATOM     63  H   UNL     1     145.182 165.881 194.099  0.00  0.00    +0.062 HD
ENDBRANCH  50  53
ENDBRANCH  21  50
BRANCH  15  64
ATOM     64  O   UNL     1     152.681 163.888 188.782  0.00  0.00    -0.377 OA
ATOM     65  H   UNL     1     152.995 163.895 187.864  0.00  0.00    +0.211 HD
ENDBRANCH  15  64
BRANCH   6  66
ATOM     66  O   UNL     1     148.816 168.797 185.968  0.00  0.00    -0.387 OA
ATOM     67  H   UNL     1     148.601 168.467 185.078  0.00  0.00    +0.210 HD
ENDBRANCH   6  66
BRANCH  12  68
ATOM     68  O   UNL     1     150.344 167.892 190.825  0.00  0.00    -0.456 OA
BRANCH  68  69
ATOM     69  C   UNL     1     150.339 168.206 192.147  0.00  0.00    +0.305 C 
ATOM     70  O   UNL     1     149.877 167.518 193.045  0.00  0.00    -0.251 OA
BRANCH  69  71
ATOM     71  C   UNL     1     150.962 169.553 192.351  0.00  0.00    +0.033 C 
ATOM     72  H   UNL     1     151.665 169.505 193.187  0.00  0.00    +0.034 HD
ATOM     73  H   UNL     1     151.512 169.849 191.453  0.00  0.00    +0.034 HD
ATOM     74  H   UNL     1     150.187 170.288 192.586  0.00  0.00    +0.034 HD
ENDBRANCH  69  71
ENDBRANCH  68  69
ENDBRANCH  12  68
TORSDOF 10
ENDMDL
MODEL 6
REMARK VINA RESULT:      -6.4     10.014     13.318
REMARK  Name = Cytochalasin D_conf3
REMARK  10 active torsions:
REMARK  status: ('A' for Active; 'I' for Inactive)
REMARK    1  A    between atoms: C_1  and  C_2
REMARK    2  A    between atoms: C_7  and  O_37
REMARK    3  A    between atoms: C_10  and  C_36
REMARK    4  A    between atoms: C_13  and  O_21
REMARK    5  A    between atoms: C_16  and  C_19
REMARK    6  A    between atoms: C_16  and  O_20
REMARK    7  A    between atoms: O_21  and  C_22
REMARK    8  A    between atoms: C_22  and  C_24
REMARK    9  A    between atoms: C_28  and  C_29
REMARK   10  A    between atoms: C_29  and  C_30
REMARK                            x       y       z     vdW  Elec       q    Type
REMARK                         _______ _______ _______ _____ _____    ______ ____
ROOT
ATOM      1  C   UNL     1     153.576 175.894 179.166  0.00  0.00    +0.021 C 
ATOM      2  C   UNL     1     154.689 176.152 180.193  0.00  0.00    -0.025 C 
ATOM      3  C   UNL     1     155.701 175.044 180.329  0.00  0.00    -0.087 C 
ATOM      4  C   UNL     1     156.114 174.584 181.525  0.00  0.00    -0.081 C 
ATOM      5  C   UNL     1     157.079 173.417 181.741  0.00  0.00    +0.025 C 
ATOM      6  C   UNL     1     158.417 174.010 182.284  0.00  0.00    +0.084 C 
ATOM      7  C   UNL     1     159.366 172.972 182.835  0.00  0.00    -0.045 C 
ATOM      8  C   UNL     1     160.342 173.316 183.693  0.00  0.00    -0.097 C 
ATOM      9  C   UNL     1     159.080 171.571 182.351  0.00  0.00    -0.015 C 
ATOM     10  C   UNL     1     157.684 171.126 182.865  0.00  0.00    +0.002 C 
ATOM     11  C   UNL     1     156.558 172.236 182.646  0.00  0.00    +0.101 C 
ATOM     12  C   UNL     1     155.254 171.536 182.126  0.00  0.00    +0.136 C 
ATOM     13  C   UNL     1     154.065 172.456 181.916  0.00  0.00    -0.044 C 
ATOM     14  C   UNL     1     153.467 172.715 180.737  0.00  0.00    -0.046 C 
ATOM     15  C   UNL     1     152.453 173.797 180.421  0.00  0.00    +0.139 C 
ATOM     16  C   UNL     1     152.979 174.487 179.123  0.00  0.00    +0.171 C 
ATOM     17  O   UNL     1     152.937 173.896 178.033  0.00  0.00    -0.294 OA
ATOM     18  C   UNL     1     156.303 172.716 184.068  0.00  0.00    +0.224 C 
ATOM     19  O   UNL     1     155.654 173.691 184.409  0.00  0.00    -0.275 OA
ATOM     20  N   UNL     1     156.894 171.869 184.961  0.00  0.00    -0.311 N 
ATOM     21  C   UNL     1     157.645 170.792 184.378  0.00  0.00    +0.032 C 
ATOM     22  H   UNL     1     154.038 176.031 178.175  0.00  0.00    +0.038 HD
ATOM     23  H   UNL     1     154.253 176.393 181.170  0.00  0.00    +0.031 HD
ATOM     24  H   UNL     1     155.232 177.056 179.885  0.00  0.00    +0.031 HD
ATOM     25  H   UNL     1     156.080 174.597 179.412  0.00  0.00    +0.057 HD
ATOM     26  H   UNL     1     155.743 175.071 182.427  0.00  0.00    +0.057 HD
ATOM     27  H   UNL     1     157.279 172.994 180.746  0.00  0.00    +0.038 HD
ATOM     28  H   UNL     1     158.217 174.765 183.057  0.00  0.00    +0.065 HD
ATOM     29  H   UNL     1     160.487 174.352 183.986  0.00  0.00    +0.054 HD
ATOM     30  H   UNL     1     161.039 172.597 184.109  0.00  0.00    +0.054 HD
ATOM     31  H   UNL     1     159.020 171.625 181.254  0.00  0.00    +0.035 HD
ATOM     32  H   UNL     1     157.445 170.222 182.294  0.00  0.00    +0.034 HD
ATOM     33  H   UNL     1     154.935 170.796 182.869  0.00  0.00    +0.079 HD
ATOM     34  H   UNL     1     153.727 172.972 182.812  0.00  0.00    +0.061 HD
ATOM     35  H   UNL     1     153.795 172.160 179.856  0.00  0.00    +0.060 HD
ATOM     36  H   UNL     1     156.830 172.054 185.956  0.00  0.00    +0.149 HD
ATOM     37  H   UNL     1     158.634 170.845 184.840  0.00  0.00    +0.050 HD
ENDROOT
BRANCH   1  38
ATOM     38  C   UNL     1     152.461 176.933 179.271  0.00  0.00    -0.055 C 
ATOM     39  H   UNL     1     152.594 177.560 180.159  0.00  0.00    +0.024 HD
ATOM     40  H   UNL     1     151.484 176.445 179.344  0.00  0.00    +0.024 HD
ATOM     41  H   UNL     1     152.440 177.597 178.401  0.00  0.00    +0.024 HD
ENDBRANCH   1  38
BRANCH  15  42
ATOM     42  C   UNL     1     151.090 173.170 180.125  0.00  0.00    -0.025 C 
ATOM     43  H   UNL     1     150.875 173.122 179.051  0.00  0.00    +0.026 HD
ATOM     44  H   UNL     1     150.289 173.748 180.600  0.00  0.00    +0.026 HD
ATOM     45  H   UNL     1     151.028 172.153 180.532  0.00  0.00    +0.026 HD
ENDBRANCH  15  42
BRANCH   9  46
ATOM     46  C   UNL     1     160.177 170.528 182.605  0.00  0.00    -0.058 C 
ATOM     47  H   UNL     1     161.070 171.006 183.023  0.00  0.00    +0.024 HD
ATOM     48  H   UNL     1     160.475 169.988 181.703  0.00  0.00    +0.024 HD
ATOM     49  H   UNL     1     159.835 169.784 183.334  0.00  0.00    +0.024 HD
ENDBRANCH   9  46
BRANCH  21  50
ATOM     50  C   UNL     1     156.997 169.435 184.717  0.00  0.00    -0.009 C 
ATOM     51  H   UNL     1     156.510 169.498 185.701  0.00  0.00    +0.033 HD
ATOM     52  H   UNL     1     156.186 169.209 184.015  0.00  0.00    +0.033 HD
BRANCH  50  53
ATOM     53  C   UNL     1     157.978 168.289 184.767  0.00  0.00    -0.046 A 
ATOM     54  C   UNL     1     157.728 167.109 184.056  0.00  0.00    -0.059 A 
ATOM     55  C   UNL     1     158.641 166.053 184.092  0.00  0.00    -0.062 A 
ATOM     56  C   UNL     1     159.808 166.163 184.844  0.00  0.00    -0.062 A 
ATOM     57  C   UNL     1     160.060 167.327 185.568  0.00  0.00    -0.062 A 
ATOM     58  C   UNL     1     159.148 168.383 185.534  0.00  0.00    -0.059 A 
ATOM     59  H   UNL     1     156.816 166.995 183.474  0.00  0.00    +0.062 HD
ATOM     60  H   UNL     1     158.436 165.140 183.537  0.00  0.00    +0.062 HD
ATOM     61  H   UNL     1     160.515 165.340 184.874  0.00  0.00    +0.062 HD
ATOM     62  H   UNL     1     160.966 167.410 186.163  0.00  0.00    +0.062 HD
ATOM     63  H   UNL     1     159.359 169.280 186.112  0.00  0.00    +0.062 HD
ENDBRANCH  50  53
ENDBRANCH  21  50
BRANCH  15  64
ATOM     64  O   UNL     1     152.263 174.672 181.520  0.00  0.00    -0.377 OA
ATOM     65  H   UNL     1     152.906 174.440 182.208  0.00  0.00    +0.211 HD
ENDBRANCH  15  64
BRANCH   6  66
ATOM     66  O   UNL     1     159.109 174.658 181.214  0.00  0.00    -0.387 OA
ATOM     67  H   UNL     1     158.429 175.015 180.617  0.00  0.00    +0.210 HD
ENDBRANCH   6  66
BRANCH  12  68
ATOM     68  O   UNL     1     155.577 170.896 180.869  0.00  0.00    -0.456 OA
BRANCH  68  69
ATOM     69  C   UNL     1     154.985 169.699 180.612  0.00  0.00    +0.305 C 
ATOM     70  O   UNL     1     154.431 169.385 179.570  0.00  0.00    -0.251 OA
BRANCH  69  71
ATOM     71  C   UNL     1     155.082 168.815 181.818  0.00  0.00    +0.033 C 
ATOM     72  H   UNL     1     155.318 167.795 181.502  0.00  0.00    +0.034 HD
ATOM     73  H   UNL     1     155.882 169.168 182.474  0.00  0.00    +0.034 HD
ATOM     74  H   UNL     1     154.126 168.807 182.348  0.00  0.00    +0.034 HD
ENDBRANCH  69  71
ENDBRANCH  68  69
ENDBRANCH  12  68
TORSDOF 10
ENDMDL
MODEL 7
REMARK VINA RESULT:      -6.4     18.683     22.501
REMARK  Name = Cytochalasin D_conf3
REMARK  10 active torsions:
REMARK  status: ('A' for Active; 'I' for Inactive)
REMARK    1  A    between atoms: C_1  and  C_2
REMARK    2  A    between atoms: C_7  and  O_37
REMARK    3  A    between atoms: C_10  and  C_36
REMARK    4  A    between atoms: C_13  and  O_21
REMARK    5  A    between atoms: C_16  and  C_19
REMARK    6  A    between atoms: C_16  and  O_20
REMARK    7  A    between atoms: O_21  and  C_22
REMARK    8  A    between atoms: C_22  and  C_24
REMARK    9  A    between atoms: C_28  and  C_29
REMARK   10  A    between atoms: C_29  and  C_30
REMARK                            x       y       z     vdW  Elec       q    Type
REMARK                         _______ _______ _______ _____ _____    ______ ____
ROOT
ATOM      1  C   UNL     1     130.493 159.888 200.476  0.00  0.00    +0.021 C 
ATOM      2  C   UNL     1     130.260 158.958 199.275  0.00  0.00    -0.025 C 
ATOM      3  C   UNL     1     131.059 157.681 199.290  0.00  0.00    -0.087 C 
ATOM      4  C   UNL     1     131.716 157.226 198.208  0.00  0.00    -0.081 C 
ATOM      5  C   UNL     1     132.606 155.982 198.169  0.00  0.00    +0.025 C 
ATOM      6  C   UNL     1     131.866 154.905 197.314  0.00  0.00    +0.084 C 
ATOM      7  C   UNL     1     132.734 153.733 196.924  0.00  0.00    -0.045 C 
ATOM      8  C   UNL     1     132.408 152.949 195.881  0.00  0.00    -0.097 C 
ATOM      9  C   UNL     1     133.964 153.575 197.785  0.00  0.00    -0.015 C 
ATOM     10  C   UNL     1     134.883 154.813 197.598  0.00  0.00    +0.002 C 
ATOM     11  C   UNL     1     134.088 156.196 197.677  0.00  0.00    +0.101 C 
ATOM     12  C   UNL     1     134.923 157.210 198.531  0.00  0.00    +0.136 C 
ATOM     13  C   UNL     1     134.323 158.598 198.659  0.00  0.00    -0.044 C 
ATOM     14  C   UNL     1     133.903 159.174 199.802  0.00  0.00    -0.046 C 
ATOM     15  C   UNL     1     133.077 160.435 199.966  0.00  0.00    +0.139 C 
ATOM     16  C   UNL     1     131.935 160.053 200.959  0.00  0.00    +0.171 C 
ATOM     17  O   UNL     1     132.181 159.858 202.160  0.00  0.00    -0.294 OA
ATOM     18  C   UNL     1     134.115 156.661 196.228  0.00  0.00    +0.224 C 
ATOM     19  O   UNL     1     133.480 157.582 195.741  0.00  0.00    -0.275 OA
ATOM     20  N   UNL     1     134.998 155.907 195.510  0.00  0.00    -0.311 N 
ATOM     21  C   UNL     1     135.632 154.845 196.241  0.00  0.00    +0.032 C 
ATOM     22  H   UNL     1     129.966 159.426 201.326  0.00  0.00    +0.038 HD
ATOM     23  H   UNL     1     130.427 159.502 198.338  0.00  0.00    +0.031 HD
ATOM     24  H   UNL     1     129.197 158.680 199.263  0.00  0.00    +0.031 HD
ATOM     25  H   UNL     1     131.113 157.136 200.231  0.00  0.00    +0.057 HD
ATOM     26  H   UNL     1     131.620 157.774 197.271  0.00  0.00    +0.057 HD
ATOM     27  H   UNL     1     132.661 155.610 199.202  0.00  0.00    +0.038 HD
ATOM     28  H   UNL     1     131.440 155.359 196.408  0.00  0.00    +0.065 HD
ATOM     29  H   UNL     1     131.498 153.125 195.315  0.00  0.00    +0.054 HD
ATOM     30  H   UNL     1     133.010 152.101 195.572  0.00  0.00    +0.054 HD
ATOM     31  H   UNL     1     133.618 153.583 198.829  0.00  0.00    +0.035 HD
ATOM     32  H   UNL     1     135.616 154.749 198.409  0.00  0.00    +0.034 HD
ATOM     33  H   UNL     1     135.901 157.347 198.054  0.00  0.00    +0.079 HD
ATOM     34  H   UNL     1     134.188 159.123 197.715  0.00  0.00    +0.061 HD
ATOM     35  H   UNL     1     134.080 158.649 200.743  0.00  0.00    +0.060 HD
ATOM     36  H   UNL     1     135.126 156.080 194.519  0.00  0.00    +0.149 HD
ATOM     37  H   UNL     1     135.458 153.942 195.651  0.00  0.00    +0.050 HD
ENDROOT
BRANCH   1  38
ATOM     38  C   UNL     1     129.853 161.257 200.262  0.00  0.00    -0.055 C 
ATOM     39  H   UNL     1     128.760 161.189 200.303  0.00  0.00    +0.024 HD
ATOM     40  H   UNL     1     130.130 161.664 199.284  0.00  0.00    +0.024 HD
ATOM     41  H   UNL     1     130.166 161.977 201.025  0.00  0.00    +0.024 HD
ENDBRANCH   1  38
BRANCH  15  42
ATOM     42  C   UNL     1     133.925 161.541 200.597  0.00  0.00    -0.025 C 
ATOM     43  H   UNL     1     133.539 161.861 201.571  0.00  0.00    +0.026 HD
ATOM     44  H   UNL     1     133.956 162.421 199.944  0.00  0.00    +0.026 HD
ATOM     45  H   UNL     1     134.963 161.213 200.731  0.00  0.00    +0.026 HD
ENDBRANCH  15  42
BRANCH   9  46
ATOM     46  C   UNL     1     134.715 152.243 197.659  0.00  0.00    -0.058 C 
ATOM     47  H   UNL     1     134.186 151.568 196.979  0.00  0.00    +0.024 HD
ATOM     48  H   UNL     1     134.840 151.727 198.615  0.00  0.00    +0.024 HD
ATOM     49  H   UNL     1     135.716 152.406 197.243  0.00  0.00    +0.024 HD
ENDBRANCH   9  46
BRANCH  21  50
ATOM     50  C   UNL     1     137.148 155.097 196.353  0.00  0.00    -0.009 C 
ATOM     51  H   UNL     1     137.381 156.103 195.977  0.00  0.00    +0.033 HD
ATOM     52  H   UNL     1     137.461 155.109 197.404  0.00  0.00    +0.033 HD
BRANCH  50  53
ATOM     53  C   UNL     1     137.986 154.113 195.572  0.00  0.00    -0.046 A 
ATOM     54  C   UNL     1     139.295 154.437 195.193  0.00  0.00    -0.059 A 
ATOM     55  C   UNL     1     140.074 153.524 194.481  0.00  0.00    -0.062 A 
ATOM     56  C   UNL     1     139.550 152.281 194.133  0.00  0.00    -0.062 A 
ATOM     57  C   UNL     1     138.244 151.953 194.491  0.00  0.00    -0.062 A 
ATOM     58  C   UNL     1     137.464 152.865 195.202  0.00  0.00    -0.059 A 
ATOM     59  H   UNL     1     139.718 155.409 195.441  0.00  0.00    +0.062 HD
ATOM     60  H   UNL     1     141.088 153.788 194.190  0.00  0.00    +0.062 HD
ATOM     61  H   UNL     1     140.156 151.573 193.576  0.00  0.00    +0.062 HD
ATOM     62  H   UNL     1     137.832 150.987 194.212  0.00  0.00    +0.062 HD
ATOM     63  H   UNL     1     136.444 152.593 195.465  0.00  0.00    +0.062 HD
ENDBRANCH  50  53
ENDBRANCH  21  50
BRANCH  15  64
ATOM     64  O   UNL     1     132.631 160.933 198.716  0.00  0.00    -0.377 OA
ATOM     65  H   UNL     1     132.205 161.792 198.866  0.00  0.00    +0.211 HD
ENDBRANCH  15  64
BRANCH   6  66
ATOM     66  O   UNL     1     130.784 154.365 198.077  0.00  0.00    -0.387 OA
ATOM     67  H   UNL     1     131.157 154.088 198.932  0.00  0.00    +0.210 HD
ENDBRANCH   6  66
BRANCH  12  68
ATOM     68  O   UNL     1     135.074 156.643 199.855  0.00  0.00    -0.456 OA
BRANCH  68  69
ATOM     69  C   UNL     1     136.338 156.526 200.340  0.00  0.00    +0.305 C 
ATOM     70  O   UNL     1     137.114 157.448 200.543  0.00  0.00    -0.251 OA
BRANCH  69  71
ATOM     71  C   UNL     1     136.664 155.082 200.567  0.00  0.00    +0.033 C 
ATOM     72  H   UNL     1     136.354 154.793 201.574  0.00  0.00    +0.034 HD
ATOM     73  H   UNL     1     136.123 154.462 199.847  0.00  0.00    +0.034 HD
ATOM     74  H   UNL     1     137.743 154.927 200.473  0.00  0.00    +0.034 HD
ENDBRANCH  69  71
ENDBRANCH  68  69
ENDBRANCH  12  68
TORSDOF 10
ENDMDL
MODEL 8
REMARK VINA RESULT:      -6.3     10.106     12.932
REMARK  Name = Cytochalasin D_conf3
REMARK  10 active torsions:
REMARK  status: ('A' for Active; 'I' for Inactive)
REMARK    1  A    between atoms: C_1  and  C_2
REMARK    2  A    between atoms: C_7  and  O_37
REMARK    3  A    between atoms: C_10  and  C_36
REMARK    4  A    between atoms: C_13  and  O_21
REMARK    5  A    between atoms: C_16  and  C_19
REMARK    6  A    between atoms: C_16  and  O_20
REMARK    7  A    between atoms: O_21  and  C_22
REMARK    8  A    between atoms: C_22  and  C_24
REMARK    9  A    between atoms: C_28  and  C_29
REMARK   10  A    between atoms: C_29  and  C_30
REMARK                            x       y       z     vdW  Elec       q    Type
REMARK                         _______ _______ _______ _____ _____    ______ ____
ROOT
ATOM      1  C   UNL     1     164.011 169.240 181.050  0.00  0.00    +0.021 C 
ATOM      2  C   UNL     1     162.926 168.473 181.821  0.00  0.00    -0.025 C 
ATOM      3  C   UNL     1     161.509 168.826 181.451  0.00  0.00    -0.087 C 
ATOM      4  C   UNL     1     160.556 169.055 182.374  0.00  0.00    -0.081 C 
ATOM      5  C   UNL     1     159.120 169.490 182.077  0.00  0.00    +0.025 C 
ATOM      6  C   UNL     1     158.187 168.286 182.419  0.00  0.00    +0.084 C 
ATOM      7  C   UNL     1     156.721 168.647 182.471  0.00  0.00    -0.045 C 
ATOM      8  C   UNL     1     155.843 167.873 183.135  0.00  0.00    -0.097 C 
ATOM      9  C   UNL     1     156.384 169.929 181.749  0.00  0.00    -0.015 C 
ATOM     10  C   UNL     1     157.096 171.116 182.453  0.00  0.00    +0.002 C 
ATOM     11  C   UNL     1     158.633 170.819 182.772  0.00  0.00    +0.101 C 
ATOM     12  C   UNL     1     159.476 172.092 182.419  0.00  0.00    +0.136 C 
ATOM     13  C   UNL     1     160.961 171.988 182.715  0.00  0.00    -0.044 C 
ATOM     14  C   UNL     1     161.952 172.030 181.804  0.00  0.00    -0.046 C 
ATOM     15  C   UNL     1     163.417 171.685 181.998  0.00  0.00    +0.139 C 
ATOM     16  C   UNL     1     163.775 170.733 180.815  0.00  0.00    +0.171 C 
ATOM     17  O   UNL     1     163.859 171.168 179.656  0.00  0.00    -0.294 OA
ATOM     18  C   UNL     1     158.619 170.663 184.286  0.00  0.00    +0.224 C 
ATOM     19  O   UNL     1     159.525 170.248 184.989  0.00  0.00    -0.275 OA
ATOM     20  N   UNL     1     157.425 171.091 184.790  0.00  0.00    -0.311 N 
ATOM     21  C   UNL     1     156.464 171.517 183.810  0.00  0.00    +0.032 C 
ATOM     22  H   UNL     1     164.036 168.800 180.040  0.00  0.00    +0.038 HD
ATOM     23  H   UNL     1     163.079 168.585 182.901  0.00  0.00    +0.031 HD
ATOM     24  H   UNL     1     163.060 167.401 181.619  0.00  0.00    +0.031 HD
ATOM     25  H   UNL     1     161.276 168.919 180.392  0.00  0.00    +0.057 HD
ATOM     26  H   UNL     1     160.808 168.925 183.426  0.00  0.00    +0.057 HD
ATOM     27  H   UNL     1     159.067 169.658 180.991  0.00  0.00    +0.038 HD
ATOM     28  H   UNL     1     158.482 167.829 183.373  0.00  0.00    +0.065 HD
ATOM     29  H   UNL     1     156.166 166.958 183.624  0.00  0.00    +0.054 HD
ATOM     30  H   UNL     1     154.785 168.103 183.195  0.00  0.00    +0.054 HD
ATOM     31  H   UNL     1     156.816 169.843 180.741  0.00  0.00    +0.035 HD
ATOM     32  H   UNL     1     157.007 171.956 181.756  0.00  0.00    +0.034 HD
ATOM     33  H   UNL     1     159.107 172.933 183.018  0.00  0.00    +0.079 HD
ATOM     34  H   UNL     1     161.204 171.813 183.762  0.00  0.00    +0.061 HD
ATOM     35  H   UNL     1     161.693 172.242 180.765  0.00  0.00    +0.060 HD
ATOM     36  H   UNL     1     157.247 171.042 185.788  0.00  0.00    +0.149 HD
ATOM     37  H   UNL     1     155.556 170.949 184.029  0.00  0.00    +0.050 HD
ENDROOT
BRANCH   1  38
ATOM     38  C   UNL     1     165.396 169.017 181.654  0.00  0.00    -0.055 C 
ATOM     39  H   UNL     1     165.822 168.067 181.315  0.00  0.00    +0.024 HD
ATOM     40  H   UNL     1     165.341 168.993 182.747  0.00  0.00    +0.024 HD
ATOM     41  H   UNL     1     166.095 169.810 181.371  0.00  0.00    +0.024 HD
ENDBRANCH   1  38
BRANCH  15  42
ATOM     42  C   UNL     1     164.272 172.949 181.887  0.00  0.00    -0.025 C 
ATOM     43  H   UNL     1     164.316 173.510 182.827  0.00  0.00    +0.026 HD
ATOM     44  H   UNL     1     163.871 173.617 181.116  0.00  0.00    +0.026 HD
ATOM     45  H   UNL     1     165.298 172.704 181.586  0.00  0.00    +0.026 HD
ENDBRANCH  15  42
BRANCH   9  46
ATOM     46  C   UNL     1     154.895 170.190 181.487  0.00  0.00    -0.058 C 
ATOM     47  H   UNL     1     154.566 171.092 182.014  0.00  0.00    +0.024 HD
ATOM     48  H   UNL     1     154.251 169.363 181.799  0.00  0.00    +0.024 HD
ATOM     49  H   UNL     1     154.718 170.355 180.418  0.00  0.00    +0.024 HD
ENDBRANCH   9  46
BRANCH  21  50
ATOM     50  C   UNL     1     156.171 173.023 183.960  0.00  0.00    -0.009 C 
ATOM     51  H   UNL     1     155.670 173.204 184.922  0.00  0.00    +0.033 HD
ATOM     52  H   UNL     1     157.105 173.593 184.016  0.00  0.00    +0.033 HD
BRANCH  50  53
ATOM     53  C   UNL     1     155.284 173.579 182.872  0.00  0.00    -0.046 A 
ATOM     54  C   UNL     1     155.799 174.472 181.923  0.00  0.00    -0.059 A 
ATOM     55  C   UNL     1     154.983 174.978 180.910  0.00  0.00    -0.062 A 
ATOM     56  C   UNL     1     153.643 174.603 180.839  0.00  0.00    -0.062 A 
ATOM     57  C   UNL     1     153.116 173.727 181.787  0.00  0.00    -0.062 A 
ATOM     58  C   UNL     1     153.931 173.221 182.800  0.00  0.00    -0.059 A 
ATOM     59  H   UNL     1     156.839 174.790 181.969  0.00  0.00    +0.062 HD
ATOM     60  H   UNL     1     155.393 175.672 180.180  0.00  0.00    +0.062 HD
ATOM     61  H   UNL     1     153.009 174.999 180.052  0.00  0.00    +0.062 HD
ATOM     62  H   UNL     1     152.069 173.442 181.738  0.00  0.00    +0.062 HD
ATOM     63  H   UNL     1     153.499 172.546 183.535  0.00  0.00    +0.062 HD
ENDBRANCH  50  53
ENDBRANCH  21  50
BRANCH  15  64
ATOM     64  O   UNL     1     163.660 171.147 183.286  0.00  0.00    -0.377 OA
ATOM     65  H   UNL     1     164.453 171.572 183.649  0.00  0.00    +0.211 HD
ENDBRANCH  15  64
BRANCH   6  66
ATOM     66  O   UNL     1     158.318 167.290 181.402  0.00  0.00    -0.387 OA
ATOM     67  H   UNL     1     158.632 167.747 180.602  0.00  0.00    +0.210 HD
ENDBRANCH   6  66
BRANCH  12  68
ATOM     68  O   UNL     1     159.299 172.353 181.006  0.00  0.00    -0.456 OA
BRANCH  68  69
ATOM     69  C   UNL     1     158.940 173.614 180.648  0.00  0.00    +0.305 C 
ATOM     70  O   UNL     1     159.023 174.609 181.353  0.00  0.00    -0.251 OA
BRANCH  69  71
ATOM     71  C   UNL     1     158.391 173.609 179.254  0.00  0.00    +0.033 C 
ATOM     72  H   UNL     1     157.472 173.018 179.229  0.00  0.00    +0.034 HD
ATOM     73  H   UNL     1     158.154 174.630 178.945  0.00  0.00    +0.034 HD
ATOM     74  H   UNL     1     159.118 173.159 178.572  0.00  0.00    +0.034 HD
ENDBRANCH  69  71
ENDBRANCH  68  69
ENDBRANCH  12  68
TORSDOF 10
ENDMDL
MODEL 9
REMARK VINA RESULT:      -6.3     11.039     15.334
REMARK  Name = Cytochalasin D_conf3
REMARK  10 active torsions:
REMARK  status: ('A' for Active; 'I' for Inactive)
REMARK    1  A    between atoms: C_1  and  C_2
REMARK    2  A    between atoms: C_7  and  O_37
REMARK    3  A    between atoms: C_10  and  C_36
REMARK    4  A    between atoms: C_13  and  O_21
REMARK    5  A    between atoms: C_16  and  C_19
REMARK    6  A    between atoms: C_16  and  O_20
REMARK    7  A    between atoms: O_21  and  C_22
REMARK    8  A    between atoms: C_22  and  C_24
REMARK    9  A    between atoms: C_28  and  C_29
REMARK   10  A    between atoms: C_29  and  C_30
REMARK                            x       y       z     vdW  Elec       q    Type
REMARK                         _______ _______ _______ _____ _____    ______ ____
ROOT
ATOM      1  C   UNL     1     153.253 176.535 176.477  0.00  0.00    +0.021 C 
ATOM      2  C   UNL     1     154.776 176.356 176.376  0.00  0.00    -0.025 C 
ATOM      3  C   UNL     1     155.325 175.144 177.082  0.00  0.00    -0.087 C 
ATOM      4  C   UNL     1     156.414 175.196 177.870  0.00  0.00    -0.081 C 
ATOM      5  C   UNL     1     156.984 174.027 178.675  0.00  0.00    +0.025 C 
ATOM      6  C   UNL     1     158.337 173.618 178.011  0.00  0.00    +0.084 C 
ATOM      7  C   UNL     1     159.173 172.686 178.855  0.00  0.00    -0.045 C 
ATOM      8  C   UNL     1     160.496 172.566 178.648  0.00  0.00    -0.097 C 
ATOM      9  C   UNL     1     158.387 171.964 179.924  0.00  0.00    -0.015 C 
ATOM     10  C   UNL     1     157.827 173.000 180.936  0.00  0.00    +0.002 C 
ATOM     11  C   UNL     1     157.144 174.257 180.226  0.00  0.00    +0.101 C 
ATOM     12  C   UNL     1     155.813 174.600 180.980  0.00  0.00    +0.136 C 
ATOM     13  C   UNL     1     155.065 175.812 180.455  0.00  0.00    -0.044 C 
ATOM     14  C   UNL     1     153.838 175.801 179.899  0.00  0.00    -0.046 C 
ATOM     15  C   UNL     1     153.147 176.916 179.138  0.00  0.00    +0.139 C 
ATOM     16  C   UNL     1     152.607 176.249 177.834  0.00  0.00    +0.171 C 
ATOM     17  O   UNL     1     151.651 175.460 177.876  0.00  0.00    -0.294 OA
ATOM     18  C   UNL     1     158.148 175.366 180.508  0.00  0.00    +0.224 C 
ATOM     19  O   UNL     1     158.166 176.482 180.015  0.00  0.00    -0.275 OA
ATOM     20  N   UNL     1     159.053 174.953 181.443  0.00  0.00    -0.311 N 
ATOM     21  C   UNL     1     158.897 173.596 181.887  0.00  0.00    +0.032 C 
ATOM     22  H   UNL     1     152.813 175.790 175.796  0.00  0.00    +0.038 HD
ATOM     23  H   UNL     1     155.287 177.263 176.721  0.00  0.00    +0.031 HD
ATOM     24  H   UNL     1     155.036 176.263 175.312  0.00  0.00    +0.031 HD
ATOM     25  H   UNL     1     154.788 174.205 176.954  0.00  0.00    +0.057 HD
ATOM     26  H   UNL     1     156.950 176.141 177.955  0.00  0.00    +0.057 HD
ATOM     27  H   UNL     1     156.280 173.192 178.545  0.00  0.00    +0.038 HD
ATOM     28  H   UNL     1     158.928 174.510 177.761  0.00  0.00    +0.065 HD
ATOM     29  H   UNL     1     160.987 173.117 177.849  0.00  0.00    +0.054 HD
ATOM     30  H   UNL     1     161.127 171.908 179.235  0.00  0.00    +0.054 HD
ATOM     31  H   UNL     1     157.524 171.504 179.421  0.00  0.00    +0.035 HD
ATOM     32  H   UNL     1     157.090 172.450 181.529  0.00  0.00    +0.034 HD
ATOM     33  H   UNL     1     156.052 174.823 182.027  0.00  0.00    +0.079 HD
ATOM     34  H   UNL     1     155.623 176.745 180.502  0.00  0.00    +0.061 HD
ATOM     35  H   UNL     1     153.279 174.863 179.894  0.00  0.00    +0.060 HD
ATOM     36  H   UNL     1     159.801 175.572 181.734  0.00  0.00    +0.149 HD
ATOM     37  H   UNL     1     159.877 173.131 181.752  0.00  0.00    +0.050 HD
ENDROOT
BRANCH   1  38
ATOM     38  C   UNL     1     152.812 177.905 175.965  0.00  0.00    -0.055 C 
ATOM     39  H   UNL     1     151.969 177.809 175.271  0.00  0.00    +0.024 HD
ATOM     40  H   UNL     1     153.631 178.402 175.437  0.00  0.00    +0.024 HD
ATOM     41  H   UNL     1     152.492 178.560 176.781  0.00  0.00    +0.024 HD
ENDBRANCH   1  38
BRANCH  15  42
ATOM     42  C   UNL     1     151.960 177.446 179.944  0.00  0.00    -0.025 C 
ATOM     43  H   UNL     1     150.996 177.148 179.517  0.00  0.00    +0.026 HD
ATOM     44  H   UNL     1     151.983 178.541 179.987  0.00  0.00    +0.026 HD
ATOM     45  H   UNL     1     151.999 177.091 180.981  0.00  0.00    +0.026 HD
ENDBRANCH  15  42
BRANCH   9  46
ATOM     46  C   UNL     1     159.090 170.780 180.601  0.00  0.00    -0.058 C 
ATOM     47  H   UNL     1     158.401 170.259 181.274  0.00  0.00    +0.024 HD
ATOM     48  H   UNL     1     159.969 171.075 181.181  0.00  0.00    +0.024 HD
ATOM     49  H   UNL     1     159.423 170.053 179.851  0.00  0.00    +0.024 HD
ENDBRANCH   9  46
BRANCH  21  50
ATOM     50  C   UNL     1     158.517 173.557 183.381  0.00  0.00    -0.009 C 
ATOM     51  H   UNL     1     159.232 174.162 183.956  0.00  0.00    +0.033 HD
ATOM     52  H   UNL     1     157.545 174.037 183.544  0.00  0.00    +0.033 HD
BRANCH  50  53
ATOM     53  C   UNL     1     158.518 172.167 183.971  0.00  0.00    -0.046 A 
ATOM     54  C   UNL     1     159.709 171.437 184.068  0.00  0.00    -0.059 A 
ATOM     55  C   UNL     1     159.713 170.157 184.624  0.00  0.00    -0.062 A 
ATOM     56  C   UNL     1     158.526 169.591 185.082  0.00  0.00    -0.062 A 
ATOM     57  C   UNL     1     157.332 170.301 184.978  0.00  0.00    -0.062 A 
ATOM     58  C   UNL     1     157.327 171.581 184.421  0.00  0.00    -0.059 A 
ATOM     59  H   UNL     1     160.646 171.855 183.702  0.00  0.00    +0.062 HD
ATOM     60  H   UNL     1     160.644 169.598 184.692  0.00  0.00    +0.062 HD
ATOM     61  H   UNL     1     158.530 168.593 185.512  0.00  0.00    +0.062 HD
ATOM     62  H   UNL     1     156.404 169.856 185.326  0.00  0.00    +0.062 HD
ATOM     63  H   UNL     1     156.383 172.116 184.340  0.00  0.00    +0.062 HD
ENDBRANCH  50  53
ENDBRANCH  21  50
BRANCH  15  64
ATOM     64  O   UNL     1     154.012 178.017 178.924  0.00  0.00    -0.377 OA
ATOM     65  H   UNL     1     154.274 178.371 179.789  0.00  0.00    +0.211 HD
ENDBRANCH  15  64
BRANCH   6  66
ATOM     66  O   UNL     1     158.067 172.921 176.793  0.00  0.00    -0.387 OA
ATOM     67  H   UNL     1     157.295 173.352 176.389  0.00  0.00    +0.210 HD
ENDBRANCH   6  66
BRANCH  12  68
ATOM     68  O   UNL     1     154.950 173.442 180.887  0.00  0.00    -0.456 OA
BRANCH  68  69
ATOM     69  C   UNL     1     154.659 172.790 182.043  0.00  0.00    +0.305 C 
ATOM     70  O   UNL     1     154.417 173.316 183.120  0.00  0.00    -0.251 OA
BRANCH  69  71
ATOM     71  C   UNL     1     154.707 171.310 181.818  0.00  0.00    +0.033 C 
ATOM     72  H   UNL     1     155.668 170.921 182.166  0.00  0.00    +0.034 HD
ATOM     73  H   UNL     1     153.910 170.821 182.385  0.00  0.00    +0.034 HD
ATOM     74  H   UNL     1     154.607 171.095 180.750  0.00  0.00    +0.034 HD
ENDBRANCH  69  71
ENDBRANCH  68  69
ENDBRANCH  12  68
TORSDOF 10
ENDMDL
MODEL 10
REMARK VINA RESULT:      -6.1     18.225     20.640
REMARK  Name = Cytochalasin D_conf3
REMARK  10 active torsions:
REMARK  status: ('A' for Active; 'I' for Inactive)
REMARK    1  A    between atoms: C_1  and  C_2
REMARK    2  A    between atoms: C_7  and  O_37
REMARK    3  A    between atoms: C_10  and  C_36
REMARK    4  A    between atoms: C_13  and  O_21
REMARK    5  A    between atoms: C_16  and  C_19
REMARK    6  A    between atoms: C_16  and  O_20
REMARK    7  A    between atoms: O_21  and  C_22
REMARK    8  A    between atoms: C_22  and  C_24
REMARK    9  A    between atoms: C_28  and  C_29
REMARK   10  A    between atoms: C_29  and  C_30
REMARK                            x       y       z     vdW  Elec       q    Type
REMARK                         _______ _______ _______ _____ _____    ______ ____
ROOT
ATOM      1  C   UNL     1     135.831 174.573 197.183  0.00  0.00    +0.021 C 
ATOM      2  C   UNL     1     136.224 176.057 197.108  0.00  0.00    -0.025 C 
ATOM      3  C   UNL     1     137.296 176.483 198.076  0.00  0.00    -0.087 C 
ATOM      4  C   UNL     1     137.201 177.604 198.816  0.00  0.00    -0.081 C 
ATOM      5  C   UNL     1     138.210 178.061 199.870  0.00  0.00    +0.025 C 
ATOM      6  C   UNL     1     138.935 179.324 199.306  0.00  0.00    +0.084 C 
ATOM      7  C   UNL     1     139.742 180.075 200.338  0.00  0.00    -0.045 C 
ATOM      8  C   UNL     1     140.078 181.363 200.148  0.00  0.00    -0.097 C 
ATOM      9  C   UNL     1     140.085 179.253 201.558  0.00  0.00    -0.015 C 
ATOM     10  C   UNL     1     138.775 178.868 202.300  0.00  0.00    +0.002 C 
ATOM     11  C   UNL     1     137.644 178.314 201.318  0.00  0.00    +0.101 C 
ATOM     12  C   UNL     1     136.964 177.069 201.985  0.00  0.00    +0.136 C 
ATOM     13  C   UNL     1     135.824 176.453 201.195  0.00  0.00    -0.044 C 
ATOM     14  C   UNL     1     135.807 175.211 200.673  0.00  0.00    -0.046 C 
ATOM     15  C   UNL     1     134.823 174.629 199.676  0.00  0.00    +0.139 C 
ATOM     16  C   UNL     1     135.703 173.956 198.576  0.00  0.00    +0.171 C 
ATOM     17  O   UNL     1     136.331 172.914 198.819  0.00  0.00    -0.294 OA
ATOM     18  C   UNL     1     136.639 179.458 201.314  0.00  0.00    +0.224 C 
ATOM     19  O   UNL     1     135.683 179.591 200.568  0.00  0.00    -0.275 OA
ATOM     20  N   UNL     1     136.933 180.344 202.310  0.00  0.00    -0.311 N 
ATOM     21  C   UNL     1     138.116 180.043 203.067  0.00  0.00    +0.032 C 
ATOM     22  H   UNL     1     136.653 174.017 196.705  0.00  0.00    +0.038 HD
ATOM     23  H   UNL     1     135.335 176.690 197.220  0.00  0.00    +0.031 HD
ATOM     24  H   UNL     1     136.598 176.258 196.094  0.00  0.00    +0.031 HD
ATOM     25  H   UNL     1     138.162 175.831 198.184  0.00  0.00    +0.057 HD
ATOM     26  H   UNL     1     136.339 178.255 198.665  0.00  0.00    +0.057 HD
ATOM     27  H   UNL     1     138.955 177.255 199.952  0.00  0.00    +0.038 HD
ATOM     28  H   UNL     1     138.212 180.008 198.843  0.00  0.00    +0.065 HD
ATOM     29  H   UNL     1     139.799 181.883 199.235  0.00  0.00    +0.054 HD
ATOM     30  H   UNL     1     140.654 181.933 200.869  0.00  0.00    +0.054 HD
ATOM     31  H   UNL     1     140.535 178.320 201.191  0.00  0.00    +0.035 HD
ATOM     32  H   UNL     1     139.070 178.095 203.016  0.00  0.00    +0.034 HD
ATOM     33  H   UNL     1     136.533 177.378 202.945  0.00  0.00    +0.079 HD
ATOM     34  H   UNL     1     134.986 177.122 201.010  0.00  0.00    +0.061 HD
ATOM     35  H   UNL     1     136.639 174.542 200.900  0.00  0.00    +0.060 HD
ATOM     36  H   UNL     1     136.365 181.175 202.435  0.00  0.00    +0.149 HD
ATOM     37  H   UNL     1     138.722 180.952 203.035  0.00  0.00    +0.050 HD
ENDROOT
BRANCH   1  38
ATOM     38  C   UNL     1     134.576 174.281 196.364  0.00  0.00    -0.055 C 
ATOM     39  H   UNL     1     134.025 175.204 196.151  0.00  0.00    +0.024 HD
ATOM     40  H   UNL     1     133.908 173.606 196.907  0.00  0.00    +0.024 HD
ATOM     41  H   UNL     1     134.816 173.814 195.404  0.00  0.00    +0.024 HD
ENDBRANCH   1  38
BRANCH  15  42
ATOM     42  C   UNL     1     133.970 173.552 200.347  0.00  0.00    -0.025 C 
ATOM     43  H   UNL     1     134.401 172.550 200.243  0.00  0.00    +0.026 HD
ATOM     44  H   UNL     1     132.965 173.531 199.910  0.00  0.00    +0.026 HD
ATOM     45  H   UNL     1     133.843 173.760 201.417  0.00  0.00    +0.026 HD
ENDBRANCH  15  42
BRANCH   9  46
ATOM     46  C   UNL     1     141.156 179.834 202.490  0.00  0.00    -0.058 C 
ATOM     47  H   UNL     1     142.134 179.831 201.997  0.00  0.00    +0.024 HD
ATOM     48  H   UNL     1     141.252 179.287 203.431  0.00  0.00    +0.024 HD
ATOM     49  H   UNL     1     140.922 180.876 202.740  0.00  0.00    +0.024 HD
ENDBRANCH   9  46
BRANCH  21  50
ATOM     50  C   UNL     1     137.752 179.726 204.532  0.00  0.00    -0.009 C 
ATOM     51  H   UNL     1     136.821 180.247 204.799  0.00  0.00    +0.033 HD
ATOM     52  H   UNL     1     137.523 178.660 204.650  0.00  0.00    +0.033 HD
BRANCH  50  53
ATOM     53  C   UNL     1     138.810 180.145 205.524  0.00  0.00    -0.046 A 
ATOM     54  C   UNL     1     138.710 181.371 206.193  0.00  0.00    -0.059 A 
ATOM     55  C   UNL     1     139.681 181.755 207.120  0.00  0.00    -0.062 A 
ATOM     56  C   UNL     1     140.765 180.921 207.381  0.00  0.00    -0.062 A 
ATOM     57  C   UNL     1     140.884 179.705 206.710  0.00  0.00    -0.062 A 
ATOM     58  C   UNL     1     139.914 179.321 205.783  0.00  0.00    -0.059 A 
ATOM     59  H   UNL     1     137.878 182.045 205.993  0.00  0.00    +0.062 HD
ATOM     60  H   UNL     1     139.594 182.711 207.632  0.00  0.00    +0.062 HD
ATOM     61  H   UNL     1     141.522 181.222 208.099  0.00  0.00    +0.062 HD
ATOM     62  H   UNL     1     141.735 179.058 206.906  0.00  0.00    +0.062 HD
ATOM     63  H   UNL     1     140.029 178.372 205.264  0.00  0.00    +0.062 HD
ENDBRANCH  50  53
ENDBRANCH  21  50
BRANCH  15  64
ATOM     64  O   UNL     1     133.925 175.613 199.194  0.00  0.00    -0.377 OA
ATOM     65  H   UNL     1     133.303 175.184 198.585  0.00  0.00    +0.211 HD
ENDBRANCH  15  64
BRANCH   6  66
ATOM     66  O   UNL     1     139.860 178.918 198.293  0.00  0.00    -0.387 OA
ATOM     67  H   UNL     1     139.440 179.114 197.438  0.00  0.00    +0.210 HD
ENDBRANCH   6  66
BRANCH  12  68
ATOM     68  O   UNL     1     137.990 176.068 202.183  0.00  0.00    -0.456 OA
BRANCH  68  69
ATOM     69  C   UNL     1     137.947 175.354 203.339  0.00  0.00    +0.305 C 
ATOM     70  O   UNL     1     137.321 174.320 203.518  0.00  0.00    -0.251 OA
BRANCH  69  71
ATOM     71  C   UNL     1     138.764 176.041 204.390  0.00  0.00    +0.033 C 
ATOM     72  H   UNL     1     138.653 177.123 204.287  0.00  0.00    +0.034 HD
ATOM     73  H   UNL     1     138.412 175.750 205.383  0.00  0.00    +0.034 HD
ATOM     74  H   UNL     1     139.819 175.782 204.266  0.00  0.00    +0.034 HD
ENDBRANCH  69  71
ENDBRANCH  68  69
ENDBRANCH  12  68
TORSDOF 10
ENDMDL
