MODEL 1
REMARK VINA RESULT:      -7.4      0.000      0.000
REMARK  Name = Jasplakinolide_conf2
REMARK  10 active torsions:
REMARK  status: ('A' for Active; 'I' for Inactive)
REMARK    1  A    between atoms: C_1  and  C_2
REMARK    2  A    between atoms: C_4  and  C_47
REMARK    3  A    between atoms: C_9  and  C_40
REMARK    4  A    between atoms: C_13  and  C_29
REMARK    5  A    between atoms: N_14  and  C_28
REMARK    6  A    between atoms: C_17  and  C_27
REMARK    7  A    between atoms: C_21  and  C_26
REMARK    8  A    between atoms: C_23  and  C_25
REMARK    9  A    between atoms: C_29  and  C_30
REMARK   10  A    between atoms: C_43  and  O_46
REMARK                            x       y       z     vdW  Elec       q    Type
REMARK                         _______ _______ _______ _____ _____    ______ ____
ROOT
ATOM      1  C   UNL     1     154.776 162.287 186.628  0.00  0.00    -0.022 C 
ATOM      2  C   UNL     1     153.643 163.060 185.930  0.00  0.00    -0.010 C 
ATOM      3  C   UNL     1     152.420 163.352 186.820  0.00  0.00    +0.101 C 
ATOM      4  O   UNL     1     151.610 164.303 186.091  0.00  0.00    -0.462 OA
ATOM      5  C   UNL     1     150.758 165.060 186.839  0.00  0.00    +0.309 C 
ATOM      6  O   UNL     1     150.583 164.933 188.042  0.00  0.00    -0.251 OA
ATOM      7  C   UNL     1     150.138 166.124 185.964  0.00  0.00    +0.067 C 
ATOM      8  C   UNL     1     148.863 166.709 186.581  0.00  0.00    +0.058 C 
ATOM      9  N   UNL     1     149.134 167.434 187.809  0.00  0.00    -0.306 N 
ATOM     10  C   UNL     1     148.232 167.477 188.855  0.00  0.00    +0.234 C 
ATOM     11  O   UNL     1     147.092 167.025 188.794  0.00  0.00    -0.274 OA
ATOM     12  C   UNL     1     148.850 168.035 190.148  0.00  0.00    +0.106 C 
ATOM     13  N   UNL     1     149.769 166.996 190.688  0.00  0.00    -0.291 N 
ATOM     14  C   UNL     1     151.124 167.110 190.379  0.00  0.00    +0.236 C 
ATOM     15  O   UNL     1     151.540 168.002 189.624  0.00  0.00    -0.274 OA
ATOM     16  C   UNL     1     152.121 166.115 191.019  0.00  0.00    +0.097 C 
ATOM     17  N   UNL     1     153.423 166.294 190.373  0.00  0.00    -0.304 N 
ATOM     18  C   UNL     1     154.407 165.334 190.408  0.00  0.00    +0.217 C 
ATOM     19  O   UNL     1     154.250 164.241 190.945  0.00  0.00    -0.275 OA
ATOM     20  C   UNL     1     155.734 165.795 189.812  0.00  0.00    +0.036 C 
ATOM     21  C   UNL     1     156.565 164.613 189.281  0.00  0.00    -0.021 C 
ATOM     22  C   UNL     1     156.098 164.115 187.919  0.00  0.00    -0.076 C 
ATOM     23  C   UNL     1     155.335 163.005 187.837  0.00  0.00    -0.082 C 
ATOM     24  H   UNL     1     154.352 161.349 187.008  0.00  0.00    +0.034 HD
ATOM     25  H   UNL     1     153.308 162.502 185.042  0.00  0.00    +0.031 HD
ATOM     26  H   UNL     1     154.021 164.011 185.534  0.00  0.00    +0.031 HD
ATOM     27  H   UNL     1     152.745 163.805 187.763  0.00  0.00    +0.073 HD
ATOM     28  H   UNL     1     149.895 165.669 184.995  0.00  0.00    +0.040 HD
ATOM     29  H   UNL     1     150.899 166.896 185.803  0.00  0.00    +0.040 HD
ATOM     30  H   UNL     1     148.205 165.867 186.839  0.00  0.00    +0.055 HD
ATOM     31  H   UNL     1     150.066 167.803 187.981  0.00  0.00    +0.149 HD
ATOM     32  H   UNL     1     149.445 168.907 189.852  0.00  0.00    +0.060 HD
ATOM     33  H   UNL     1     151.800 165.086 190.833  0.00  0.00    +0.059 HD
ATOM     34  H   UNL     1     153.542 167.145 189.836  0.00  0.00    +0.149 HD
ATOM     35  H   UNL     1     155.534 166.511 189.006  0.00  0.00    +0.039 HD
ATOM     36  H   UNL     1     157.618 164.907 189.187  0.00  0.00    +0.032 HD
ATOM     37  H   UNL     1     156.564 163.785 190.006  0.00  0.00    +0.032 HD
ATOM     38  H   UNL     1     155.057 162.524 188.779  0.00  0.00    +0.057 HD
ENDROOT
BRANCH   8  39
ATOM     39  C   UNL     1     148.130 167.616 185.604  0.00  0.00    -0.026 A 
ATOM     40  C   UNL     1     147.394 167.100 184.524  0.00  0.00    -0.053 A 
ATOM     41  C   UNL     1     146.731 167.957 183.643  0.00  0.00    -0.020 A 
ATOM     42  C   UNL     1     146.811 169.331 183.825  0.00  0.00    +0.117 A 
ATOM     43  C   UNL     1     147.550 169.867 184.872  0.00  0.00    -0.020 A 
ATOM     44  C   UNL     1     148.210 169.011 185.756  0.00  0.00    -0.053 A 
ATOM     45  H   UNL     1     147.336 166.030 184.349  0.00  0.00    +0.062 HD
ATOM     46  H   UNL     1     146.159 167.553 182.812  0.00  0.00    +0.065 HD
ATOM     47  H   UNL     1     147.632 170.940 185.014  0.00  0.00    +0.065 HD
ATOM     48  H   UNL     1     148.807 169.438 186.560  0.00  0.00    +0.062 HD
BRANCH  42  49
ATOM     49  O   UNL     1     146.151 170.128 182.937  0.00  0.00    -0.507 OA
ATOM     50  H   UNL     1     145.196 169.996 183.058  0.00  0.00    +0.292 HD
ENDBRANCH  42  49
ENDBRANCH   8  39
BRANCH   1  51
ATOM     51  C   UNL     1     155.859 161.857 185.634  0.00  0.00    -0.059 C 
ATOM     52  H   UNL     1     156.745 162.494 185.675  0.00  0.00    +0.024 HD
ATOM     53  H   UNL     1     155.475 161.909 184.610  0.00  0.00    +0.024 HD
ATOM     54  H   UNL     1     156.172 160.822 185.817  0.00  0.00    +0.024 HD
ENDBRANCH   1  51
BRANCH  22  55
ATOM     55  C   UNL     1     156.588 164.935 186.756  0.00  0.00    -0.044 C 
ATOM     56  H   UNL     1     156.775 164.297 185.885  0.00  0.00    +0.027 HD
ATOM     57  H   UNL     1     155.830 165.674 186.476  0.00  0.00    +0.027 HD
ATOM     58  H   UNL     1     157.520 165.461 186.957  0.00  0.00    +0.027 HD
ENDBRANCH  22  55
BRANCH  20  59
ATOM     59  C   UNL     1     156.502 166.530 190.914  0.00  0.00    -0.054 C 
ATOM     60  H   UNL     1     156.079 167.524 191.086  0.00  0.00    +0.024 HD
ATOM     61  H   UNL     1     157.561 166.646 190.653  0.00  0.00    +0.024 HD
ATOM     62  H   UNL     1     156.460 165.981 191.861  0.00  0.00    +0.024 HD
ENDBRANCH  20  59
BRANCH  16  63
ATOM     63  C   UNL     1     152.248 166.397 192.515  0.00  0.00    -0.038 C 
ATOM     64  H   UNL     1     151.506 165.849 193.104  0.00  0.00    +0.025 HD
ATOM     65  H   UNL     1     152.102 167.463 192.725  0.00  0.00    +0.025 HD
ATOM     66  H   UNL     1     153.242 166.121 192.885  0.00  0.00    +0.025 HD
ENDBRANCH  16  63
BRANCH  13  67
ATOM     67  C   UNL     1     149.181 165.728 191.118  0.00  0.00    +0.004 C 
ATOM     68  H   UNL     1     148.177 165.853 191.523  0.00  0.00    +0.043 HD
ATOM     69  H   UNL     1     149.808 165.301 191.905  0.00  0.00    +0.043 HD
ATOM     70  H   UNL     1     149.121 165.026 190.290  0.00  0.00    +0.043 HD
ENDBRANCH  13  67
BRANCH   3  71
ATOM     71  C   UNL     1     151.595 162.095 187.092  0.00  0.00    -0.028 C 
ATOM     72  H   UNL     1     150.537 162.329 187.244  0.00  0.00    +0.027 HD
ATOM     73  H   UNL     1     151.969 161.566 187.976  0.00  0.00    +0.027 HD
ATOM     74  H   UNL     1     151.665 161.390 186.258  0.00  0.00    +0.027 HD
ENDBRANCH   3  71
BRANCH  12  75
ATOM     75  C   UNL     1     147.775 168.530 191.133  0.00  0.00    +0.003 C 
ATOM     76  H   UNL     1     148.015 168.258 192.167  0.00  0.00    +0.034 HD
ATOM     77  H   UNL     1     146.828 168.017 190.923  0.00  0.00    +0.034 HD
BRANCH  75  78
ATOM     78  C   UNL     1     147.546 170.015 191.030  0.00  0.00    -0.006 A 
ATOM     79  C   UNL     1     146.656 170.667 190.199  0.00  0.00    +0.087 A 
ATOM     80  N   UNL     1     146.781 172.013 190.375  0.00  0.00    -0.349 N 
ATOM     81  C   UNL     1     147.736 172.278 191.326  0.00  0.00    +0.048 A 
ATOM     82  C   UNL     1     148.198 173.505 191.822  0.00  0.00    -0.038 A 
ATOM     83  C   UNL     1     149.179 173.475 192.814  0.00  0.00    -0.060 A 
ATOM     84  C   UNL     1     149.676 172.267 193.292  0.00  0.00    -0.061 A 
ATOM     85  C   UNL     1     149.206 171.050 192.783  0.00  0.00    -0.052 A 
ATOM     86  C   UNL     1     148.222 171.046 191.772  0.00  0.00    +0.004 A 
ATOM     87 BR   UNL     1     145.436 169.881 188.969  0.00  0.00    -0.031 Br
ATOM     88  H   UNL     1     146.247 172.710 189.876  0.00  0.00    +0.166 HD
ATOM     89  H   UNL     1     147.808 174.450 191.455  0.00  0.00    +0.064 HD
ATOM     90  H   UNL     1     149.556 174.410 193.222  0.00  0.00    +0.062 HD
ATOM     91  H   UNL     1     150.437 172.265 194.069  0.00  0.00    +0.062 HD
ATOM     92  H   UNL     1     149.596 170.119 193.179  0.00  0.00    +0.062 HD
ENDBRANCH  75  78
ENDBRANCH  12  75
TORSDOF 10
ENDMDL
MODEL 2
REMARK VINA RESULT:      -7.1      7.349     11.967
REMARK  Name = Jasplakinolide_conf2
REMARK  10 active torsions:
REMARK  status: ('A' for Active; 'I' for Inactive)
REMARK    1  A    between atoms: C_1  and  C_2
REMARK    2  A    between atoms: C_4  and  C_47
REMARK    3  A    between atoms: C_9  and  C_40
REMARK    4  A    between atoms: C_13  and  C_29
REMARK    5  A    between atoms: N_14  and  C_28
REMARK    6  A    between atoms: C_17  and  C_27
REMARK    7  A    between atoms: C_21  and  C_26
REMARK    8  A    between atoms: C_23  and  C_25
REMARK    9  A    between atoms: C_29  and  C_30
REMARK   10  A    between atoms: C_43  and  O_46
REMARK                            x       y       z     vdW  Elec       q    Type
REMARK                         _______ _______ _______ _____ _____    ______ ____
ROOT
ATOM      1  C   UNL     1     156.012 171.798 181.505  0.00  0.00    -0.022 C 
ATOM      2  C   UNL     1     155.446 170.832 182.562  0.00  0.00    -0.010 C 
ATOM      3  C   UNL     1     156.116 169.446 182.593  0.00  0.00    +0.101 C 
ATOM      4  O   UNL     1     155.653 168.802 183.802  0.00  0.00    -0.462 OA
ATOM      5  C   UNL     1     156.444 167.804 184.289  0.00  0.00    +0.309 C 
ATOM      6  O   UNL     1     157.450 167.379 183.740  0.00  0.00    -0.251 OA
ATOM      7  C   UNL     1     155.929 167.376 185.643  0.00  0.00    +0.067 C 
ATOM      8  C   UNL     1     156.453 165.994 186.050  0.00  0.00    +0.058 C 
ATOM      9  N   UNL     1     157.890 165.992 186.249  0.00  0.00    -0.306 N 
ATOM     10  C   UNL     1     158.674 164.889 185.968  0.00  0.00    +0.234 C 
ATOM     11  O   UNL     1     158.220 163.792 185.655  0.00  0.00    -0.274 OA
ATOM     12  C   UNL     1     160.177 165.214 185.962  0.00  0.00    +0.106 C 
ATOM     13  N   UNL     1     160.457 166.005 184.734  0.00  0.00    -0.291 N 
ATOM     14  C   UNL     1     160.491 167.394 184.855  0.00  0.00    +0.236 C 
ATOM     15  O   UNL     1     160.227 167.954 185.930  0.00  0.00    -0.274 OA
ATOM     16  C   UNL     1     160.896 168.240 183.624  0.00  0.00    +0.097 C 
ATOM     17  N   UNL     1     160.638 169.648 183.934  0.00  0.00    -0.304 N 
ATOM     18  C   UNL     1     160.505 170.610 182.960  0.00  0.00    +0.217 C 
ATOM     19  O   UNL     1     160.548 170.352 181.760  0.00  0.00    -0.275 OA
ATOM     20  C   UNL     1     160.404 172.030 183.510  0.00  0.00    +0.036 C 
ATOM     21  C   UNL     1     159.645 172.963 182.551  0.00  0.00    -0.021 C 
ATOM     22  C   UNL     1     158.132 172.800 182.626  0.00  0.00    -0.076 C 
ATOM     23  C   UNL     1     157.488 172.081 181.683  0.00  0.00    -0.082 C 
ATOM     24  H   UNL     1     155.919 171.309 180.527  0.00  0.00    +0.034 HD
ATOM     25  H   UNL     1     154.366 170.698 182.397  0.00  0.00    +0.031 HD
ATOM     26  H   UNL     1     155.521 171.278 183.561  0.00  0.00    +0.031 HD
ATOM     27  H   UNL     1     157.205 169.560 182.641  0.00  0.00    +0.073 HD
ATOM     28  H   UNL     1     154.832 167.348 185.597  0.00  0.00    +0.040 HD
ATOM     29  H   UNL     1     156.225 168.148 186.362  0.00  0.00    +0.040 HD
ATOM     30  H   UNL     1     156.239 165.304 185.223  0.00  0.00    +0.055 HD
ATOM     31  H   UNL     1     158.371 166.864 186.459  0.00  0.00    +0.149 HD
ATOM     32  H   UNL     1     160.356 165.851 186.837  0.00  0.00    +0.060 HD
ATOM     33  H   UNL     1     160.276 167.974 182.763  0.00  0.00    +0.059 HD
ATOM     34  H   UNL     1     160.496 169.872 184.912  0.00  0.00    +0.149 HD
ATOM     35  H   UNL     1     159.905 171.999 184.485  0.00  0.00    +0.039 HD
ATOM     36  H   UNL     1     159.881 174.011 182.781  0.00  0.00    +0.032 HD
ATOM     37  H   UNL     1     159.990 172.815 181.516  0.00  0.00    +0.032 HD
ATOM     38  H   UNL     1     158.104 171.613 180.910  0.00  0.00    +0.057 HD
ENDROOT
BRANCH   8  39
ATOM     39  C   UNL     1     155.764 165.479 187.304  0.00  0.00    -0.026 A 
ATOM     40  C   UNL     1     154.551 164.771 187.246  0.00  0.00    -0.053 A 
ATOM     41  C   UNL     1     153.942 164.309 188.414  0.00  0.00    -0.020 A 
ATOM     42  C   UNL     1     154.528 164.564 189.646  0.00  0.00    +0.117 A 
ATOM     43  C   UNL     1     155.716 165.280 189.733  0.00  0.00    -0.020 A 
ATOM     44  C   UNL     1     156.329 165.739 188.564  0.00  0.00    -0.053 A 
ATOM     45  H   UNL     1     154.062 164.580 186.295  0.00  0.00    +0.062 HD
ATOM     46  H   UNL     1     153.007 163.758 188.363  0.00  0.00    +0.065 HD
ATOM     47  H   UNL     1     156.175 165.498 190.692  0.00  0.00    +0.065 HD
ATOM     48  H   UNL     1     157.246 166.320 188.642  0.00  0.00    +0.062 HD
BRANCH  42  49
ATOM     49  O   UNL     1     153.895 164.097 190.760  0.00  0.00    -0.507 OA
ATOM     50  H   UNL     1     152.945 164.029 190.565  0.00  0.00    +0.292 HD
ENDBRANCH  42  49
ENDBRANCH   8  39
BRANCH   1  51
ATOM     51  C   UNL     1     155.167 173.070 181.395  0.00  0.00    -0.059 C 
ATOM     52  H   UNL     1     155.613 173.815 180.733  0.00  0.00    +0.024 HD
ATOM     53  H   UNL     1     155.060 173.540 182.378  0.00  0.00    +0.024 HD
ATOM     54  H   UNL     1     154.160 172.842 181.026  0.00  0.00    +0.024 HD
ENDBRANCH   1  51
BRANCH  22  55
ATOM     55  C   UNL     1     157.486 173.519 183.780  0.00  0.00    -0.044 C 
ATOM     56  H   UNL     1     157.973 174.486 183.954  0.00  0.00    +0.027 HD
ATOM     57  H   UNL     1     156.431 173.708 183.558  0.00  0.00    +0.027 HD
ATOM     58  H   UNL     1     157.545 172.974 184.720  0.00  0.00    +0.027 HD
ENDBRANCH  22  55
BRANCH  20  59
ATOM     59  C   UNL     1     161.832 172.540 183.728  0.00  0.00    -0.054 C 
ATOM     60  H   UNL     1     162.208 172.234 184.708  0.00  0.00    +0.024 HD
ATOM     61  H   UNL     1     161.877 173.634 183.668  0.00  0.00    +0.024 HD
ATOM     62  H   UNL     1     162.515 172.144 182.969  0.00  0.00    +0.024 HD
ENDBRANCH  20  59
BRANCH  16  63
ATOM     63  C   UNL     1     162.381 168.045 183.323  0.00  0.00    -0.038 C 
ATOM     64  H   UNL     1     162.711 168.638 182.466  0.00  0.00    +0.025 HD
ATOM     65  H   UNL     1     162.596 166.995 183.091  0.00  0.00    +0.025 HD
ATOM     66  H   UNL     1     162.997 168.325 184.184  0.00  0.00    +0.025 HD
ENDBRANCH  16  63
BRANCH  13  67
ATOM     67  C   UNL     1     160.252 165.350 183.443  0.00  0.00    +0.004 C 
ATOM     68  H   UNL     1     161.145 165.376 182.817  0.00  0.00    +0.043 HD
ATOM     69  H   UNL     1     159.454 165.871 182.908  0.00  0.00    +0.043 HD
ATOM     70  H   UNL     1     159.972 164.308 183.576  0.00  0.00    +0.043 HD
ENDBRANCH  13  67
BRANCH   3  71
ATOM     71  C   UNL     1     155.724 168.592 181.387  0.00  0.00    -0.028 C 
ATOM     72  H   UNL     1     156.328 167.682 181.322  0.00  0.00    +0.027 HD
ATOM     73  H   UNL     1     155.837 169.157 180.456  0.00  0.00    +0.027 HD
ATOM     74  H   UNL     1     154.673 168.293 181.442  0.00  0.00    +0.027 HD
ENDBRANCH   3  71
BRANCH  12  75
ATOM     75  C   UNL     1     161.039 163.951 186.136  0.00  0.00    +0.003 C 
ATOM     76  H   UNL     1     161.917 163.964 185.479  0.00  0.00    +0.034 HD
ATOM     77  H   UNL     1     160.465 163.073 185.814  0.00  0.00    +0.034 HD
BRANCH  75  78
ATOM     78  C   UNL     1     161.467 163.742 187.565  0.00  0.00    -0.006 A 
ATOM     79  C   UNL     1     162.715 163.979 188.106  0.00  0.00    +0.087 A 
ATOM     80  N   UNL     1     162.709 163.625 189.422  0.00  0.00    -0.349 N 
ATOM     81  C   UNL     1     161.466 163.164 189.781  0.00  0.00    +0.048 A 
ATOM     82  C   UNL     1     161.002 162.691 191.016  0.00  0.00    -0.038 A 
ATOM     83  C   UNL     1     159.666 162.297 191.098  0.00  0.00    -0.060 A 
ATOM     84  C   UNL     1     158.827 162.374 189.991  0.00  0.00    -0.061 A 
ATOM     85  C   UNL     1     159.308 162.847 188.763  0.00  0.00    -0.052 A 
ATOM     86  C   UNL     1     160.657 163.243 188.644  0.00  0.00    +0.004 A 
ATOM     87 BR   UNL     1     164.248 164.671 187.215  0.00  0.00    -0.031 Br
ATOM     88  H   UNL     1     163.505 163.693 190.039  0.00  0.00    +0.166 HD
ATOM     89  H   UNL     1     161.652 162.633 191.883  0.00  0.00    +0.064 HD
ATOM     90  H   UNL     1     159.274 161.928 192.044  0.00  0.00    +0.062 HD
ATOM     91  H   UNL     1     157.788 162.067 190.078  0.00  0.00    +0.062 HD
ATOM     92  H   UNL     1     158.634 162.913 187.916  0.00  0.00    +0.062 HD
ENDBRANCH  75  78
ENDBRANCH  12  75
TORSDOF 10
ENDMDL
MODEL 3
REMARK VINA RESULT:      -7.1      5.411      9.861
REMARK  Name = Jasplakinolide_conf2
REMARK  10 active torsions:
REMARK  status: ('A' for Active; 'I' for Inactive)
REMARK    1  A    between atoms: C_1  and  C_2
REMARK    2  A    between atoms: C_4  and  C_47
REMARK    3  A    between atoms: C_9  and  C_40
REMARK    4  A    between atoms: C_13  and  C_29
REMARK    5  A    between atoms: N_14  and  C_28
REMARK    6  A    between atoms: C_17  and  C_27
REMARK    7  A    between atoms: C_21  and  C_26
REMARK    8  A    between atoms: C_23  and  C_25
REMARK    9  A    between atoms: C_29  and  C_30
REMARK   10  A    between atoms: C_43  and  O_46
REMARK                            x       y       z     vdW  Elec       q    Type
REMARK                         _______ _______ _______ _____ _____    ______ ____
ROOT
ATOM      1  C   UNL     1     145.056 174.255 183.013  0.00  0.00    -0.022 C 
ATOM      2  C   UNL     1     145.579 174.337 184.458  0.00  0.00    -0.010 C 
ATOM      3  C   UNL     1     144.790 173.494 185.478  0.00  0.00    +0.101 C 
ATOM      4  O   UNL     1     145.581 173.481 186.688  0.00  0.00    -0.462 OA
ATOM      5  C   UNL     1     145.349 172.445 187.543  0.00  0.00    +0.309 C 
ATOM      6  O   UNL     1     144.483 171.596 187.393  0.00  0.00    -0.251 OA
ATOM      7  C   UNL     1     146.380 172.468 188.646  0.00  0.00    +0.067 C 
ATOM      8  C   UNL     1     145.940 171.653 189.867  0.00  0.00    +0.058 C 
ATOM      9  N   UNL     1     145.835 170.237 189.569  0.00  0.00    -0.306 N 
ATOM     10  C   UNL     1     144.901 169.420 190.178  0.00  0.00    +0.234 C 
ATOM     11  O   UNL     1     144.177 169.782 191.101  0.00  0.00    -0.274 OA
ATOM     12  C   UNL     1     144.773 168.050 189.491  0.00  0.00    +0.106 C 
ATOM     13  N   UNL     1     144.073 168.263 188.196  0.00  0.00    -0.291 N 
ATOM     14  C   UNL     1     144.858 168.397 187.052  0.00  0.00    +0.236 C 
ATOM     15  O   UNL     1     146.097 168.409 187.119  0.00  0.00    -0.274 OA
ATOM     16  C   UNL     1     144.159 168.502 185.675  0.00  0.00    +0.097 C 
ATOM     17  N   UNL     1     145.170 168.858 184.677  0.00  0.00    -0.304 N 
ATOM     18  C   UNL     1     144.848 169.411 183.460  0.00  0.00    +0.217 C 
ATOM     19  O   UNL     1     143.695 169.688 183.140  0.00  0.00    -0.275 OA
ATOM     20  C   UNL     1     146.038 169.549 182.515  0.00  0.00    +0.036 C 
ATOM     21  C   UNL     1     145.832 170.685 181.497  0.00  0.00    -0.021 C 
ATOM     22  C   UNL     1     146.102 172.067 182.078  0.00  0.00    -0.076 C 
ATOM     23  C   UNL     1     145.068 172.851 182.451  0.00  0.00    -0.082 C 
ATOM     24  H   UNL     1     144.002 174.563 183.025  0.00  0.00    +0.034 HD
ATOM     25  H   UNL     1     145.577 175.387 184.792  0.00  0.00    +0.031 HD
ATOM     26  H   UNL     1     146.632 174.035 184.498  0.00  0.00    +0.031 HD
ATOM     27  H   UNL     1     144.681 172.469 185.108  0.00  0.00    +0.073 HD
ATOM     28  H   UNL     1     146.535 173.513 188.945  0.00  0.00    +0.040 HD
ATOM     29  H   UNL     1     147.317 172.087 188.223  0.00  0.00    +0.040 HD
ATOM     30  H   UNL     1     144.937 172.000 190.151  0.00  0.00    +0.055 HD
ATOM     31  H   UNL     1     146.355 169.847 188.785  0.00  0.00    +0.149 HD
ATOM     32  H   UNL     1     145.796 167.715 189.284  0.00  0.00    +0.060 HD
ATOM     33  H   UNL     1     143.415 169.304 185.690  0.00  0.00    +0.059 HD
ATOM     34  H   UNL     1     146.136 168.735 184.955  0.00  0.00    +0.149 HD
ATOM     35  H   UNL     1     146.943 169.728 183.106  0.00  0.00    +0.039 HD
ATOM     36  H   UNL     1     146.503 170.546 180.639  0.00  0.00    +0.032 HD
ATOM     37  H   UNL     1     144.817 170.644 181.075  0.00  0.00    +0.032 HD
ATOM     38  H   UNL     1     144.064 172.430 182.344  0.00  0.00    +0.057 HD
ENDROOT
BRANCH   8  39
ATOM     39  C   UNL     1     146.877 171.857 191.048  0.00  0.00    -0.026 A 
ATOM     40  C   UNL     1     146.734 172.943 191.928  0.00  0.00    -0.053 A 
ATOM     41  C   UNL     1     147.608 173.106 193.004  0.00  0.00    -0.020 A 
ATOM     42  C   UNL     1     148.639 172.196 193.199  0.00  0.00    +0.117 A 
ATOM     43  C   UNL     1     148.816 171.125 192.331  0.00  0.00    -0.020 A 
ATOM     44  C   UNL     1     147.938 170.960 191.257  0.00  0.00    -0.053 A 
ATOM     45  H   UNL     1     145.949 173.680 191.782  0.00  0.00    +0.062 HD
ATOM     46  H   UNL     1     147.491 173.945 193.684  0.00  0.00    +0.065 HD
ATOM     47  H   UNL     1     149.628 170.418 192.465  0.00  0.00    +0.065 HD
ATOM     48  H   UNL     1     148.097 170.133 190.567  0.00  0.00    +0.062 HD
BRANCH  42  49
ATOM     49  O   UNL     1     149.471 172.398 194.260  0.00  0.00    -0.507 OA
ATOM     50  H   UNL     1     150.371 172.537 193.921  0.00  0.00    +0.292 HD
ENDBRANCH  42  49
ENDBRANCH   8  39
BRANCH   1  51
ATOM     51  C   UNL     1     145.755 175.270 182.104  0.00  0.00    -0.059 C 
ATOM     52  H   UNL     1     146.435 175.926 182.650  0.00  0.00    +0.024 HD
ATOM     53  H   UNL     1     145.015 175.913 181.615  0.00  0.00    +0.024 HD
ATOM     54  H   UNL     1     146.325 174.765 181.316  0.00  0.00    +0.024 HD
ENDBRANCH   1  51
BRANCH  22  55
ATOM     55  C   UNL     1     147.559 172.440 182.146  0.00  0.00    -0.044 C 
ATOM     56  H   UNL     1     147.677 173.528 182.208  0.00  0.00    +0.027 HD
ATOM     57  H   UNL     1     148.014 172.000 183.039  0.00  0.00    +0.027 HD
ATOM     58  H   UNL     1     148.131 172.119 181.277  0.00  0.00    +0.027 HD
ENDBRANCH  22  55
BRANCH  20  59
ATOM     59  C   UNL     1     146.205 168.211 181.789  0.00  0.00    -0.054 C 
ATOM     60  H   UNL     1     146.066 168.334 180.711  0.00  0.00    +0.024 HD
ATOM     61  H   UNL     1     145.482 167.470 182.148  0.00  0.00    +0.024 HD
ATOM     62  H   UNL     1     147.205 167.794 181.950  0.00  0.00    +0.024 HD
ENDBRANCH  20  59
BRANCH  16  63
ATOM     63  C   UNL     1     143.526 167.161 185.310  0.00  0.00    -0.038 C 
ATOM     64  H   UNL     1     143.591 166.436 186.127  0.00  0.00    +0.025 HD
ATOM     65  H   UNL     1     144.030 166.716 184.443  0.00  0.00    +0.025 HD
ATOM     66  H   UNL     1     142.469 167.282 185.050  0.00  0.00    +0.025 HD
ENDBRANCH  16  63
BRANCH  13  67
ATOM     67  C   UNL     1     142.692 168.744 188.243  0.00  0.00    +0.004 C 
ATOM     68  H   UNL     1     142.184 168.460 189.165  0.00  0.00    +0.043 HD
ATOM     69  H   UNL     1     142.140 168.305 187.408  0.00  0.00    +0.043 HD
ATOM     70  H   UNL     1     142.655 169.828 188.164  0.00  0.00    +0.043 HD
ENDBRANCH  13  67
BRANCH   3  71
ATOM     71  C   UNL     1     143.418 174.097 185.782  0.00  0.00    -0.028 C 
ATOM     72  H   UNL     1     143.059 174.723 184.960  0.00  0.00    +0.027 HD
ATOM     73  H   UNL     1     143.452 174.701 186.696  0.00  0.00    +0.027 HD
ATOM     74  H   UNL     1     142.675 173.314 185.957  0.00  0.00    +0.027 HD
ENDBRANCH   3  71
BRANCH  12  75
ATOM     75  C   UNL     1     144.129 167.002 190.417  0.00  0.00    +0.003 C 
ATOM     76  H   UNL     1     143.999 166.038 189.910  0.00  0.00    +0.034 HD
ATOM     77  H   UNL     1     143.111 167.320 190.672  0.00  0.00    +0.034 HD
BRANCH  75  78
ATOM     78  C   UNL     1     144.905 166.813 191.694  0.00  0.00    -0.006 A 
ATOM     79  C   UNL     1     144.393 166.668 192.968  0.00  0.00    +0.087 A 
ATOM     80  N   UNL     1     145.421 166.565 193.857  0.00  0.00    -0.349 N 
ATOM     81  C   UNL     1     146.624 166.623 193.195  0.00  0.00    +0.048 A 
ATOM     82  C   UNL     1     147.932 166.564 193.696  0.00  0.00    -0.038 A 
ATOM     83  C   UNL     1     148.981 166.632 192.778  0.00  0.00    -0.060 A 
ATOM     84  C   UNL     1     148.732 166.754 191.415  0.00  0.00    -0.061 A 
ATOM     85  C   UNL     1     147.419 166.815 190.931  0.00  0.00    -0.052 A 
ATOM     86  C   UNL     1     146.336 166.759 191.834  0.00  0.00    +0.004 A 
ATOM     87 BR   UNL     1     142.561 166.628 193.480  0.00  0.00    -0.031 Br
ATOM     88  H   UNL     1     145.311 166.460 194.855  0.00  0.00    +0.166 HD
ATOM     89  H   UNL     1     148.130 166.464 194.758  0.00  0.00    +0.064 HD
ATOM     90  H   UNL     1     150.007 166.585 193.134  0.00  0.00    +0.062 HD
ATOM     91  H   UNL     1     149.563 166.800 190.715  0.00  0.00    +0.062 HD
ATOM     92  H   UNL     1     147.246 166.895 189.864  0.00  0.00    +0.062 HD
ENDBRANCH  75  78
ENDBRANCH  12  75
TORSDOF 10
ENDMDL
MODEL 4
REMARK VINA RESULT:      -6.9      6.478      9.943
REMARK  Name = Jasplakinolide_conf2
REMARK  10 active torsions:
REMARK  status: ('A' for Active; 'I' for Inactive)
REMARK    1  A    between atoms: C_1  and  C_2
REMARK    2  A    between atoms: C_4  and  C_47
REMARK    3  A    between atoms: C_9  and  C_40
REMARK    4  A    between atoms: C_13  and  C_29
REMARK    5  A    between atoms: N_14  and  C_28
REMARK    6  A    between atoms: C_17  and  C_27
REMARK    7  A    between atoms: C_21  and  C_26
REMARK    8  A    between atoms: C_23  and  C_25
REMARK    9  A    between atoms: C_29  and  C_30
REMARK   10  A    between atoms: C_43  and  O_46
REMARK                            x       y       z     vdW  Elec       q    Type
REMARK                         _______ _______ _______ _____ _____    ______ ____
ROOT
ATOM      1  C   UNL     1     159.312 162.299 188.411  0.00  0.00    -0.022 C 
ATOM      2  C   UNL     1     159.995 163.516 187.762  0.00  0.00    -0.010 C 
ATOM      3  C   UNL     1     159.485 163.863 186.350  0.00  0.00    +0.101 C 
ATOM      4  O   UNL     1     160.031 165.164 186.034  0.00  0.00    -0.462 OA
ATOM      5  C   UNL     1     159.363 165.878 185.085  0.00  0.00    +0.309 C 
ATOM      6  O   UNL     1     158.405 165.468 184.446  0.00  0.00    -0.251 OA
ATOM      7  C   UNL     1     159.937 167.274 185.015  0.00  0.00    +0.067 C 
ATOM      8  C   UNL     1     159.577 167.982 183.704  0.00  0.00    +0.058 C 
ATOM      9  N   UNL     1     158.151 168.227 183.590  0.00  0.00    -0.306 N 
ATOM     10  C   UNL     1     157.494 168.213 182.374  0.00  0.00    +0.234 C 
ATOM     11  O   UNL     1     158.065 168.124 181.291  0.00  0.00    -0.274 OA
ATOM     12  C   UNL     1     155.964 168.191 182.526  0.00  0.00    +0.106 C 
ATOM     13  N   UNL     1     155.583 166.833 183.001  0.00  0.00    -0.291 N 
ATOM     14  C   UNL     1     155.394 166.658 184.372  0.00  0.00    +0.236 C 
ATOM     15  O   UNL     1     155.605 167.580 185.174  0.00  0.00    -0.274 OA
ATOM     16  C   UNL     1     154.884 165.290 184.885  0.00  0.00    +0.097 C 
ATOM     17  N   UNL     1     154.984 165.286 186.347  0.00  0.00    -0.304 N 
ATOM     18  C   UNL     1     154.998 164.127 187.086  0.00  0.00    +0.217 C 
ATOM     19  O   UNL     1     154.971 163.011 186.573  0.00  0.00    -0.275 OA
ATOM     20  C   UNL     1     154.944 164.360 188.593  0.00  0.00    +0.036 C 
ATOM     21  C   UNL     1     155.582 163.199 189.375  0.00  0.00    -0.021 C 
ATOM     22  C   UNL     1     157.105 163.255 189.396  0.00  0.00    -0.076 C 
ATOM     23  C   UNL     1     157.816 162.464 188.566  0.00  0.00    -0.082 C 
ATOM     24  H   UNL     1     159.450 161.443 187.738  0.00  0.00    +0.034 HD
ATOM     25  H   UNL     1     161.082 163.346 187.713  0.00  0.00    +0.031 HD
ATOM     26  H   UNL     1     159.881 164.400 188.400  0.00  0.00    +0.031 HD
ATOM     27  H   UNL     1     158.392 163.923 186.354  0.00  0.00    +0.073 HD
ATOM     28  H   UNL     1     161.030 167.197 185.096  0.00  0.00    +0.040 HD
ATOM     29  H   UNL     1     159.564 167.823 185.886  0.00  0.00    +0.040 HD
ATOM     30  H   UNL     1     159.859 167.313 182.879  0.00  0.00    +0.055 HD
ATOM     31  H   UNL     1     157.577 168.264 184.430  0.00  0.00    +0.149 HD
ATOM     32  H   UNL     1     155.724 168.916 183.313  0.00  0.00    +0.060 HD
ATOM     33  H   UNL     1     155.520 164.485 184.510  0.00  0.00    +0.059 HD
ATOM     34  H   UNL     1     155.111 166.189 186.789  0.00  0.00    +0.149 HD
ATOM     35  H   UNL     1     155.454 165.301 188.826  0.00  0.00    +0.039 HD
ATOM     36  H   UNL     1     155.233 163.210 190.416  0.00  0.00    +0.032 HD
ATOM     37  H   UNL     1     155.246 162.231 188.972  0.00  0.00    +0.032 HD
ATOM     38  H   UNL     1     157.248 161.829 187.879  0.00  0.00    +0.057 HD
ENDROOT
BRANCH   8  39
ATOM     39  C   UNL     1     160.333 169.292 183.547  0.00  0.00    -0.026 A 
ATOM     40  C   UNL     1     161.586 169.354 182.913  0.00  0.00    -0.053 A 
ATOM     41  C   UNL     1     162.257 170.571 182.782  0.00  0.00    -0.020 A 
ATOM     42  C   UNL     1     161.691 171.730 183.296  0.00  0.00    +0.117 A 
ATOM     43  C   UNL     1     160.463 171.694 183.946  0.00  0.00    -0.020 A 
ATOM     44  C   UNL     1     159.790 170.477 184.074  0.00  0.00    -0.053 A 
ATOM     45  H   UNL     1     162.058 168.457 182.524  0.00  0.00    +0.062 HD
ATOM     46  H   UNL     1     163.223 170.614 182.288  0.00  0.00    +0.065 HD
ATOM     47  H   UNL     1     160.020 172.591 184.365  0.00  0.00    +0.065 HD
ATOM     48  H   UNL     1     158.839 170.451 184.605  0.00  0.00    +0.062 HD
BRANCH  42  49
ATOM     49  O   UNL     1     162.385 172.895 183.149  0.00  0.00    -0.507 OA
ATOM     50  H   UNL     1     161.748 173.629 183.124  0.00  0.00    +0.292 HD
ENDBRANCH  42  49
ENDBRANCH   8  39
BRANCH   1  51
ATOM     51  C   UNL     1     160.007 161.893 189.714  0.00  0.00    -0.059 C 
ATOM     52  H   UNL     1     160.702 162.654 190.075  0.00  0.00    +0.024 HD
ATOM     53  H   UNL     1     160.587 160.976 189.564  0.00  0.00    +0.024 HD
ATOM     54  H   UNL     1     159.275 161.695 190.505  0.00  0.00    +0.024 HD
ENDBRANCH   1  51
BRANCH  22  55
ATOM     55  C   UNL     1     157.678 164.207 190.411  0.00  0.00    -0.044 C 
ATOM     56  H   UNL     1     156.958 164.394 191.216  0.00  0.00    +0.027 HD
ATOM     57  H   UNL     1     158.579 163.776 190.859  0.00  0.00    +0.027 HD
ATOM     58  H   UNL     1     157.935 165.181 189.998  0.00  0.00    +0.027 HD
ENDBRANCH  22  55
BRANCH  20  59
ATOM     59  C   UNL     1     153.470 164.513 188.981  0.00  0.00    -0.054 C 
ATOM     60  H   UNL     1     152.833 163.906 188.332  0.00  0.00    +0.024 HD
ATOM     61  H   UNL     1     153.145 165.558 188.905  0.00  0.00    +0.024 HD
ATOM     62  H   UNL     1     153.297 164.193 190.014  0.00  0.00    +0.024 HD
ENDBRANCH  20  59
BRANCH  16  63
ATOM     63  C   UNL     1     153.427 165.090 184.471  0.00  0.00    -0.038 C 
ATOM     64  H   UNL     1     152.728 165.405 185.251  0.00  0.00    +0.025 HD
ATOM     65  H   UNL     1     153.224 164.032 184.263  0.00  0.00    +0.025 HD
ATOM     66  H   UNL     1     153.195 165.655 183.562  0.00  0.00    +0.025 HD
ENDBRANCH  16  63
BRANCH  13  67
ATOM     67  C   UNL     1     155.847 165.704 182.110  0.00  0.00    +0.004 C 
ATOM     68  H   UNL     1     154.933 165.190 181.809  0.00  0.00    +0.043 HD
ATOM     69  H   UNL     1     156.478 164.983 182.636  0.00  0.00    +0.043 HD
ATOM     70  H   UNL     1     156.356 166.031 181.206  0.00  0.00    +0.043 HD
ENDBRANCH  13  67
BRANCH   3  71
ATOM     71  C   UNL     1     159.958 162.853 185.305  0.00  0.00    -0.028 C 
ATOM     72  H   UNL     1     159.166 162.147 185.036  0.00  0.00    +0.027 HD
ATOM     73  H   UNL     1     160.823 162.289 185.670  0.00  0.00    +0.027 HD
ATOM     74  H   UNL     1     160.282 163.357 184.389  0.00  0.00    +0.027 HD
ENDBRANCH   3  71
BRANCH  12  75
ATOM     75  C   UNL     1     155.252 168.657 181.244  0.00  0.00    +0.003 C 
ATOM     76  H   UNL     1     154.474 167.951 180.931  0.00  0.00    +0.034 HD
ATOM     77  H   UNL     1     155.969 168.666 180.414  0.00  0.00    +0.034 HD
BRANCH  75  78
ATOM     78  C   UNL     1     154.668 170.039 181.385  0.00  0.00    -0.006 A 
ATOM     79  C   UNL     1     153.541 170.537 180.762  0.00  0.00    +0.087 A 
ATOM     80  N   UNL     1     153.370 171.841 181.117  0.00  0.00    -0.349 N 
ATOM     81  C   UNL     1     154.362 172.227 181.986  0.00  0.00    +0.048 A 
ATOM     82  C   UNL     1     154.589 173.466 182.601  0.00  0.00    -0.038 A 
ATOM     83  C   UNL     1     155.682 173.571 183.462  0.00  0.00    -0.060 A 
ATOM     84  C   UNL     1     156.512 172.480 183.701  0.00  0.00    -0.061 A 
ATOM     85  C   UNL     1     156.272 171.250 183.076  0.00  0.00    -0.052 A 
ATOM     86  C   UNL     1     155.182 171.114 182.190  0.00  0.00    +0.004 A 
ATOM     87 BR   UNL     1     152.375 169.615 179.574  0.00  0.00    -0.031 Br
ATOM     88  H   UNL     1     152.622 172.434 180.788  0.00  0.00    +0.166 HD
ATOM     89  H   UNL     1     153.941 174.318 182.421  0.00  0.00    +0.064 HD
ATOM     90  H   UNL     1     155.883 174.518 183.958  0.00  0.00    +0.062 HD
ATOM     91  H   UNL     1     157.355 172.581 184.381  0.00  0.00    +0.062 HD
ATOM     92  H   UNL     1     156.923 170.409 183.286  0.00  0.00    +0.062 HD
ENDBRANCH  75  78
ENDBRANCH  12  75
TORSDOF 10
ENDMDL
MODEL 5
REMARK VINA RESULT:      -6.9     15.527     21.456
REMARK  Name = Jasplakinolide_conf2
REMARK  10 active torsions:
REMARK  status: ('A' for Active; 'I' for Inactive)
REMARK    1  A    between atoms: C_1  and  C_2
REMARK    2  A    between atoms: C_4  and  C_47
REMARK    3  A    between atoms: C_9  and  C_40
REMARK    4  A    between atoms: C_13  and  C_29
REMARK    5  A    between atoms: N_14  and  C_28
REMARK    6  A    between atoms: C_17  and  C_27
REMARK    7  A    between atoms: C_21  and  C_26
REMARK    8  A    between atoms: C_23  and  C_25
REMARK    9  A    between atoms: C_29  and  C_30
REMARK   10  A    between atoms: C_43  and  O_46
REMARK                            x       y       z     vdW  Elec       q    Type
REMARK                         _______ _______ _______ _____ _____    ______ ____
ROOT
ATOM      1  C   UNL     1     142.898 186.096 198.093  0.00  0.00    -0.022 C 
ATOM      2  C   UNL     1     143.237 185.118 196.954  0.00  0.00    -0.010 C 
ATOM      3  C   UNL     1     143.346 185.765 195.560  0.00  0.00    +0.101 C 
ATOM      4  O   UNL     1     143.932 184.764 194.697  0.00  0.00    -0.462 OA
ATOM      5  C   UNL     1     144.556 185.230 193.579  0.00  0.00    +0.309 C 
ATOM      6  O   UNL     1     144.582 186.401 193.229  0.00  0.00    -0.251 OA
ATOM      7  C   UNL     1     145.275 184.090 192.897  0.00  0.00    +0.067 C 
ATOM      8  C   UNL     1     145.607 184.407 191.435  0.00  0.00    +0.058 C 
ATOM      9  N   UNL     1     146.563 185.493 191.316  0.00  0.00    -0.306 N 
ATOM     10  C   UNL     1     146.542 186.384 190.259  0.00  0.00    +0.234 C 
ATOM     11  O   UNL     1     145.811 186.263 189.279  0.00  0.00    -0.274 OA
ATOM     12  C   UNL     1     147.436 187.611 190.499  0.00  0.00    +0.106 C 
ATOM     13  N   UNL     1     146.764 188.460 191.520  0.00  0.00    -0.291 N 
ATOM     14  C   UNL     1     147.168 188.315 192.847  0.00  0.00    +0.236 C 
ATOM     15  O   UNL     1     148.005 187.460 193.176  0.00  0.00    -0.274 OA
ATOM     16  C   UNL     1     146.573 189.263 193.915  0.00  0.00    +0.097 C 
ATOM     17  N   UNL     1     146.972 188.770 195.236  0.00  0.00    -0.304 N 
ATOM     18  C   UNL     1     146.312 189.121 196.390  0.00  0.00    +0.217 C 
ATOM     19  O   UNL     1     145.314 189.838 196.393  0.00  0.00    -0.275 OA
ATOM     20  C   UNL     1     146.994 188.626 197.661  0.00  0.00    +0.036 C 
ATOM     21  C   UNL     1     145.993 188.451 198.817  0.00  0.00    -0.021 C 
ATOM     22  C   UNL     1     145.183 187.164 198.720  0.00  0.00    -0.076 C 
ATOM     23  C   UNL     1     143.917 187.203 198.255  0.00  0.00    -0.082 C 
ATOM     24  H   UNL     1     141.955 186.595 197.831  0.00  0.00    +0.034 HD
ATOM     25  H   UNL     1     142.479 184.321 196.914  0.00  0.00    +0.031 HD
ATOM     26  H   UNL     1     144.177 184.596 197.170  0.00  0.00    +0.031 HD
ATOM     27  H   UNL     1     144.011 186.635 195.605  0.00  0.00    +0.073 HD
ATOM     28  H   UNL     1     144.625 183.206 192.936  0.00  0.00    +0.040 HD
ATOM     29  H   UNL     1     146.179 183.881 193.480  0.00  0.00    +0.040 HD
ATOM     30  H   UNL     1     144.678 184.738 190.950  0.00  0.00    +0.055 HD
ATOM     31  H   UNL     1     147.179 185.710 192.096  0.00  0.00    +0.149 HD
ATOM     32  H   UNL     1     148.372 187.230 190.924  0.00  0.00    +0.060 HD
ATOM     33  H   UNL     1     145.481 189.242 193.873  0.00  0.00    +0.059 HD
ATOM     34  H   UNL     1     147.729 188.096 195.252  0.00  0.00    +0.149 HD
ATOM     35  H   UNL     1     147.498 187.676 197.448  0.00  0.00    +0.039 HD
ATOM     36  H   UNL     1     146.525 188.440 199.777  0.00  0.00    +0.032 HD
ATOM     37  H   UNL     1     145.318 189.318 198.876  0.00  0.00    +0.032 HD
ATOM     38  H   UNL     1     143.537 188.177 197.932  0.00  0.00    +0.057 HD
ENDROOT
BRANCH   8  39
ATOM     39  C   UNL     1     146.131 183.184 190.698  0.00  0.00    -0.026 A 
ATOM     40  C   UNL     1     145.292 182.112 190.350  0.00  0.00    -0.053 A 
ATOM     41  C   UNL     1     145.800 181.002 189.674  0.00  0.00    -0.020 A 
ATOM     42  C   UNL     1     147.150 180.946 189.355  0.00  0.00    +0.117 A 
ATOM     43  C   UNL     1     148.007 181.983 189.707  0.00  0.00    -0.020 A 
ATOM     44  C   UNL     1     147.497 183.096 190.380  0.00  0.00    -0.053 A 
ATOM     45  H   UNL     1     144.237 182.123 190.610  0.00  0.00    +0.062 HD
ATOM     46  H   UNL     1     145.146 180.178 189.404  0.00  0.00    +0.065 HD
ATOM     47  H   UNL     1     149.066 181.942 189.476  0.00  0.00    +0.065 HD
ATOM     48  H   UNL     1     148.178 183.894 190.673  0.00  0.00    +0.062 HD
BRANCH  42  49
ATOM     49  O   UNL     1     147.603 179.840 188.699  0.00  0.00    -0.507 OA
ATOM     50  H   UNL     1     147.356 179.918 187.762  0.00  0.00    +0.292 HD
ENDBRANCH  42  49
ENDBRANCH   8  39
BRANCH   1  51
ATOM     51  C   UNL     1     142.604 185.356 199.401  0.00  0.00    -0.059 C 
ATOM     52  H   UNL     1     141.544 185.128 199.526  0.00  0.00    +0.024 HD
ATOM     53  H   UNL     1     142.903 185.969 200.258  0.00  0.00    +0.024 HD
ATOM     54  H   UNL     1     143.166 184.417 199.456  0.00  0.00    +0.024 HD
ENDBRANCH   1  51
BRANCH  22  55
ATOM     55  C   UNL     1     145.905 185.937 199.208  0.00  0.00    -0.044 C 
ATOM     56  H   UNL     1     145.607 185.695 200.234  0.00  0.00    +0.027 HD
ATOM     57  H   UNL     1     145.654 185.081 198.574  0.00  0.00    +0.027 HD
ATOM     58  H   UNL     1     146.988 186.046 199.221  0.00  0.00    +0.027 HD
ENDBRANCH  22  55
BRANCH  20  59
ATOM     59  C   UNL     1     148.065 189.653 198.039  0.00  0.00    -0.054 C 
ATOM     60  H   UNL     1     148.422 189.485 199.059  0.00  0.00    +0.024 HD
ATOM     61  H   UNL     1     147.676 190.676 197.974  0.00  0.00    +0.024 HD
ATOM     62  H   UNL     1     148.929 189.591 197.368  0.00  0.00    +0.024 HD
ENDBRANCH  20  59
BRANCH  16  63
ATOM     63  C   UNL     1     147.112 190.678 193.712  0.00  0.00    -0.038 C 
ATOM     64  H   UNL     1     147.439 191.135 194.651  0.00  0.00    +0.025 HD
ATOM     65  H   UNL     1     146.341 191.331 193.287  0.00  0.00    +0.025 HD
ATOM     66  H   UNL     1     147.963 190.680 193.022  0.00  0.00    +0.025 HD
ENDBRANCH  16  63
BRANCH  13  67
ATOM     67  C   UNL     1     145.473 189.051 191.168  0.00  0.00    +0.004 C 
ATOM     68  H   UNL     1     144.774 188.314 190.773  0.00  0.00    +0.043 HD
ATOM     69  H   UNL     1     145.633 189.807 190.396  0.00  0.00    +0.043 HD
ATOM     70  H   UNL     1     145.010 189.517 192.034  0.00  0.00    +0.043 HD
ENDBRANCH  13  67
BRANCH   3  71
ATOM     71  C   UNL     1     141.980 186.169 195.006  0.00  0.00    -0.028 C 
ATOM     72  H   UNL     1     142.066 186.950 194.245  0.00  0.00    +0.027 HD
ATOM     73  H   UNL     1     141.325 186.528 195.807  0.00  0.00    +0.027 HD
ATOM     74  H   UNL     1     141.472 185.313 194.552  0.00  0.00    +0.027 HD
ENDBRANCH   3  71
BRANCH  12  75
ATOM     75  C   UNL     1     147.792 188.330 189.185  0.00  0.00    +0.003 C 
ATOM     76  H   UNL     1     147.669 189.416 189.270  0.00  0.00    +0.034 HD
ATOM     77  H   UNL     1     147.081 188.031 188.405  0.00  0.00    +0.034 HD
BRANCH  75  78
ATOM     78  C   UNL     1     149.184 188.002 188.713  0.00  0.00    -0.006 A 
ATOM     79  C   UNL     1     150.281 188.841 188.701  0.00  0.00    +0.087 A 
ATOM     80  N   UNL     1     151.344 188.182 188.160  0.00  0.00    -0.349 N 
ATOM     81  C   UNL     1     150.982 186.902 187.818  0.00  0.00    +0.048 A 
ATOM     82  C   UNL     1     151.738 185.877 187.232  0.00  0.00    -0.038 A 
ATOM     83  C   UNL     1     151.108 184.653 187.009  0.00  0.00    -0.060 A 
ATOM     84  C   UNL     1     149.775 184.460 187.359  0.00  0.00    -0.061 A 
ATOM     85  C   UNL     1     149.033 185.496 187.941  0.00  0.00    -0.052 A 
ATOM     86  C   UNL     1     149.638 186.750 188.170  0.00  0.00    +0.004 A 
ATOM     87 BR   UNL     1     150.365 190.641 189.310  0.00  0.00    -0.031 Br
ATOM     88  H   UNL     1     152.262 188.582 188.030  0.00  0.00    +0.166 HD
ATOM     89  H   UNL     1     152.780 186.022 186.962  0.00  0.00    +0.064 HD
ATOM     90  H   UNL     1     151.668 183.836 186.559  0.00  0.00    +0.062 HD
ATOM     91  H   UNL     1     149.303 183.496 187.182  0.00  0.00    +0.062 HD
ATOM     92  H   UNL     1     147.999 185.321 188.220  0.00  0.00    +0.062 HD
ENDBRANCH  75  78
ENDBRANCH  12  75
TORSDOF 10
ENDMDL
MODEL 6
REMARK VINA RESULT:      -6.9      5.262     10.136
REMARK  Name = Jasplakinolide_conf2
REMARK  10 active torsions:
REMARK  status: ('A' for Active; 'I' for Inactive)
REMARK    1  A    between atoms: C_1  and  C_2
REMARK    2  A    between atoms: C_4  and  C_47
REMARK    3  A    between atoms: C_9  and  C_40
REMARK    4  A    between atoms: C_13  and  C_29
REMARK    5  A    between atoms: N_14  and  C_28
REMARK    6  A    between atoms: C_17  and  C_27
REMARK    7  A    between atoms: C_21  and  C_26
REMARK    8  A    between atoms: C_23  and  C_25
REMARK    9  A    between atoms: C_29  and  C_30
REMARK   10  A    between atoms: C_43  and  O_46
REMARK                            x       y       z     vdW  Elec       q    Type
REMARK                         _______ _______ _______ _____ _____    ______ ____
ROOT
ATOM      1  C   UNL     1     143.909 174.744 183.712  0.00  0.00    -0.022 C 
ATOM      2  C   UNL     1     144.538 174.733 185.117  0.00  0.00    -0.010 C 
ATOM      3  C   UNL     1     144.118 173.545 186.002  0.00  0.00    +0.101 C 
ATOM      4  O   UNL     1     145.005 173.559 187.144  0.00  0.00    -0.462 OA
ATOM      5  C   UNL     1     145.152 172.375 187.801  0.00  0.00    +0.309 C 
ATOM      6  O   UNL     1     144.538 171.350 187.543  0.00  0.00    -0.251 OA
ATOM      7  C   UNL     1     146.248 172.509 188.832  0.00  0.00    +0.067 C 
ATOM      8  C   UNL     1     146.175 171.413 189.901  0.00  0.00    +0.058 C 
ATOM      9  N   UNL     1     146.428 170.095 189.349  0.00  0.00    -0.306 N 
ATOM     10  C   UNL     1     145.818 168.958 189.845  0.00  0.00    +0.234 C 
ATOM     11  O   UNL     1     145.123 168.941 190.857  0.00  0.00    -0.274 OA
ATOM     12  C   UNL     1     145.995 167.740 188.922  0.00  0.00    +0.106 C 
ATOM     13  N   UNL     1     145.132 167.954 187.730  0.00  0.00    -0.291 N 
ATOM     14  C   UNL     1     145.728 168.492 186.590  0.00  0.00    +0.236 C 
ATOM     15  O   UNL     1     146.917 168.846 186.591  0.00  0.00    -0.274 OA
ATOM     16  C   UNL     1     144.887 168.618 185.297  0.00  0.00    +0.097 C 
ATOM     17  N   UNL     1     145.654 169.406 184.329  0.00  0.00    -0.304 N 
ATOM     18  C   UNL     1     145.069 170.037 183.256  0.00  0.00    +0.217 C 
ATOM     19  O   UNL     1     143.857 170.022 183.057  0.00  0.00    -0.275 OA
ATOM     20  C   UNL     1     146.072 170.662 182.291  0.00  0.00    +0.036 C 
ATOM     21  C   UNL     1     145.461 171.842 181.516  0.00  0.00    -0.021 C 
ATOM     22  C   UNL     1     145.405 173.130 182.330  0.00  0.00    -0.076 C 
ATOM     23  C   UNL     1     144.242 173.513 182.898  0.00  0.00    -0.082 C 
ATOM     24  H   UNL     1     142.818 174.732 183.838  0.00  0.00    +0.034 HD
ATOM     25  H   UNL     1     144.287 175.669 185.640  0.00  0.00    +0.031 HD
ATOM     26  H   UNL     1     145.632 174.742 185.043  0.00  0.00    +0.031 HD
ATOM     27  H   UNL     1     144.252 172.606 185.453  0.00  0.00    +0.073 HD
ATOM     28  H   UNL     1     146.145 173.491 189.312  0.00  0.00    +0.040 HD
ATOM     29  H   UNL     1     147.204 172.486 188.295  0.00  0.00    +0.040 HD
ATOM     30  H   UNL     1     145.151 171.409 190.299  0.00  0.00    +0.055 HD
ATOM     31  H   UNL     1     146.949 170.004 188.480  0.00  0.00    +0.149 HD
ATOM     32  H   UNL     1     147.044 167.749 188.601  0.00  0.00    +0.060 HD
ATOM     33  H   UNL     1     143.960 169.161 185.502  0.00  0.00    +0.059 HD
ATOM     34  H   UNL     1     146.641 169.520 184.527  0.00  0.00    +0.149 HD
ATOM     35  H   UNL     1     146.951 170.991 182.855  0.00  0.00    +0.039 HD
ATOM     36  H   UNL     1     146.051 172.044 180.612  0.00  0.00    +0.032 HD
ATOM     37  H   UNL     1     144.456 171.584 181.149  0.00  0.00    +0.032 HD
ATOM     38  H   UNL     1     143.384 172.847 182.769  0.00  0.00    +0.057 HD
ENDROOT
BRANCH   8  39
ATOM     39  C   UNL     1     147.139 171.680 191.047  0.00  0.00    -0.026 A 
ATOM     40  C   UNL     1     148.321 170.937 191.209  0.00  0.00    -0.053 A 
ATOM     41  C   UNL     1     149.188 171.204 192.270  0.00  0.00    -0.020 A 
ATOM     42  C   UNL     1     148.874 172.201 193.184  0.00  0.00    +0.117 A 
ATOM     43  C   UNL     1     147.701 172.936 193.059  0.00  0.00    -0.020 A 
ATOM     44  C   UNL     1     146.836 172.672 191.995  0.00  0.00    -0.053 A 
ATOM     45  H   UNL     1     148.576 170.137 190.520  0.00  0.00    +0.062 HD
ATOM     46  H   UNL     1     150.102 170.630 192.388  0.00  0.00    +0.065 HD
ATOM     47  H   UNL     1     147.439 173.707 193.776  0.00  0.00    +0.065 HD
ATOM     48  H   UNL     1     145.907 173.235 191.917  0.00  0.00    +0.062 HD
BRANCH  42  49
ATOM     49  O   UNL     1     149.748 172.423 194.207  0.00  0.00    -0.507 OA
ATOM     50  H   UNL     1     150.355 173.134 193.941  0.00  0.00    +0.292 HD
ENDBRANCH  42  49
ENDBRANCH   8  39
BRANCH   1  51
ATOM     51  C   UNL     1     144.208 176.051 182.972  0.00  0.00    -0.059 C 
ATOM     52  H   UNL     1     143.777 176.074 181.969  0.00  0.00    +0.024 HD
ATOM     53  H   UNL     1     145.289 176.184 182.859  0.00  0.00    +0.024 HD
ATOM     54  H   UNL     1     143.825 176.914 183.529  0.00  0.00    +0.024 HD
ENDBRANCH   1  51
BRANCH  22  55
ATOM     55  C   UNL     1     146.705 173.886 182.387  0.00  0.00    -0.044 C 
ATOM     56  H   UNL     1     147.497 173.334 181.868  0.00  0.00    +0.027 HD
ATOM     57  H   UNL     1     146.593 174.857 181.896  0.00  0.00    +0.027 HD
ATOM     58  H   UNL     1     147.065 174.056 183.401  0.00  0.00    +0.027 HD
ENDBRANCH  22  55
BRANCH  20  59
ATOM     59  C   UNL     1     146.519 169.565 181.320  0.00  0.00    -0.054 C 
ATOM     60  H   UNL     1     147.084 169.992 180.487  0.00  0.00    +0.024 HD
ATOM     61  H   UNL     1     145.659 169.021 180.910  0.00  0.00    +0.024 HD
ATOM     62  H   UNL     1     147.161 168.831 181.818  0.00  0.00    +0.024 HD
ENDBRANCH  20  59
BRANCH  16  63
ATOM     63  C   UNL     1     144.607 167.231 184.722  0.00  0.00    -0.038 C 
ATOM     64  H   UNL     1     143.613 167.164 184.269  0.00  0.00    +0.025 HD
ATOM     65  H   UNL     1     144.656 166.467 185.507  0.00  0.00    +0.025 HD
ATOM     66  H   UNL     1     145.344 166.966 183.957  0.00  0.00    +0.025 HD
ENDBRANCH  16  63
BRANCH  13  67
ATOM     67  C   UNL     1     143.686 168.007 187.940  0.00  0.00    +0.004 C 
ATOM     68  H   UNL     1     143.311 167.131 188.470  0.00  0.00    +0.043 HD
ATOM     69  H   UNL     1     143.191 168.045 186.966  0.00  0.00    +0.043 HD
ATOM     70  H   UNL     1     143.408 168.887 188.516  0.00  0.00    +0.043 HD
ENDBRANCH  13  67
BRANCH   3  71
ATOM     71  C   UNL     1     142.674 173.673 186.488  0.00  0.00    -0.028 C 
ATOM     72  H   UNL     1     142.551 173.282 187.502  0.00  0.00    +0.027 HD
ATOM     73  H   UNL     1     141.988 173.140 185.819  0.00  0.00    +0.027 HD
ATOM     74  H   UNL     1     142.351 174.719 186.491  0.00  0.00    +0.027 HD
ENDBRANCH   3  71
BRANCH  12  75
ATOM     75  C   UNL     1     145.760 166.414 189.669  0.00  0.00    +0.003 C 
ATOM     76  H   UNL     1     145.852 165.550 189.001  0.00  0.00    +0.034 HD
ATOM     77  H   UNL     1     144.723 166.379 190.027  0.00  0.00    +0.034 HD
BRANCH  75  78
ATOM     78  C   UNL     1     146.679 166.253 190.852  0.00  0.00    -0.006 A 
ATOM     79  C   UNL     1     148.058 166.331 190.854  0.00  0.00    +0.087 A 
ATOM     80  N   UNL     1     148.519 166.086 192.113  0.00  0.00    -0.349 N 
ATOM     81  C   UNL     1     147.466 165.857 192.965  0.00  0.00    +0.048 A 
ATOM     82  C   UNL     1     147.463 165.561 194.335  0.00  0.00    -0.038 A 
ATOM     83  C   UNL     1     146.227 165.391 194.959  0.00  0.00    -0.060 A 
ATOM     84  C   UNL     1     145.041 165.514 194.242  0.00  0.00    -0.061 A 
ATOM     85  C   UNL     1     145.061 165.807 192.873  0.00  0.00    -0.052 A 
ATOM     86  C   UNL     1     146.296 165.974 192.210  0.00  0.00    +0.004 A 
ATOM     87 BR   UNL     1     149.197 166.700 189.376  0.00  0.00    -0.031 Br
ATOM     88  H   UNL     1     149.494 166.075 192.376  0.00  0.00    +0.166 HD
ATOM     89  H   UNL     1     148.386 165.470 194.899  0.00  0.00    +0.064 HD
ATOM     90  H   UNL     1     146.190 165.164 196.022  0.00  0.00    +0.062 HD
ATOM     91  H   UNL     1     144.087 165.383 194.748  0.00  0.00    +0.062 HD
ATOM     92  H   UNL     1     144.126 165.912 192.335  0.00  0.00    +0.062 HD
ENDBRANCH  75  78
ENDBRANCH  12  75
TORSDOF 10
ENDMDL
MODEL 7
REMARK VINA RESULT:      -6.9      3.403      9.844
REMARK  Name = Jasplakinolide_conf2
REMARK  10 active torsions:
REMARK  status: ('A' for Active; 'I' for Inactive)
REMARK    1  A    between atoms: C_1  and  C_2
REMARK    2  A    between atoms: C_4  and  C_47
REMARK    3  A    between atoms: C_9  and  C_40
REMARK    4  A    between atoms: C_13  and  C_29
REMARK    5  A    between atoms: N_14  and  C_28
REMARK    6  A    between atoms: C_17  and  C_27
REMARK    7  A    between atoms: C_21  and  C_26
REMARK    8  A    between atoms: C_23  and  C_25
REMARK    9  A    between atoms: C_29  and  C_30
REMARK   10  A    between atoms: C_43  and  O_46
REMARK                            x       y       z     vdW  Elec       q    Type
REMARK                         _______ _______ _______ _____ _____    ______ ____
ROOT
ATOM      1  C   UNL     1     142.694 173.284 184.297  0.00  0.00    -0.022 C 
ATOM      2  C   UNL     1     143.375 173.373 185.674  0.00  0.00    -0.010 C 
ATOM      3  C   UNL     1     143.641 172.014 186.350  0.00  0.00    +0.101 C 
ATOM      4  O   UNL     1     144.514 172.285 187.470  0.00  0.00    -0.462 OA
ATOM      5  C   UNL     1     145.257 171.234 187.918  0.00  0.00    +0.309 C 
ATOM      6  O   UNL     1     145.174 170.090 187.495  0.00  0.00    -0.251 OA
ATOM      7  C   UNL     1     146.247 171.725 188.947  0.00  0.00    +0.067 C 
ATOM      8  C   UNL     1     146.790 170.586 189.817  0.00  0.00    +0.058 C 
ATOM      9  N   UNL     1     147.582 169.643 189.049  0.00  0.00    -0.306 N 
ATOM     10  C   UNL     1     147.623 168.294 189.351  0.00  0.00    +0.234 C 
ATOM     11  O   UNL     1     147.109 167.803 190.351  0.00  0.00    -0.274 OA
ATOM     12  C   UNL     1     148.269 167.456 188.235  0.00  0.00    +0.106 C 
ATOM     13  N   UNL     1     147.305 167.402 187.103  0.00  0.00    -0.291 N 
ATOM     14  C   UNL     1     147.477 168.317 186.064  0.00  0.00    +0.236 C 
ATOM     15  O   UNL     1     148.356 169.191 186.115  0.00  0.00    -0.274 OA
ATOM     16  C   UNL     1     146.565 168.212 184.819  0.00  0.00    +0.097 C 
ATOM     17  N   UNL     1     146.785 169.400 183.991  0.00  0.00    -0.304 N 
ATOM     18  C   UNL     1     145.881 169.822 183.044  0.00  0.00    +0.217 C 
ATOM     19  O   UNL     1     144.806 169.260 182.855  0.00  0.00    -0.275 OA
ATOM     20  C   UNL     1     146.385 170.982 182.190  0.00  0.00    +0.036 C 
ATOM     21  C   UNL     1     145.227 171.826 181.630  0.00  0.00    -0.021 C 
ATOM     22  C   UNL     1     144.645 172.798 182.650  0.00  0.00    -0.076 C 
ATOM     23  C   UNL     1     143.493 172.494 183.284  0.00  0.00    -0.082 C 
ATOM     24  H   UNL     1     141.753 172.736 184.428  0.00  0.00    +0.034 HD
ATOM     25  H   UNL     1     142.762 173.989 186.350  0.00  0.00    +0.031 HD
ATOM     26  H   UNL     1     144.326 173.913 185.593  0.00  0.00    +0.031 HD
ATOM     27  H   UNL     1     144.151 171.344 185.650  0.00  0.00    +0.073 HD
ATOM     28  H   UNL     1     145.737 172.457 189.587  0.00  0.00    +0.040 HD
ATOM     29  H   UNL     1     147.050 172.238 188.406  0.00  0.00    +0.040 HD
ATOM     30  H   UNL     1     145.927 170.036 190.216  0.00  0.00    +0.055 HD
ATOM     31  H   UNL     1     148.007 169.938 188.172  0.00  0.00    +0.149 HD
ATOM     32  H   UNL     1     149.158 168.010 187.911  0.00  0.00    +0.060 HD
ATOM     33  H   UNL     1     145.514 168.210 185.119  0.00  0.00    +0.059 HD
ATOM     34  H   UNL     1     147.616 169.941 184.197  0.00  0.00    +0.149 HD
ATOM     35  H   UNL     1     147.053 171.606 182.794  0.00  0.00    +0.039 HD
ATOM     36  H   UNL     1     145.571 172.412 180.768  0.00  0.00    +0.032 HD
ATOM     37  H   UNL     1     144.433 171.176 181.233  0.00  0.00    +0.032 HD
ATOM     38  H   UNL     1     143.040 171.526 183.051  0.00  0.00    +0.057 HD
ENDROOT
BRANCH   8  39
ATOM     39  C   UNL     1     147.613 171.111 190.983  0.00  0.00    -0.026 A 
ATOM     40  C   UNL     1     148.813 170.497 191.380  0.00  0.00    -0.053 A 
ATOM     41  C   UNL     1     149.548 171.002 192.454  0.00  0.00    -0.020 A 
ATOM     42  C   UNL     1     149.083 172.111 193.148  0.00  0.00    +0.117 A 
ATOM     43  C   UNL     1     147.888 172.724 192.789  0.00  0.00    -0.020 A 
ATOM     44  C   UNL     1     147.155 172.222 191.712  0.00  0.00    -0.053 A 
ATOM     45  H   UNL     1     149.184 169.615 190.866  0.00  0.00    +0.062 HD
ATOM     46  H   UNL     1     150.477 170.526 192.754  0.00  0.00    +0.065 HD
ATOM     47  H   UNL     1     147.509 173.582 193.336  0.00  0.00    +0.065 HD
ATOM     48  H   UNL     1     146.208 172.693 191.452  0.00  0.00    +0.062 HD
BRANCH  42  49
ATOM     49  O   UNL     1     149.832 172.566 194.193  0.00  0.00    -0.507 OA
ATOM     50  H   UNL     1     150.355 171.824 194.540  0.00  0.00    +0.292 HD
ENDBRANCH  42  49
ENDBRANCH   8  39
BRANCH   1  51
ATOM     51  C   UNL     1     142.279 174.667 183.785  0.00  0.00    -0.059 C 
ATOM     52  H   UNL     1     141.763 175.258 184.543  0.00  0.00    +0.024 HD
ATOM     53  H   UNL     1     141.595 174.567 182.936  0.00  0.00    +0.024 HD
ATOM     54  H   UNL     1     143.150 175.237 183.441  0.00  0.00    +0.024 HD
ENDBRANCH   1  51
BRANCH  22  55
ATOM     55  C   UNL     1     145.438 174.065 182.823  0.00  0.00    -0.044 C 
ATOM     56  H   UNL     1     145.586 174.564 181.858  0.00  0.00    +0.027 HD
ATOM     57  H   UNL     1     144.900 174.755 183.480  0.00  0.00    +0.027 HD
ATOM     58  H   UNL     1     146.432 173.903 183.238  0.00  0.00    +0.027 HD
ENDBRANCH  22  55
BRANCH  20  59
ATOM     59  C   UNL     1     147.207 170.384 181.044  0.00  0.00    -0.054 C 
ATOM     60  H   UNL     1     147.779 171.162 180.530  0.00  0.00    +0.024 HD
ATOM     61  H   UNL     1     146.563 169.887 180.309  0.00  0.00    +0.024 HD
ATOM     62  H   UNL     1     147.917 169.636 181.413  0.00  0.00    +0.024 HD
ENDBRANCH  20  59
BRANCH  16  63
ATOM     63  C   UNL     1     146.919 166.958 184.020  0.00  0.00    -0.038 C 
ATOM     64  H   UNL     1     146.276 166.110 184.275  0.00  0.00    +0.025 HD
ATOM     65  H   UNL     1     147.953 166.650 184.217  0.00  0.00    +0.025 HD
ATOM     66  H   UNL     1     146.828 167.138 182.944  0.00  0.00    +0.025 HD
ENDBRANCH  16  63
BRANCH  13  67
ATOM     67  C   UNL     1     146.028 166.727 187.331  0.00  0.00    +0.004 C 
ATOM     68  H   UNL     1     145.622 166.288 186.419  0.00  0.00    +0.043 HD
ATOM     69  H   UNL     1     145.305 167.461 187.699  0.00  0.00    +0.043 HD
ATOM     70  H   UNL     1     146.133 165.932 188.064  0.00  0.00    +0.043 HD
ENDBRANCH  13  67
BRANCH   3  71
ATOM     71  C   UNL     1     142.354 171.367 186.862  0.00  0.00    -0.028 C 
ATOM     72  H   UNL     1     141.519 172.073 186.868  0.00  0.00    +0.027 HD
ATOM     73  H   UNL     1     142.491 170.975 187.876  0.00  0.00    +0.027 HD
ATOM     74  H   UNL     1     142.067 170.515 186.238  0.00  0.00    +0.027 HD
ENDBRANCH   3  71
BRANCH  12  75
ATOM     75  C   UNL     1     148.749 166.087 188.749  0.00  0.00    +0.003 C 
ATOM     76  H   UNL     1     148.666 165.311 187.978  0.00  0.00    +0.034 HD
ATOM     77  H   UNL     1     148.085 165.750 189.555  0.00  0.00    +0.034 HD
BRANCH  75  78
ATOM     78  C   UNL     1     150.158 166.138 189.281  0.00  0.00    -0.006 A 
ATOM     79  C   UNL     1     151.327 165.995 188.562  0.00  0.00    +0.087 A 
ATOM     80  N   UNL     1     152.390 166.061 189.413  0.00  0.00    -0.349 N 
ATOM     81  C   UNL     1     151.951 166.262 190.699  0.00  0.00    +0.048 A 
ATOM     82  C   UNL     1     152.679 166.386 191.891  0.00  0.00    -0.038 A 
ATOM     83  C   UNL     1     151.963 166.604 193.068  0.00  0.00    -0.060 A 
ATOM     84  C   UNL     1     150.575 166.696 193.055  0.00  0.00    -0.061 A 
ATOM     85  C   UNL     1     149.862 166.566 191.856  0.00  0.00    -0.052 A 
ATOM     86  C   UNL     1     150.556 166.334 190.649  0.00  0.00    +0.004 A 
ATOM     87 BR   UNL     1     151.505 165.728 186.686  0.00  0.00    -0.031 Br
ATOM     88  H   UNL     1     153.356 165.974 189.135  0.00  0.00    +0.166 HD
ATOM     89  H   UNL     1     153.762 166.320 191.905  0.00  0.00    +0.064 HD
ATOM     90  H   UNL     1     152.499 166.708 194.009  0.00  0.00    +0.062 HD
ATOM     91  H   UNL     1     150.035 166.872 193.982  0.00  0.00    +0.062 HD
ATOM     92  H   UNL     1     148.782 166.655 191.865  0.00  0.00    +0.062 HD
ENDBRANCH  75  78
ENDBRANCH  12  75
TORSDOF 10
ENDMDL
MODEL 8
REMARK VINA RESULT:      -6.8      3.299      6.820
REMARK  Name = Jasplakinolide_conf2
REMARK  10 active torsions:
REMARK  status: ('A' for Active; 'I' for Inactive)
REMARK    1  A    between atoms: C_1  and  C_2
REMARK    2  A    between atoms: C_4  and  C_47
REMARK    3  A    between atoms: C_9  and  C_40
REMARK    4  A    between atoms: C_13  and  C_29
REMARK    5  A    between atoms: N_14  and  C_28
REMARK    6  A    between atoms: C_17  and  C_27
REMARK    7  A    between atoms: C_21  and  C_26
REMARK    8  A    between atoms: C_23  and  C_25
REMARK    9  A    between atoms: C_29  and  C_30
REMARK   10  A    between atoms: C_43  and  O_46
REMARK                            x       y       z     vdW  Elec       q    Type
REMARK                         _______ _______ _______ _____ _____    ______ ____
ROOT
ATOM      1  C   UNL     1     154.421 164.142 185.717  0.00  0.00    -0.022 C 
ATOM      2  C   UNL     1     154.109 164.401 187.202  0.00  0.00    -0.010 C 
ATOM      3  C   UNL     1     153.097 165.533 187.460  0.00  0.00    +0.101 C 
ATOM      4  O   UNL     1     152.732 165.437 188.855  0.00  0.00    -0.462 OA
ATOM      5  C   UNL     1     151.536 165.992 189.200  0.00  0.00    +0.309 C 
ATOM      6  O   UNL     1     150.811 166.619 188.441  0.00  0.00    -0.251 OA
ATOM      7  C   UNL     1     151.216 165.637 190.633  0.00  0.00    +0.067 C 
ATOM      8  C   UNL     1     150.158 166.567 191.237  0.00  0.00    +0.058 C 
ATOM      9  N   UNL     1     148.869 166.422 190.585  0.00  0.00    -0.306 N 
ATOM     10  C   UNL     1     147.994 167.482 190.436  0.00  0.00    +0.234 C 
ATOM     11  O   UNL     1     148.166 168.587 190.943  0.00  0.00    -0.274 OA
ATOM     12  C   UNL     1     146.846 167.170 189.460  0.00  0.00    +0.106 C 
ATOM     13  N   UNL     1     147.420 167.158 188.087  0.00  0.00    -0.291 N 
ATOM     14  C   UNL     1     147.777 165.923 187.547  0.00  0.00    +0.236 C 
ATOM     15  O   UNL     1     147.687 164.880 188.212  0.00  0.00    -0.274 OA
ATOM     16  C   UNL     1     148.265 165.863 186.080  0.00  0.00    +0.097 C 
ATOM     17  N   UNL     1     148.786 164.517 185.827  0.00  0.00    -0.304 N 
ATOM     18  C   UNL     1     149.642 164.236 184.789  0.00  0.00    +0.217 C 
ATOM     19  O   UNL     1     150.068 165.099 184.026  0.00  0.00    -0.275 OA
ATOM     20  C   UNL     1     149.927 162.747 184.615  0.00  0.00    +0.036 C 
ATOM     21  C   UNL     1     151.289 162.499 183.945  0.00  0.00    -0.021 C 
ATOM     22  C   UNL     1     152.465 162.636 184.905  0.00  0.00    -0.076 C 
ATOM     23  C   UNL     1     153.201 163.767 184.905  0.00  0.00    -0.082 C 
ATOM     24  H   UNL     1     154.788 165.083 185.287  0.00  0.00    +0.034 HD
ATOM     25  H   UNL     1     155.041 164.632 187.740  0.00  0.00    +0.031 HD
ATOM     26  H   UNL     1     153.735 163.485 187.676  0.00  0.00    +0.031 HD
ATOM     27  H   UNL     1     152.204 165.382 186.843  0.00  0.00    +0.073 HD
ATOM     28  H   UNL     1     152.142 165.715 191.218  0.00  0.00    +0.040 HD
ATOM     29  H   UNL     1     150.888 164.592 190.643  0.00  0.00    +0.040 HD
ATOM     30  H   UNL     1     150.492 167.600 191.069  0.00  0.00    +0.055 HD
ATOM     31  H   UNL     1     148.649 165.562 190.088  0.00  0.00    +0.149 HD
ATOM     32  H   UNL     1     146.503 166.158 189.704  0.00  0.00    +0.060 HD
ATOM     33  H   UNL     1     149.087 166.568 185.927  0.00  0.00    +0.059 HD
ATOM     34  H   UNL     1     148.532 163.806 186.502  0.00  0.00    +0.149 HD
ATOM     35  H   UNL     1     149.892 162.261 185.597  0.00  0.00    +0.039 HD
ATOM     36  H   UNL     1     151.321 161.487 183.521  0.00  0.00    +0.032 HD
ATOM     37  H   UNL     1     151.424 163.172 183.085  0.00  0.00    +0.032 HD
ATOM     38  H   UNL     1     152.889 164.562 184.220  0.00  0.00    +0.057 HD
ENDROOT
BRANCH   8  39
ATOM     39  C   UNL     1     150.000 166.344 192.733  0.00  0.00    -0.026 A 
ATOM     40  C   UNL     1     151.104 166.088 193.564  0.00  0.00    -0.053 A 
ATOM     41  C   UNL     1     150.930 165.887 194.935  0.00  0.00    -0.020 A 
ATOM     42  C   UNL     1     149.654 165.925 195.481  0.00  0.00    +0.117 A 
ATOM     43  C   UNL     1     148.543 166.155 194.678  0.00  0.00    -0.020 A 
ATOM     44  C   UNL     1     148.718 166.360 193.307  0.00  0.00    -0.053 A 
ATOM     45  H   UNL     1     152.109 166.031 193.155  0.00  0.00    +0.062 HD
ATOM     46  H   UNL     1     151.787 165.694 195.573  0.00  0.00    +0.065 HD
ATOM     47  H   UNL     1     147.541 166.171 195.093  0.00  0.00    +0.065 HD
ATOM     48  H   UNL     1     147.841 166.516 192.680  0.00  0.00    +0.062 HD
BRANCH  42  49
ATOM     49  O   UNL     1     149.532 165.719 196.824  0.00  0.00    -0.507 OA
ATOM     50  H   UNL     1     148.589 165.614 197.032  0.00  0.00    +0.292 HD
ENDBRANCH  42  49
ENDBRANCH   8  39
BRANCH   1  51
ATOM     51  C   UNL     1     155.579 163.153 185.549  0.00  0.00    -0.059 C 
ATOM     52  H   UNL     1     156.184 163.058 186.453  0.00  0.00    +0.024 HD
ATOM     53  H   UNL     1     156.248 163.486 184.749  0.00  0.00    +0.024 HD
ATOM     54  H   UNL     1     155.209 162.158 185.279  0.00  0.00    +0.024 HD
ENDBRANCH   1  51
BRANCH  22  55
ATOM     55  C   UNL     1     152.708 161.427 185.767  0.00  0.00    -0.044 C 
ATOM     56  H   UNL     1     151.862 161.257 186.443  0.00  0.00    +0.027 HD
ATOM     57  H   UNL     1     152.821 160.538 185.138  0.00  0.00    +0.027 HD
ATOM     58  H   UNL     1     153.591 161.513 186.398  0.00  0.00    +0.027 HD
ENDBRANCH  22  55
BRANCH  20  59
ATOM     59  C   UNL     1     148.800 162.161 183.759  0.00  0.00    -0.054 C 
ATOM     60  H   UNL     1     149.208 161.611 182.906  0.00  0.00    +0.024 HD
ATOM     61  H   UNL     1     148.140 162.948 183.377  0.00  0.00    +0.024 HD
ATOM     62  H   UNL     1     148.180 161.468 184.338  0.00  0.00    +0.024 HD
ENDBRANCH  20  59
BRANCH  16  63
ATOM     63  C   UNL     1     147.102 166.149 185.132  0.00  0.00    -0.038 C 
ATOM     64  H   UNL     1     147.100 167.186 184.780  0.00  0.00    +0.025 HD
ATOM     65  H   UNL     1     146.141 165.977 185.632  0.00  0.00    +0.025 HD
ATOM     66  H   UNL     1     147.140 165.496 184.254  0.00  0.00    +0.025 HD
ENDBRANCH  16  63
BRANCH  13  67
ATOM     67  C   UNL     1     147.968 168.412 187.569  0.00  0.00    +0.004 C 
ATOM     68  H   UNL     1     149.018 168.543 187.828  0.00  0.00    +0.043 HD
ATOM     69  H   UNL     1     147.409 169.244 188.005  0.00  0.00    +0.043 HD
ATOM     70  H   UNL     1     147.885 168.455 186.486  0.00  0.00    +0.043 HD
ENDBRANCH  13  67
BRANCH   3  71
ATOM     71  C   UNL     1     153.699 166.913 187.192  0.00  0.00    -0.028 C 
ATOM     72  H   UNL     1     153.029 167.539 186.597  0.00  0.00    +0.027 HD
ATOM     73  H   UNL     1     154.658 166.826 186.669  0.00  0.00    +0.027 HD
ATOM     74  H   UNL     1     153.905 167.440 188.129  0.00  0.00    +0.027 HD
ENDBRANCH   3  71
BRANCH  12  75
ATOM     75  C   UNL     1     145.649 168.117 189.659  0.00  0.00    +0.003 C 
ATOM     76  H   UNL     1     145.413 168.672 188.743  0.00  0.00    +0.034 HD
ATOM     77  H   UNL     1     145.916 168.890 190.391  0.00  0.00    +0.034 HD
BRANCH  75  78
ATOM     78  C   UNL     1     144.424 167.393 190.154  0.00  0.00    -0.006 A 
ATOM     79  C   UNL     1     143.261 167.145 189.453  0.00  0.00    +0.087 A 
ATOM     80  N   UNL     1     142.375 166.502 190.266  0.00  0.00    -0.349 N 
ATOM     81  C   UNL     1     142.934 166.299 191.505  0.00  0.00    +0.048 A 
ATOM     82  C   UNL     1     142.396 165.690 192.647  0.00  0.00    -0.038 A 
ATOM     83  C   UNL     1     143.206 165.607 193.779  0.00  0.00    -0.060 A 
ATOM     84  C   UNL     1     144.503 166.111 193.770  0.00  0.00    -0.061 A 
ATOM     85  C   UNL     1     145.024 166.720 192.621  0.00  0.00    -0.052 A 
ATOM     86  C   UNL     1     144.226 166.830 191.463  0.00  0.00    +0.004 A 
ATOM     87 BR   UNL     1     142.877 167.611 187.649  0.00  0.00    -0.031 Br
ATOM     88  H   UNL     1     141.446 166.218 189.993  0.00  0.00    +0.166 HD
ATOM     89  H   UNL     1     141.386 165.291 192.657  0.00  0.00    +0.064 HD
ATOM     90  H   UNL     1     142.819 165.137 194.681  0.00  0.00    +0.062 HD
ATOM     91  H   UNL     1     145.121 166.031 194.661  0.00  0.00    +0.062 HD
ATOM     92  H   UNL     1     146.042 167.094 192.630  0.00  0.00    +0.062 HD
ENDBRANCH  75  78
ENDBRANCH  12  75
TORSDOF 10
ENDMDL
MODEL 9
REMARK VINA RESULT:      -6.8      7.226     13.432
REMARK  Name = Jasplakinolide_conf2
REMARK  10 active torsions:
REMARK  status: ('A' for Active; 'I' for Inactive)
REMARK    1  A    between atoms: C_1  and  C_2
REMARK    2  A    between atoms: C_4  and  C_47
REMARK    3  A    between atoms: C_9  and  C_40
REMARK    4  A    between atoms: C_13  and  C_29
REMARK    5  A    between atoms: N_14  and  C_28
REMARK    6  A    between atoms: C_17  and  C_27
REMARK    7  A    between atoms: C_21  and  C_26
REMARK    8  A    between atoms: C_23  and  C_25
REMARK    9  A    between atoms: C_29  and  C_30
REMARK   10  A    between atoms: C_43  and  O_46
REMARK                            x       y       z     vdW  Elec       q    Type
REMARK                         _______ _______ _______ _____ _____    ______ ____
ROOT
ATOM      1  C   UNL     1     135.472 173.804 192.253  0.00  0.00    -0.022 C 
ATOM      2  C   UNL     1     136.148 172.464 191.910  0.00  0.00    -0.010 C 
ATOM      3  C   UNL     1     137.318 172.570 190.913  0.00  0.00    +0.101 C 
ATOM      4  O   UNL     1     137.983 171.286 190.936  0.00  0.00    -0.462 OA
ATOM      5  C   UNL     1     139.283 171.279 190.525  0.00  0.00    +0.309 C 
ATOM      6  O   UNL     1     139.880 172.247 190.076  0.00  0.00    -0.251 OA
ATOM      7  C   UNL     1     139.883 169.920 190.793  0.00  0.00    +0.067 C 
ATOM      8  C   UNL     1     141.154 169.676 189.972  0.00  0.00    +0.058 C 
ATOM      9  N   UNL     1     142.230 170.572 190.353  0.00  0.00    -0.306 N 
ATOM     10  C   UNL     1     143.164 171.033 189.445  0.00  0.00    +0.234 C 
ATOM     11  O   UNL     1     143.244 170.635 188.286  0.00  0.00    -0.274 OA
ATOM     12  C   UNL     1     144.009 172.193 189.999  0.00  0.00    +0.106 C 
ATOM     13  N   UNL     1     143.135 173.396 190.052  0.00  0.00    -0.291 N 
ATOM     14  C   UNL     1     142.521 173.695 191.268  0.00  0.00    +0.236 C 
ATOM     15  O   UNL     1     142.640 172.947 192.251  0.00  0.00    -0.274 OA
ATOM     16  C   UNL     1     141.701 175.002 191.388  0.00  0.00    +0.097 C 
ATOM     17  N   UNL     1     140.983 174.974 192.665  0.00  0.00    -0.304 N 
ATOM     18  C   UNL     1     139.882 175.759 192.914  0.00  0.00    +0.217 C 
ATOM     19  O   UNL     1     139.395 176.507 192.070  0.00  0.00    -0.275 OA
ATOM     20  C   UNL     1     139.393 175.689 194.357  0.00  0.00    +0.036 C 
ATOM     21  C   UNL     1     137.893 176.011 194.470  0.00  0.00    -0.021 C 
ATOM     22  C   UNL     1     136.997 174.840 194.084  0.00  0.00    -0.076 C 
ATOM     23  C   UNL     1     136.418 174.813 192.865  0.00  0.00    -0.082 C 
ATOM     24  H   UNL     1     135.128 174.251 191.311  0.00  0.00    +0.034 HD
ATOM     25  H   UNL     1     135.400 171.767 191.504  0.00  0.00    +0.031 HD
ATOM     26  H   UNL     1     136.512 171.979 192.823  0.00  0.00    +0.031 HD
ATOM     27  H   UNL     1     138.019 173.345 191.242  0.00  0.00    +0.073 HD
ATOM     28  H   UNL     1     139.134 169.160 190.535  0.00  0.00    +0.040 HD
ATOM     29  H   UNL     1     140.080 169.858 191.870  0.00  0.00    +0.040 HD
ATOM     30  H   UNL     1     140.913 169.887 188.921  0.00  0.00    +0.055 HD
ATOM     31  H   UNL     1     142.226 171.000 191.277  0.00  0.00    +0.149 HD
ATOM     32  H   UNL     1     144.279 171.912 191.024  0.00  0.00    +0.060 HD
ATOM     33  H   UNL     1     140.954 175.053 190.591  0.00  0.00    +0.059 HD
ATOM     34  H   UNL     1     141.302 174.291 193.342  0.00  0.00    +0.149 HD
ATOM     35  H   UNL     1     139.598 174.689 194.755  0.00  0.00    +0.039 HD
ATOM     36  H   UNL     1     137.646 176.295 195.501  0.00  0.00    +0.032 HD
ATOM     37  H   UNL     1     137.641 176.894 193.863  0.00  0.00    +0.032 HD
ATOM     38  H   UNL     1     136.652 175.638 192.187  0.00  0.00    +0.057 HD
ENDROOT
BRANCH   8  39
ATOM     39  C   UNL     1     141.627 168.235 190.082  0.00  0.00    -0.026 A 
ATOM     40  C   UNL     1     142.090 167.696 191.294  0.00  0.00    -0.053 A 
ATOM     41  C   UNL     1     142.518 166.370 191.366  0.00  0.00    -0.020 A 
ATOM     42  C   UNL     1     142.502 165.577 190.226  0.00  0.00    +0.117 A 
ATOM     43  C   UNL     1     142.069 166.091 189.009  0.00  0.00    -0.020 A 
ATOM     44  C   UNL     1     141.637 167.417 188.938  0.00  0.00    -0.053 A 
ATOM     45  H   UNL     1     142.133 168.305 192.194  0.00  0.00    +0.062 HD
ATOM     46  H   UNL     1     142.871 165.958 192.307  0.00  0.00    +0.065 HD
ATOM     47  H   UNL     1     142.068 165.484 188.109  0.00  0.00    +0.065 HD
ATOM     48  H   UNL     1     141.322 167.820 187.977  0.00  0.00    +0.062 HD
BRANCH  42  49
ATOM     49  O   UNL     1     142.934 164.289 190.342  0.00  0.00    -0.507 OA
ATOM     50  H   UNL     1     142.807 164.006 191.263  0.00  0.00    +0.292 HD
ENDBRANCH  42  49
ENDBRANCH   8  39
BRANCH   1  51
ATOM     51  C   UNL     1     134.200 173.596 193.080  0.00  0.00    -0.059 C 
ATOM     52  H   UNL     1     134.265 174.048 194.072  0.00  0.00    +0.024 HD
ATOM     53  H   UNL     1     134.014 172.527 193.227  0.00  0.00    +0.024 HD
ATOM     54  H   UNL     1     133.326 174.016 192.569  0.00  0.00    +0.024 HD
ENDBRANCH   1  51
BRANCH  22  55
ATOM     55  C   UNL     1     136.821 173.810 195.166  0.00  0.00    -0.044 C 
ATOM     56  H   UNL     1     137.305 172.867 194.886  0.00  0.00    +0.027 HD
ATOM     57  H   UNL     1     137.281 174.162 196.095  0.00  0.00    +0.027 HD
ATOM     58  H   UNL     1     135.779 173.569 195.372  0.00  0.00    +0.027 HD
ENDBRANCH  22  55
BRANCH  20  59
ATOM     59  C   UNL     1     140.213 176.696 195.169  0.00  0.00    -0.054 C 
ATOM     60  H   UNL     1     140.312 176.368 196.208  0.00  0.00    +0.024 HD
ATOM     61  H   UNL     1     139.746 177.687 195.163  0.00  0.00    +0.024 HD
ATOM     62  H   UNL     1     141.222 176.810 194.758  0.00  0.00    +0.024 HD
ENDBRANCH  20  59
BRANCH  16  63
ATOM     63  C   UNL     1     142.638 176.208 191.353  0.00  0.00    -0.038 C 
ATOM     64  H   UNL     1     143.348 176.156 190.522  0.00  0.00    +0.025 HD
ATOM     65  H   UNL     1     143.226 176.271 192.276  0.00  0.00    +0.025 HD
ATOM     66  H   UNL     1     142.074 177.142 191.256  0.00  0.00    +0.025 HD
ENDBRANCH  16  63
BRANCH  13  67
ATOM     67  C   UNL     1     142.632 173.925 188.785  0.00  0.00    +0.004 C 
ATOM     68  H   UNL     1     142.325 174.968 188.864  0.00  0.00    +0.043 HD
ATOM     69  H   UNL     1     141.758 173.341 188.484  0.00  0.00    +0.043 HD
ATOM     70  H   UNL     1     143.390 173.860 188.008  0.00  0.00    +0.043 HD
ENDBRANCH  13  67
BRANCH   3  71
ATOM     71  C   UNL     1     136.835 172.859 189.491  0.00  0.00    -0.028 C 
ATOM     72  H   UNL     1     136.605 173.919 189.350  0.00  0.00    +0.027 HD
ATOM     73  H   UNL     1     135.943 172.270 189.254  0.00  0.00    +0.027 HD
ATOM     74  H   UNL     1     137.594 172.581 188.754  0.00  0.00    +0.027 HD
ENDBRANCH   3  71
BRANCH  12  75
ATOM     75  C   UNL     1     145.322 172.373 189.216  0.00  0.00    +0.003 C 
ATOM     76  H   UNL     1     145.572 173.432 189.082  0.00  0.00    +0.034 HD
ATOM     77  H   UNL     1     145.192 171.987 188.197  0.00  0.00    +0.034 HD
BRANCH  75  78
ATOM     78  C   UNL     1     146.475 171.647 189.858  0.00  0.00    -0.006 A 
ATOM     79  C   UNL     1     147.086 170.491 189.413  0.00  0.00    +0.087 A 
ATOM     80  N   UNL     1     148.061 170.130 190.294  0.00  0.00    -0.349 N 
ATOM     81  C   UNL     1     148.126 171.038 191.324  0.00  0.00    +0.048 A 
ATOM     82  C   UNL     1     148.964 171.069 192.447  0.00  0.00    -0.038 A 
ATOM     83  C   UNL     1     148.819 172.135 193.335  0.00  0.00    -0.060 A 
ATOM     84  C   UNL     1     147.875 173.131 193.108  0.00  0.00    -0.061 A 
ATOM     85  C   UNL     1     147.043 173.084 191.982  0.00  0.00    -0.052 A 
ATOM     86  C   UNL     1     147.157 172.014 191.071  0.00  0.00    +0.004 A 
ATOM     87 BR   UNL     1     146.675 169.499 187.843  0.00  0.00    -0.031 Br
ATOM     88  H   UNL     1     148.647 169.314 190.200  0.00  0.00    +0.166 HD
ATOM     89  H   UNL     1     149.705 170.295 192.625  0.00  0.00    +0.064 HD
ATOM     90  H   UNL     1     149.456 172.189 194.215  0.00  0.00    +0.062 HD
ATOM     91  H   UNL     1     147.781 173.957 193.810  0.00  0.00    +0.062 HD
ATOM     92  H   UNL     1     146.324 173.878 191.816  0.00  0.00    +0.062 HD
ENDBRANCH  75  78
ENDBRANCH  12  75
TORSDOF 10
ENDMDL
MODEL 10
REMARK VINA RESULT:      -6.7     15.493     21.884
REMARK  Name = Jasplakinolide_conf2
REMARK  10 active torsions:
REMARK  status: ('A' for Active; 'I' for Inactive)
REMARK    1  A    between atoms: C_1  and  C_2
REMARK    2  A    between atoms: C_4  and  C_47
REMARK    3  A    between atoms: C_9  and  C_40
REMARK    4  A    between atoms: C_13  and  C_29
REMARK    5  A    between atoms: N_14  and  C_28
REMARK    6  A    between atoms: C_17  and  C_27
REMARK    7  A    between atoms: C_21  and  C_26
REMARK    8  A    between atoms: C_23  and  C_25
REMARK    9  A    between atoms: C_29  and  C_30
REMARK   10  A    between atoms: C_43  and  O_46
REMARK                            x       y       z     vdW  Elec       q    Type
REMARK                         _______ _______ _______ _____ _____    ______ ____
ROOT
ATOM      1  C   UNL     1     142.934 185.949 198.276  0.00  0.00    -0.022 C 
ATOM      2  C   UNL     1     143.269 184.993 197.117  0.00  0.00    -0.010 C 
ATOM      3  C   UNL     1     143.369 185.666 195.735  0.00  0.00    +0.101 C 
ATOM      4  O   UNL     1     143.952 184.683 194.849  0.00  0.00    -0.462 OA
ATOM      5  C   UNL     1     144.569 185.172 193.737  0.00  0.00    +0.309 C 
ATOM      6  O   UNL     1     144.591 186.350 193.409  0.00  0.00    -0.251 OA
ATOM      7  C   UNL     1     145.287 184.047 193.029  0.00  0.00    +0.067 C 
ATOM      8  C   UNL     1     145.610 184.393 191.572  0.00  0.00    +0.058 C 
ATOM      9  N   UNL     1     146.563 185.483 191.468  0.00  0.00    -0.306 N 
ATOM     10  C   UNL     1     146.533 186.393 190.428  0.00  0.00    +0.234 C 
ATOM     11  O   UNL     1     145.797 186.290 189.451  0.00  0.00    -0.274 OA
ATOM     12  C   UNL     1     147.426 187.619 190.687  0.00  0.00    +0.106 C 
ATOM     13  N   UNL     1     146.757 188.446 191.727  0.00  0.00    -0.291 N 
ATOM     14  C   UNL     1     147.169 188.277 193.049  0.00  0.00    +0.236 C 
ATOM     15  O   UNL     1     148.010 187.418 193.357  0.00  0.00    -0.274 OA
ATOM     16  C   UNL     1     146.578 189.203 194.138  0.00  0.00    +0.097 C 
ATOM     17  N   UNL     1     146.986 188.686 195.447  0.00  0.00    -0.304 N 
ATOM     18  C   UNL     1     146.331 189.014 196.611  0.00  0.00    +0.217 C 
ATOM     19  O   UNL     1     145.332 189.728 196.633  0.00  0.00    -0.275 OA
ATOM     20  C   UNL     1     147.021 188.496 197.869  0.00  0.00    +0.036 C 
ATOM     21  C   UNL     1     146.027 188.298 199.027  0.00  0.00    -0.021 C 
ATOM     22  C   UNL     1     145.220 187.010 198.910  0.00  0.00    -0.076 C 
ATOM     23  C   UNL     1     143.951 187.055 198.453  0.00  0.00    -0.082 C 
ATOM     24  H   UNL     1     141.989 186.449 198.029  0.00  0.00    +0.034 HD
ATOM     25  H   UNL     1     142.513 184.195 197.066  0.00  0.00    +0.031 HD
ATOM     26  H   UNL     1     144.212 184.469 197.318  0.00  0.00    +0.031 HD
ATOM     27  H   UNL     1     144.032 186.537 195.792  0.00  0.00    +0.073 HD
ATOM     28  H   UNL     1     144.639 183.160 193.056  0.00  0.00    +0.040 HD
ATOM     29  H   UNL     1     146.195 183.829 193.604  0.00  0.00    +0.040 HD
ATOM     30  H   UNL     1     144.678 184.730 191.098  0.00  0.00    +0.055 HD
ATOM     31  H   UNL     1     147.182 185.687 192.249  0.00  0.00    +0.149 HD
ATOM     32  H   UNL     1     148.365 187.231 191.099  0.00  0.00    +0.060 HD
ATOM     33  H   UNL     1     145.485 189.180 194.102  0.00  0.00    +0.059 HD
ATOM     34  H   UNL     1     147.744 188.015 195.446  0.00  0.00    +0.149 HD
ATOM     35  H   UNL     1     147.526 187.552 197.636  0.00  0.00    +0.039 HD
ATOM     36  H   UNL     1     146.565 188.269 199.984  0.00  0.00    +0.032 HD
ATOM     37  H   UNL     1     145.351 189.162 199.107  0.00  0.00    +0.032 HD
ATOM     38  H   UNL     1     143.567 188.033 198.151  0.00  0.00    +0.057 HD
ENDROOT
BRANCH   8  39
ATOM     39  C   UNL     1     146.133 183.185 190.809  0.00  0.00    -0.026 A 
ATOM     40  C   UNL     1     145.296 182.114 190.452  0.00  0.00    -0.053 A 
ATOM     41  C   UNL     1     145.803 181.018 189.752  0.00  0.00    -0.020 A 
ATOM     42  C   UNL     1     147.150 180.976 189.419  0.00  0.00    +0.117 A 
ATOM     43  C   UNL     1     148.004 182.012 189.778  0.00  0.00    -0.020 A 
ATOM     44  C   UNL     1     147.496 183.110 190.475  0.00  0.00    -0.053 A 
ATOM     45  H   UNL     1     144.243 182.115 190.723  0.00  0.00    +0.062 HD
ATOM     46  H   UNL     1     145.150 180.196 189.475  0.00  0.00    +0.065 HD
ATOM     47  H   UNL     1     149.062 181.981 189.536  0.00  0.00    +0.065 HD
ATOM     48  H   UNL     1     148.176 183.906 190.775  0.00  0.00    +0.062 HD
BRANCH  42  49
ATOM     49  O   UNL     1     147.602 179.883 188.739  0.00  0.00    -0.507 OA
ATOM     50  H   UNL     1     148.228 179.406 189.309  0.00  0.00    +0.292 HD
ENDBRANCH  42  49
ENDBRANCH   8  39
BRANCH   1  51
ATOM     51  C   UNL     1     142.650 185.183 199.572  0.00  0.00    -0.059 C 
ATOM     52  H   UNL     1     141.586 185.140 199.809  0.00  0.00    +0.024 HD
ATOM     53  H   UNL     1     143.147 185.671 200.417  0.00  0.00    +0.024 HD
ATOM     54  H   UNL     1     143.030 184.157 199.513  0.00  0.00    +0.024 HD
ENDBRANCH   1  51
BRANCH  22  55
ATOM     55  C   UNL     1     145.948 185.776 199.370  0.00  0.00    -0.044 C 
ATOM     56  H   UNL     1     145.268 185.103 199.906  0.00  0.00    +0.027 HD
ATOM     57  H   UNL     1     146.346 185.235 198.507  0.00  0.00    +0.027 HD
ATOM     58  H   UNL     1     146.771 185.985 200.052  0.00  0.00    +0.027 HD
ENDBRANCH  22  55
BRANCH  20  59
ATOM     59  C   UNL     1     148.092 189.519 198.260  0.00  0.00    -0.054 C 
ATOM     60  H   UNL     1     147.980 190.439 197.679  0.00  0.00    +0.024 HD
ATOM     61  H   UNL     1     149.101 189.125 198.090  0.00  0.00    +0.024 HD
ATOM     62  H   UNL     1     148.020 189.783 199.321  0.00  0.00    +0.024 HD
ENDBRANCH  20  59
BRANCH  16  63
ATOM     63  C   UNL     1     147.112 190.623 193.959  0.00  0.00    -0.038 C 
ATOM     64  H   UNL     1     148.172 190.635 193.685  0.00  0.00    +0.025 HD
ATOM     65  H   UNL     1     147.012 191.198 194.888  0.00  0.00    +0.025 HD
ATOM     66  H   UNL     1     146.557 191.157 193.180  0.00  0.00    +0.025 HD
ENDBRANCH  16  63
BRANCH  13  67
ATOM     67  C   UNL     1     145.463 189.040 191.394  0.00  0.00    +0.004 C 
ATOM     68  H   UNL     1     144.780 188.320 190.942  0.00  0.00    +0.043 HD
ATOM     69  H   UNL     1     145.623 189.846 190.674  0.00  0.00    +0.043 HD
ATOM     70  H   UNL     1     144.980 189.444 192.281  0.00  0.00    +0.043 HD
ENDBRANCH  13  67
BRANCH   3  71
ATOM     71  C   UNL     1     141.999 186.077 195.196  0.00  0.00    -0.028 C 
ATOM     72  H   UNL     1     141.855 187.160 195.237  0.00  0.00    +0.027 HD
ATOM     73  H   UNL     1     141.196 185.593 195.763  0.00  0.00    +0.027 HD
ATOM     74  H   UNL     1     141.875 185.762 194.156  0.00  0.00    +0.027 HD
ENDBRANCH   3  71
BRANCH  12  75
ATOM     75  C   UNL     1     147.772 188.363 189.385  0.00  0.00    +0.003 C 
ATOM     76  H   UNL     1     147.003 189.099 189.120  0.00  0.00    +0.034 HD
ATOM     77  H   UNL     1     147.774 187.651 188.550  0.00  0.00    +0.034 HD
BRANCH  75  78
ATOM     78  C   UNL     1     149.123 189.027 189.448  0.00  0.00    -0.006 A 
ATOM     79  C   UNL     1     150.308 188.561 188.914  0.00  0.00    +0.087 A 
ATOM     80  N   UNL     1     151.312 189.430 189.222  0.00  0.00    -0.349 N 
ATOM     81  C   UNL     1     150.815 190.486 189.947  0.00  0.00    +0.048 A 
ATOM     82  C   UNL     1     151.474 191.603 190.479  0.00  0.00    -0.038 A 
ATOM     83  C   UNL     1     150.706 192.541 191.168  0.00  0.00    -0.060 A 
ATOM     84  C   UNL     1     149.333 192.371 191.318  0.00  0.00    -0.061 A 
ATOM     85  C   UNL     1     148.691 191.248 190.782  0.00  0.00    -0.052 A 
ATOM     86  C   UNL     1     149.441 190.274 190.089  0.00  0.00    +0.004 A 
ATOM     87 BR   UNL     1     150.576 186.965 187.913  0.00  0.00    -0.031 Br
ATOM     88  H   UNL     1     152.278 189.310 188.954  0.00  0.00    +0.166 HD
ATOM     89  H   UNL     1     152.544 191.742 190.359  0.00  0.00    +0.064 HD
ATOM     90  H   UNL     1     151.187 193.421 191.590  0.00  0.00    +0.062 HD
ATOM     91  H   UNL     1     148.751 193.117 191.853  0.00  0.00    +0.062 HD
ATOM     92  H   UNL     1     147.618 191.140 190.898  0.00  0.00    +0.062 HD
ENDBRANCH  75  78
ENDBRANCH  12  75
TORSDOF 10
ENDMDL
