MODEL 1
REMARK VINA RESULT:      -6.9      0.000      0.000
REMARK  Name = Jasplakinolide_conf1
REMARK  10 active torsions:
REMARK  status: ('A' for Active; 'I' for Inactive)
REMARK    1  A    between atoms: C_1  and  C_2
REMARK    2  A    between atoms: C_4  and  C_47
REMARK    3  A    between atoms: C_9  and  C_40
REMARK    4  A    between atoms: C_13  and  C_29
REMARK    5  A    between atoms: N_14  and  C_28
REMARK    6  A    between atoms: C_17  and  C_27
REMARK    7  A    between atoms: C_21  and  C_26
REMARK    8  A    between atoms: C_23  and  C_25
REMARK    9  A    between atoms: C_29  and  C_30
REMARK   10  A    between atoms: C_43  and  O_46
REMARK                            x       y       z     vdW  Elec       q    Type
REMARK                         _______ _______ _______ _____ _____    ______ ____
ROOT
ATOM      1  C   UNL     1     143.701 163.983 188.359  0.00  0.00    -0.022 C 
ATOM      2  C   UNL     1     143.120 163.642 189.753  0.00  0.00    -0.010 C 
ATOM      3  C   UNL     1     142.998 164.820 190.739  0.00  0.00    +0.101 C 
ATOM      4  O   UNL     1     144.331 165.289 191.027  0.00  0.00    -0.462 OA
ATOM      5  C   UNL     1     144.496 165.959 192.196  0.00  0.00    +0.309 C 
ATOM      6  O   UNL     1     143.620 166.152 193.030  0.00  0.00    -0.251 OA
ATOM      7  C   UNL     1     145.929 166.369 192.402  0.00  0.00    +0.067 C 
ATOM      8  C   UNL     1     146.510 167.135 191.209  0.00  0.00    +0.058 C 
ATOM      9  N   UNL     1     145.854 168.419 191.020  0.00  0.00    -0.306 N 
ATOM     10  C   UNL     1     145.563 168.925 189.766  0.00  0.00    +0.234 C 
ATOM     11  O   UNL     1     145.826 168.318 188.729  0.00  0.00    -0.274 OA
ATOM     12  C   UNL     1     144.893 170.322 189.782  0.00  0.00    +0.106 C 
ATOM     13  N   UNL     1     143.813 170.379 188.767  0.00  0.00    -0.291 N 
ATOM     14  C   UNL     1     142.516 170.091 189.174  0.00  0.00    +0.236 C 
ATOM     15  O   UNL     1     142.277 169.683 190.317  0.00  0.00    -0.274 OA
ATOM     16  C   UNL     1     141.360 170.252 188.161  0.00  0.00    +0.097 C 
ATOM     17  N   UNL     1     140.856 168.915 187.866  0.00  0.00    -0.304 N 
ATOM     18  C   UNL     1     140.982 168.333 186.628  0.00  0.00    +0.217 C 
ATOM     19  O   UNL     1     141.450 168.920 185.657  0.00  0.00    -0.275 OA
ATOM     20  C   UNL     1     140.443 166.911 186.553  0.00  0.00    +0.036 C 
ATOM     21  C   UNL     1     141.428 165.979 185.830  0.00  0.00    -0.021 C 
ATOM     22  C   UNL     1     142.634 165.617 186.683  0.00  0.00    -0.076 C 
ATOM     23  C   UNL     1     142.623 164.489 187.422  0.00  0.00    -0.082 C 
ATOM     24  H   UNL     1     144.499 164.722 188.488  0.00  0.00    +0.034 HD
ATOM     25  H   UNL     1     142.140 163.159 189.649  0.00  0.00    +0.031 HD
ATOM     26  H   UNL     1     143.781 162.903 190.226  0.00  0.00    +0.031 HD
ATOM     27  H   UNL     1     142.551 164.415 191.657  0.00  0.00    +0.073 HD
ATOM     28  H   UNL     1     146.503 165.458 192.608  0.00  0.00    +0.040 HD
ATOM     29  H   UNL     1     145.956 166.984 193.310  0.00  0.00    +0.040 HD
ATOM     30  H   UNL     1     146.351 166.533 190.305  0.00  0.00    +0.055 HD
ATOM     31  H   UNL     1     145.739 169.021 191.827  0.00  0.00    +0.149 HD
ATOM     32  H   UNL     1     144.419 170.429 190.765  0.00  0.00    +0.060 HD
ATOM     33  H   UNL     1     141.688 170.748 187.246  0.00  0.00    +0.059 HD
ATOM     34  H   UNL     1     140.556 168.356 188.657  0.00  0.00    +0.149 HD
ATOM     35  H   UNL     1     140.260 166.531 187.566  0.00  0.00    +0.039 HD
ATOM     36  H   UNL     1     140.904 165.054 185.552  0.00  0.00    +0.032 HD
ATOM     37  H   UNL     1     141.765 166.414 184.881  0.00  0.00    +0.032 HD
ATOM     38  H   UNL     1     141.737 163.855 187.370  0.00  0.00    +0.057 HD
ENDROOT
BRANCH   8  39
ATOM     39  C   UNL     1     148.010 167.364 191.356  0.00  0.00    -0.026 A 
ATOM     40  C   UNL     1     148.874 167.411 190.247  0.00  0.00    -0.053 A 
ATOM     41  C   UNL     1     150.248 167.595 190.421  0.00  0.00    -0.020 A 
ATOM     42  C   UNL     1     150.771 167.713 191.701  0.00  0.00    +0.117 A 
ATOM     43  C   UNL     1     149.943 167.662 192.816  0.00  0.00    -0.020 A 
ATOM     44  C   UNL     1     148.567 167.483 192.641  0.00  0.00    -0.053 A 
ATOM     45  H   UNL     1     148.495 167.286 189.236  0.00  0.00    +0.062 HD
ATOM     46  H   UNL     1     150.906 167.632 189.557  0.00  0.00    +0.065 HD
ATOM     47  H   UNL     1     150.341 167.739 193.823  0.00  0.00    +0.065 HD
ATOM     48  H   UNL     1     147.927 167.413 193.520  0.00  0.00    +0.062 HD
BRANCH  42  49
ATOM     49  O   UNL     1     152.122 167.859 191.825  0.00  0.00    -0.507 OA
ATOM     50  H   UNL     1     152.551 167.339 191.123  0.00  0.00    +0.292 HD
ENDBRANCH  42  49
ENDBRANCH   8  39
BRANCH   1  51
ATOM     51  C   UNL     1     144.328 162.732 187.734  0.00  0.00    -0.059 C 
ATOM     52  H   UNL     1     145.266 162.474 188.238  0.00  0.00    +0.024 HD
ATOM     53  H   UNL     1     144.558 162.893 186.674  0.00  0.00    +0.024 HD
ATOM     54  H   UNL     1     143.658 161.866 187.806  0.00  0.00    +0.024 HD
ENDBRANCH   1  51
BRANCH  22  55
ATOM     55  C   UNL     1     143.799 166.568 186.603  0.00  0.00    -0.044 C 
ATOM     56  H   UNL     1     144.542 166.332 187.374  0.00  0.00    +0.027 HD
ATOM     57  H   UNL     1     144.282 166.495 185.625  0.00  0.00    +0.027 HD
ATOM     58  H   UNL     1     143.511 167.610 186.765  0.00  0.00    +0.027 HD
ENDBRANCH  22  55
BRANCH  20  59
ATOM     59  C   UNL     1     139.102 166.958 185.820  0.00  0.00    -0.054 C 
ATOM     60  H   UNL     1     138.304 166.502 186.418  0.00  0.00    +0.024 HD
ATOM     61  H   UNL     1     138.816 167.991 185.598  0.00  0.00    +0.024 HD
ATOM     62  H   UNL     1     139.158 166.412 184.872  0.00  0.00    +0.024 HD
ENDBRANCH  20  59
BRANCH  16  63
ATOM     63  C   UNL     1     140.250 171.100 188.776  0.00  0.00    -0.038 C 
ATOM     64  H   UNL     1     140.576 171.536 189.726  0.00  0.00    +0.025 HD
ATOM     65  H   UNL     1     139.958 171.926 188.117  0.00  0.00    +0.025 HD
ATOM     66  H   UNL     1     139.358 170.494 188.964  0.00  0.00    +0.025 HD
ENDBRANCH  16  63
BRANCH  13  67
ATOM     67  C   UNL     1     144.184 170.565 187.367  0.00  0.00    +0.004 C 
ATOM     68  H   UNL     1     145.266 170.645 187.255  0.00  0.00    +0.043 HD
ATOM     69  H   UNL     1     143.745 171.480 186.960  0.00  0.00    +0.043 HD
ATOM     70  H   UNL     1     143.817 169.702 186.800  0.00  0.00    +0.043 HD
ENDBRANCH  13  67
BRANCH   3  71
ATOM     71  C   UNL     1     142.141 165.977 190.238  0.00  0.00    -0.028 C 
ATOM     72  H   UNL     1     142.524 166.931 190.617  0.00  0.00    +0.027 HD
ATOM     73  H   UNL     1     142.176 166.059 189.149  0.00  0.00    +0.027 HD
ATOM     74  H   UNL     1     141.106 165.882 190.571  0.00  0.00    +0.027 HD
ENDBRANCH   3  71
BRANCH  12  75
ATOM     75  C   UNL     1     145.919 171.464 189.643  0.00  0.00    +0.003 C 
ATOM     76  H   UNL     1     146.807 171.117 189.107  0.00  0.00    +0.034 HD
ATOM     77  H   UNL     1     145.488 172.252 189.011  0.00  0.00    +0.034 HD
BRANCH  75  78
ATOM     78  C   UNL     1     146.336 172.080 190.946  0.00  0.00    -0.006 A 
ATOM     79  C   UNL     1     145.597 172.927 191.746  0.00  0.00    +0.087 A 
ATOM     80  N   UNL     1     146.352 173.304 192.816  0.00  0.00    -0.349 N 
ATOM     81  C   UNL     1     147.588 172.704 192.755  0.00  0.00    +0.048 A 
ATOM     82  C   UNL     1     148.680 172.807 193.624  0.00  0.00    -0.038 A 
ATOM     83  C   UNL     1     149.828 172.076 193.308  0.00  0.00    -0.060 A 
ATOM     84  C   UNL     1     149.876 171.273 192.172  0.00  0.00    -0.061 A 
ATOM     85  C   UNL     1     148.774 171.182 191.314  0.00  0.00    -0.052 A 
ATOM     86  C   UNL     1     147.603 171.915 191.603  0.00  0.00    +0.004 A 
ATOM     87 BR   UNL     1     143.818 173.539 191.457  0.00  0.00    -0.031 Br
ATOM     88  H   UNL     1     146.052 173.956 193.527  0.00  0.00    +0.166 HD
ATOM     89  H   UNL     1     148.642 173.425 194.515  0.00  0.00    +0.064 HD
ATOM     90  H   UNL     1     150.694 172.131 193.964  0.00  0.00    +0.062 HD
ATOM     91  H   UNL     1     150.777 170.707 191.949  0.00  0.00    +0.062 HD
ATOM     92  H   UNL     1     148.831 170.545 190.437  0.00  0.00    +0.062 HD
ENDBRANCH  75  78
ENDBRANCH  12  75
TORSDOF 10
ENDMDL
MODEL 2
REMARK VINA RESULT:      -6.8      2.831      3.958
REMARK  Name = Jasplakinolide_conf1
REMARK  10 active torsions:
REMARK  status: ('A' for Active; 'I' for Inactive)
REMARK    1  A    between atoms: C_1  and  C_2
REMARK    2  A    between atoms: C_4  and  C_47
REMARK    3  A    between atoms: C_9  and  C_40
REMARK    4  A    between atoms: C_13  and  C_29
REMARK    5  A    between atoms: N_14  and  C_28
REMARK    6  A    between atoms: C_17  and  C_27
REMARK    7  A    between atoms: C_21  and  C_26
REMARK    8  A    between atoms: C_23  and  C_25
REMARK    9  A    between atoms: C_29  and  C_30
REMARK   10  A    between atoms: C_43  and  O_46
REMARK                            x       y       z     vdW  Elec       q    Type
REMARK                         _______ _______ _______ _____ _____    ______ ____
ROOT
ATOM      1  C   UNL     1     144.297 161.972 188.839  0.00  0.00    -0.022 C 
ATOM      2  C   UNL     1     142.845 162.417 189.137  0.00  0.00    -0.010 C 
ATOM      3  C   UNL     1     142.621 163.936 189.278  0.00  0.00    +0.101 C 
ATOM      4  O   UNL     1     143.361 164.381 190.433  0.00  0.00    -0.462 OA
ATOM      5  C   UNL     1     142.935 165.530 191.017  0.00  0.00    +0.309 C 
ATOM      6  O   UNL     1     141.957 166.179 190.668  0.00  0.00    -0.251 OA
ATOM      7  C   UNL     1     143.761 165.876 192.225  0.00  0.00    +0.067 C 
ATOM      8  C   UNL     1     145.266 165.898 191.937  0.00  0.00    +0.058 C 
ATOM      9  N   UNL     1     145.623 166.963 191.013  0.00  0.00    -0.306 N 
ATOM     10  C   UNL     1     146.574 166.797 190.023  0.00  0.00    +0.234 C 
ATOM     11  O   UNL     1     147.171 165.736 189.848  0.00  0.00    -0.274 OA
ATOM     12  C   UNL     1     146.831 168.063 189.168  0.00  0.00    +0.106 C 
ATOM     13  N   UNL     1     146.979 167.689 187.740  0.00  0.00    -0.291 N 
ATOM     14  C   UNL     1     145.852 167.743 186.929  0.00  0.00    +0.236 C 
ATOM     15  O   UNL     1     144.733 167.979 187.399  0.00  0.00    -0.274 OA
ATOM     16  C   UNL     1     146.004 167.466 185.415  0.00  0.00    +0.097 C 
ATOM     17  N   UNL     1     145.328 166.203 185.139  0.00  0.00    -0.304 N 
ATOM     18  C   UNL     1     146.003 165.074 184.743  0.00  0.00    +0.217 C 
ATOM     19  O   UNL     1     147.208 165.060 184.511  0.00  0.00    -0.275 OA
ATOM     20  C   UNL     1     145.114 163.850 184.567  0.00  0.00    +0.036 C 
ATOM     21  C   UNL     1     145.737 162.609 185.224  0.00  0.00    -0.021 C 
ATOM     22  C   UNL     1     145.633 162.629 186.742  0.00  0.00    -0.076 C 
ATOM     23  C   UNL     1     144.595 162.024 187.355  0.00  0.00    -0.082 C 
ATOM     24  H   UNL     1     144.979 162.613 189.407  0.00  0.00    +0.034 HD
ATOM     25  H   UNL     1     142.162 162.024 188.374  0.00  0.00    +0.031 HD
ATOM     26  H   UNL     1     142.538 161.964 190.090  0.00  0.00    +0.031 HD
ATOM     27  H   UNL     1     141.547 164.078 189.461  0.00  0.00    +0.073 HD
ATOM     28  H   UNL     1     143.516 165.148 193.008  0.00  0.00    +0.040 HD
ATOM     29  H   UNL     1     143.417 166.858 192.575  0.00  0.00    +0.040 HD
ATOM     30  H   UNL     1     145.540 164.939 191.477  0.00  0.00    +0.055 HD
ATOM     31  H   UNL     1     145.266 167.894 191.195  0.00  0.00    +0.149 HD
ATOM     32  H   UNL     1     145.929 168.682 189.248  0.00  0.00    +0.060 HD
ATOM     33  H   UNL     1     147.053 167.413 185.116  0.00  0.00    +0.059 HD
ATOM     34  H   UNL     1     144.354 166.138 185.412  0.00  0.00    +0.149 HD
ATOM     35  H   UNL     1     144.129 164.041 185.011  0.00  0.00    +0.039 HD
ATOM     36  H   UNL     1     145.225 161.713 184.849  0.00  0.00    +0.032 HD
ATOM     37  H   UNL     1     146.786 162.485 184.928  0.00  0.00    +0.032 HD
ATOM     38  H   UNL     1     143.859 161.519 186.729  0.00  0.00    +0.057 HD
ENDROOT
BRANCH   8  39
ATOM     39  C   UNL     1     146.088 166.054 193.211  0.00  0.00    -0.026 A 
ATOM     40  C   UNL     1     147.250 166.844 193.262  0.00  0.00    -0.053 A 
ATOM     41  C   UNL     1     147.995 166.941 194.440  0.00  0.00    -0.020 A 
ATOM     42  C   UNL     1     147.597 166.237 195.568  0.00  0.00    +0.117 A 
ATOM     43  C   UNL     1     146.457 165.441 195.545  0.00  0.00    -0.020 A 
ATOM     44  C   UNL     1     145.709 165.348 194.366  0.00  0.00    -0.053 A 
ATOM     45  H   UNL     1     147.603 167.378 192.383  0.00  0.00    +0.062 HD
ATOM     46  H   UNL     1     148.890 167.556 194.469  0.00  0.00    +0.065 HD
ATOM     47  H   UNL     1     146.143 164.874 196.415  0.00  0.00    +0.065 HD
ATOM     48  H   UNL     1     144.835 164.699 194.345  0.00  0.00    +0.062 HD
BRANCH  42  49
ATOM     49  O   UNL     1     148.372 166.336 196.686  0.00  0.00    -0.507 OA
ATOM     50  H   UNL     1     148.127 167.151 197.156  0.00  0.00    +0.292 HD
ENDBRANCH  42  49
ENDBRANCH   8  39
BRANCH   1  51
ATOM     51  C   UNL     1     144.511 160.532 189.318  0.00  0.00    -0.059 C 
ATOM     52  H   UNL     1     143.866 159.839 188.766  0.00  0.00    +0.024 HD
ATOM     53  H   UNL     1     144.269 160.429 190.383  0.00  0.00    +0.024 HD
ATOM     54  H   UNL     1     145.551 160.209 189.176  0.00  0.00    +0.024 HD
ENDBRANCH   1  51
BRANCH  22  55
ATOM     55  C   UNL     1     146.760 163.321 187.464  0.00  0.00    -0.044 C 
ATOM     56  H   UNL     1     147.661 163.339 186.841  0.00  0.00    +0.027 HD
ATOM     57  H   UNL     1     146.482 164.351 187.702  0.00  0.00    +0.027 HD
ATOM     58  H   UNL     1     147.041 162.820 188.394  0.00  0.00    +0.027 HD
ENDBRANCH  22  55
BRANCH  20  59
ATOM     59  C   UNL     1     144.916 163.628 183.067  0.00  0.00    -0.054 C 
ATOM     60  H   UNL     1     145.373 162.687 182.739  0.00  0.00    +0.024 HD
ATOM     61  H   UNL     1     143.852 163.598 182.814  0.00  0.00    +0.024 HD
ATOM     62  H   UNL     1     145.377 164.438 182.490  0.00  0.00    +0.024 HD
ENDBRANCH  20  59
BRANCH  16  63
ATOM     63  C   UNL     1     145.350 168.590 184.617  0.00  0.00    -0.038 C 
ATOM     64  H   UNL     1     144.666 169.166 185.248  0.00  0.00    +0.025 HD
ATOM     65  H   UNL     1     146.093 169.288 184.215  0.00  0.00    +0.025 HD
ATOM     66  H   UNL     1     144.782 168.186 183.773  0.00  0.00    +0.025 HD
ENDBRANCH  16  63
BRANCH  13  67
ATOM     67  C   UNL     1     148.250 167.123 187.297  0.00  0.00    +0.004 C 
ATOM     68  H   UNL     1     148.163 166.049 187.127  0.00  0.00    +0.043 HD
ATOM     69  H   UNL     1     149.032 167.272 188.047  0.00  0.00    +0.043 HD
ATOM     70  H   UNL     1     148.539 167.622 186.365  0.00  0.00    +0.043 HD
ENDBRANCH  13  67
BRANCH   3  71
ATOM     71  C   UNL     1     143.030 164.750 188.056  0.00  0.00    -0.028 C 
ATOM     72  H   UNL     1     144.113 164.908 188.046  0.00  0.00    +0.027 HD
ATOM     73  H   UNL     1     142.801 164.223 187.128  0.00  0.00    +0.027 HD
ATOM     74  H   UNL     1     142.554 165.733 188.053  0.00  0.00    +0.027 HD
ENDBRANCH   3  71
BRANCH  12  75
ATOM     75  C   UNL     1     148.009 168.900 189.702  0.00  0.00    +0.003 C 
ATOM     76  H   UNL     1     148.684 168.277 190.295  0.00  0.00    +0.034 HD
ATOM     77  H   UNL     1     148.611 169.249 188.851  0.00  0.00    +0.034 HD
BRANCH  75  78
ATOM     78  C   UNL     1     147.600 170.095 190.511  0.00  0.00    -0.006 A 
ATOM     79  C   UNL     1     146.406 170.784 190.443  0.00  0.00    +0.087 A 
ATOM     80  N   UNL     1     146.446 171.836 191.306  0.00  0.00    -0.349 N 
ATOM     81  C   UNL     1     147.650 171.855 191.971  0.00  0.00    +0.048 A 
ATOM     82  C   UNL     1     148.131 172.750 192.933  0.00  0.00    -0.038 A 
ATOM     83  C   UNL     1     149.412 172.522 193.443  0.00  0.00    -0.060 A 
ATOM     84  C   UNL     1     150.174 171.441 193.011  0.00  0.00    -0.061 A 
ATOM     85  C   UNL     1     149.676 170.556 192.048  0.00  0.00    -0.052 A 
ATOM     86  C   UNL     1     148.389 170.764 191.509  0.00  0.00    +0.004 A 
ATOM     87 BR   UNL     1     144.909 170.404 189.329  0.00  0.00    -0.031 Br
ATOM     88  H   UNL     1     145.709 172.519 191.412  0.00  0.00    +0.166 HD
ATOM     89  H   UNL     1     147.535 173.588 193.279  0.00  0.00    +0.064 HD
ATOM     90  H   UNL     1     149.815 173.198 194.194  0.00  0.00    +0.062 HD
ATOM     91  H   UNL     1     151.166 171.279 193.427  0.00  0.00    +0.062 HD
ATOM     92  H   UNL     1     150.285 169.715 191.729  0.00  0.00    +0.062 HD
ENDBRANCH  75  78
ENDBRANCH  12  75
TORSDOF 10
ENDMDL
MODEL 3
REMARK VINA RESULT:      -6.8      3.505      6.396
REMARK  Name = Jasplakinolide_conf1
REMARK  10 active torsions:
REMARK  status: ('A' for Active; 'I' for Inactive)
REMARK    1  A    between atoms: C_1  and  C_2
REMARK    2  A    between atoms: C_4  and  C_47
REMARK    3  A    between atoms: C_9  and  C_40
REMARK    4  A    between atoms: C_13  and  C_29
REMARK    5  A    between atoms: N_14  and  C_28
REMARK    6  A    between atoms: C_17  and  C_27
REMARK    7  A    between atoms: C_21  and  C_26
REMARK    8  A    between atoms: C_23  and  C_25
REMARK    9  A    between atoms: C_29  and  C_30
REMARK   10  A    between atoms: C_43  and  O_46
REMARK                            x       y       z     vdW  Elec       q    Type
REMARK                         _______ _______ _______ _____ _____    ______ ____
ROOT
ATOM      1  C   UNL     1     143.382 170.523 190.754  0.00  0.00    -0.022 C 
ATOM      2  C   UNL     1     144.229 171.817 190.796  0.00  0.00    -0.010 C 
ATOM      3  C   UNL     1     145.677 171.692 190.281  0.00  0.00    +0.101 C 
ATOM      4  O   UNL     1     146.378 170.793 191.164  0.00  0.00    -0.462 OA
ATOM      5  C   UNL     1     147.729 170.914 191.201  0.00  0.00    +0.309 C 
ATOM      6  O   UNL     1     148.381 171.748 190.584  0.00  0.00    -0.251 OA
ATOM      7  C   UNL     1     148.345 169.950 192.177  0.00  0.00    +0.067 C 
ATOM      8  C   UNL     1     147.901 168.501 191.949  0.00  0.00    +0.058 C 
ATOM      9  N   UNL     1     148.376 167.984 190.675  0.00  0.00    -0.306 N 
ATOM     10  C   UNL     1     147.603 167.165 189.874  0.00  0.00    +0.234 C 
ATOM     11  O   UNL     1     146.459 166.829 190.177  0.00  0.00    -0.274 OA
ATOM     12  C   UNL     1     148.305 166.697 188.575  0.00  0.00    +0.106 C 
ATOM     13  N   UNL     1     147.350 166.735 187.439  0.00  0.00    -0.291 N 
ATOM     14  C   UNL     1     147.321 167.876 186.648  0.00  0.00    +0.236 C 
ATOM     15  O   UNL     1     147.979 168.881 186.944  0.00  0.00    -0.274 OA
ATOM     16  C   UNL     1     146.415 167.896 185.395  0.00  0.00    +0.097 C 
ATOM     17  N   UNL     1     145.343 168.850 185.653  0.00  0.00    -0.304 N 
ATOM     18  C   UNL     1     144.029 168.470 185.786  0.00  0.00    +0.217 C 
ATOM     19  O   UNL     1     143.646 167.316 185.617  0.00  0.00    -0.275 OA
ATOM     20  C   UNL     1     143.081 169.615 186.113  0.00  0.00    +0.036 C 
ATOM     21  C   UNL     1     142.117 169.235 187.248  0.00  0.00    -0.021 C 
ATOM     22  C   UNL     1     142.787 169.226 188.614  0.00  0.00    -0.076 C 
ATOM     23  C   UNL     1     142.745 170.325 189.393  0.00  0.00    -0.082 C 
ATOM     24  H   UNL     1     144.025 169.678 191.021  0.00  0.00    +0.034 HD
ATOM     25  H   UNL     1     143.723 172.622 190.248  0.00  0.00    +0.031 HD
ATOM     26  H   UNL     1     144.294 172.149 191.841  0.00  0.00    +0.031 HD
ATOM     27  H   UNL     1     146.123 172.693 190.356  0.00  0.00    +0.073 HD
ATOM     28  H   UNL     1     148.084 170.293 193.185  0.00  0.00    +0.040 HD
ATOM     29  H   UNL     1     149.434 170.045 192.073  0.00  0.00    +0.040 HD
ATOM     30  H   UNL     1     146.804 168.477 191.941  0.00  0.00    +0.055 HD
ATOM     31  H   UNL     1     149.354 168.114 190.440  0.00  0.00    +0.149 HD
ATOM     32  H   UNL     1     149.090 167.433 188.362  0.00  0.00    +0.060 HD
ATOM     33  H   UNL     1     146.005 166.908 185.176  0.00  0.00    +0.059 HD
ATOM     34  H   UNL     1     145.621 169.794 185.900  0.00  0.00    +0.149 HD
ATOM     35  H   UNL     1     143.659 170.501 186.408  0.00  0.00    +0.039 HD
ATOM     36  H   UNL     1     141.289 169.957 187.267  0.00  0.00    +0.032 HD
ATOM     37  H   UNL     1     141.646 168.262 187.061  0.00  0.00    +0.032 HD
ATOM     38  H   UNL     1     142.209 171.197 189.015  0.00  0.00    +0.057 HD
ENDROOT
BRANCH   8  39
ATOM     39  C   UNL     1     148.378 167.578 193.064  0.00  0.00    -0.026 A 
ATOM     40  C   UNL     1     149.708 167.127 193.148  0.00  0.00    -0.053 A 
ATOM     41  C   UNL     1     150.103 166.258 194.168  0.00  0.00    -0.020 A 
ATOM     42  C   UNL     1     149.172 165.818 195.099  0.00  0.00    +0.117 A 
ATOM     43  C   UNL     1     147.849 166.240 195.036  0.00  0.00    -0.020 A 
ATOM     44  C   UNL     1     147.455 167.113 194.017  0.00  0.00    -0.053 A 
ATOM     45  H   UNL     1     150.449 167.428 192.412  0.00  0.00    +0.062 HD
ATOM     46  H   UNL     1     151.133 165.918 194.225  0.00  0.00    +0.065 HD
ATOM     47  H   UNL     1     147.108 165.891 195.749  0.00  0.00    +0.065 HD
ATOM     48  H   UNL     1     146.410 167.416 193.955  0.00  0.00    +0.062 HD
BRANCH  42  49
ATOM     49  O   UNL     1     149.595 164.945 196.058  0.00  0.00    -0.507 OA
ATOM     50  H   UNL     1     148.826 164.676 196.588  0.00  0.00    +0.292 HD
ENDBRANCH  42  49
ENDBRANCH   8  39
BRANCH   1  51
ATOM     51  C   UNL     1     142.261 170.597 191.798  0.00  0.00    -0.059 C 
ATOM     52  H   UNL     1     142.233 171.587 192.267  0.00  0.00    +0.024 HD
ATOM     53  H   UNL     1     142.415 169.859 192.595  0.00  0.00    +0.024 HD
ATOM     54  H   UNL     1     141.278 170.409 191.348  0.00  0.00    +0.024 HD
ENDBRANCH   1  51
BRANCH  22  55
ATOM     55  C   UNL     1     143.438 167.927 189.012  0.00  0.00    -0.044 C 
ATOM     56  H   UNL     1     144.343 167.752 188.419  0.00  0.00    +0.027 HD
ATOM     57  H   UNL     1     143.716 167.950 190.069  0.00  0.00    +0.027 HD
ATOM     58  H   UNL     1     142.793 167.059 188.848  0.00  0.00    +0.027 HD
ENDBRANCH  22  55
BRANCH  20  59
ATOM     59  C   UNL     1     142.310 169.962 184.839  0.00  0.00    -0.054 C 
ATOM     60  H   UNL     1     141.294 169.550 184.863  0.00  0.00    +0.024 HD
ATOM     61  H   UNL     1     142.237 171.046 184.710  0.00  0.00    +0.024 HD
ATOM     62  H   UNL     1     142.813 169.550 183.956  0.00  0.00    +0.024 HD
ENDBRANCH  20  59
BRANCH  16  63
ATOM     63  C   UNL     1     147.225 168.341 184.181  0.00  0.00    -0.038 C 
ATOM     64  H   UNL     1     147.625 169.349 184.330  0.00  0.00    +0.025 HD
ATOM     65  H   UNL     1     148.074 167.675 183.992  0.00  0.00    +0.025 HD
ATOM     66  H   UNL     1     146.602 168.349 183.281  0.00  0.00    +0.025 HD
ENDBRANCH  16  63
BRANCH  13  67
ATOM     67  C   UNL     1     146.378 165.654 187.312  0.00  0.00    +0.004 C 
ATOM     68  H   UNL     1     146.491 164.928 188.119  0.00  0.00    +0.043 HD
ATOM     69  H   UNL     1     146.507 165.115 186.369  0.00  0.00    +0.043 HD
ATOM     70  H   UNL     1     145.374 166.092 187.347  0.00  0.00    +0.043 HD
ENDBRANCH  13  67
BRANCH   3  71
ATOM     71  C   UNL     1     145.796 171.201 188.843  0.00  0.00    -0.028 C 
ATOM     72  H   UNL     1     146.066 170.140 188.821  0.00  0.00    +0.027 HD
ATOM     73  H   UNL     1     144.842 171.272 188.315  0.00  0.00    +0.027 HD
ATOM     74  H   UNL     1     146.566 171.748 188.295  0.00  0.00    +0.027 HD
ENDBRANCH   3  71
BRANCH  12  75
ATOM     75  C   UNL     1     148.995 165.329 188.743  0.00  0.00    +0.003 C 
ATOM     76  H   UNL     1     148.868 164.960 189.765  0.00  0.00    +0.034 HD
ATOM     77  H   UNL     1     148.485 164.594 188.105  0.00  0.00    +0.034 HD
BRANCH  75  78
ATOM     78  C   UNL     1     150.453 165.326 188.393  0.00  0.00    -0.006 A 
ATOM     79  C   UNL     1     151.012 165.289 187.131  0.00  0.00    +0.087 A 
ATOM     80  N   UNL     1     152.368 165.249 187.244  0.00  0.00    -0.349 N 
ATOM     81  C   UNL     1     152.733 165.279 188.569  0.00  0.00    +0.048 A 
ATOM     82  C   UNL     1     154.005 165.248 189.152  0.00  0.00    -0.038 A 
ATOM     83  C   UNL     1     154.077 165.288 190.547  0.00  0.00    -0.060 A 
ATOM     84  C   UNL     1     152.923 165.363 191.323  0.00  0.00    -0.061 A 
ATOM     85  C   UNL     1     151.659 165.394 190.722  0.00  0.00    -0.052 A 
ATOM     86  C   UNL     1     151.555 165.347 189.315  0.00  0.00    +0.004 A 
ATOM     87 BR   UNL     1     150.102 165.264 185.460  0.00  0.00    -0.031 Br
ATOM     88  H   UNL     1     153.006 165.175 186.463  0.00  0.00    +0.166 HD
ATOM     89  H   UNL     1     154.906 165.198 188.549  0.00  0.00    +0.064 HD
ATOM     90  H   UNL     1     155.050 165.267 191.032  0.00  0.00    +0.062 HD
ATOM     91  H   UNL     1     153.003 165.401 192.406  0.00  0.00    +0.062 HD
ATOM     92  H   UNL     1     150.773 165.459 191.346  0.00  0.00    +0.062 HD
ENDBRANCH  75  78
ENDBRANCH  12  75
TORSDOF 10
ENDMDL
MODEL 4
REMARK VINA RESULT:      -6.8      3.910      6.244
REMARK  Name = Jasplakinolide_conf1
REMARK  10 active torsions:
REMARK  status: ('A' for Active; 'I' for Inactive)
REMARK    1  A    between atoms: C_1  and  C_2
REMARK    2  A    between atoms: C_4  and  C_47
REMARK    3  A    between atoms: C_9  and  C_40
REMARK    4  A    between atoms: C_13  and  C_29
REMARK    5  A    between atoms: N_14  and  C_28
REMARK    6  A    between atoms: C_17  and  C_27
REMARK    7  A    between atoms: C_21  and  C_26
REMARK    8  A    between atoms: C_23  and  C_25
REMARK    9  A    between atoms: C_29  and  C_30
REMARK   10  A    between atoms: C_43  and  O_46
REMARK                            x       y       z     vdW  Elec       q    Type
REMARK                         _______ _______ _______ _____ _____    ______ ____
ROOT
ATOM      1  C   UNL     1     146.098 166.338 184.890  0.00  0.00    -0.022 C 
ATOM      2  C   UNL     1     146.045 164.791 184.866  0.00  0.00    -0.010 C 
ATOM      3  C   UNL     1     146.561 164.078 186.131  0.00  0.00    +0.101 C 
ATOM      4  O   UNL     1     147.967 164.373 186.255  0.00  0.00    -0.462 OA
ATOM      5  C   UNL     1     148.707 163.493 186.977  0.00  0.00    +0.309 C 
ATOM      6  O   UNL     1     148.283 162.461 187.483  0.00  0.00    -0.251 OA
ATOM      7  C   UNL     1     150.158 163.885 187.009  0.00  0.00    +0.067 C 
ATOM      8  C   UNL     1     150.378 165.332 187.462  0.00  0.00    +0.058 C 
ATOM      9  N   UNL     1     149.981 165.531 188.847  0.00  0.00    -0.306 N 
ATOM     10  C   UNL     1     149.339 166.677 189.277  0.00  0.00    +0.234 C 
ATOM     11  O   UNL     1     149.049 167.599 188.516  0.00  0.00    -0.274 OA
ATOM     12  C   UNL     1     149.034 166.706 190.795  0.00  0.00    +0.106 C 
ATOM     13  N   UNL     1     147.682 167.271 191.031  0.00  0.00    -0.291 N 
ATOM     14  C   UNL     1     146.615 166.388 191.144  0.00  0.00    +0.236 C 
ATOM     15  O   UNL     1     146.758 165.177 190.937  0.00  0.00    -0.274 OA
ATOM     16  C   UNL     1     145.217 166.944 191.499  0.00  0.00    +0.097 C 
ATOM     17  N   UNL     1     144.373 166.774 190.321  0.00  0.00    -0.304 N 
ATOM     18  C   UNL     1     143.887 167.837 189.599  0.00  0.00    +0.217 C 
ATOM     19  O   UNL     1     144.053 169.006 189.934  0.00  0.00    -0.275 OA
ATOM     20  C   UNL     1     143.079 167.436 188.373  0.00  0.00    +0.036 C 
ATOM     21  C   UNL     1     143.490 168.258 187.141  0.00  0.00    -0.021 C 
ATOM     22  C   UNL     1     144.829 167.824 186.563  0.00  0.00    -0.076 C 
ATOM     23  C   UNL     1     144.872 166.921 185.563  0.00  0.00    -0.082 C 
ATOM     24  H   UNL     1     147.017 166.645 185.399  0.00  0.00    +0.034 HD
ATOM     25  H   UNL     1     145.024 164.449 184.653  0.00  0.00    +0.031 HD
ATOM     26  H   UNL     1     146.668 164.442 184.031  0.00  0.00    +0.031 HD
ATOM     27  H   UNL     1     146.431 163.001 185.959  0.00  0.00    +0.073 HD
ATOM     28  H   UNL     1     150.565 163.716 186.005  0.00  0.00    +0.040 HD
ATOM     29  H   UNL     1     150.662 163.184 187.687  0.00  0.00    +0.040 HD
ATOM     30  H   UNL     1     149.760 165.986 186.832  0.00  0.00    +0.055 HD
ATOM     31  H   UNL     1     150.316 164.870 189.540  0.00  0.00    +0.149 HD
ATOM     32  H   UNL     1     149.010 165.661 191.128  0.00  0.00    +0.060 HD
ATOM     33  H   UNL     1     145.261 167.996 191.790  0.00  0.00    +0.059 HD
ATOM     34  H   UNL     1     144.294 165.834 189.950  0.00  0.00    +0.149 HD
ATOM     35  H   UNL     1     143.227 166.369 188.164  0.00  0.00    +0.039 HD
ATOM     36  H   UNL     1     142.720 168.146 186.366  0.00  0.00    +0.032 HD
ATOM     37  H   UNL     1     143.516 169.330 187.368  0.00  0.00    +0.032 HD
ATOM     38  H   UNL     1     143.924 166.533 185.186  0.00  0.00    +0.057 HD
ENDROOT
BRANCH   8  39
ATOM     39  C   UNL     1     151.830 165.766 187.297  0.00  0.00    -0.026 A 
ATOM     40  C   UNL     1     152.488 166.563 188.252  0.00  0.00    -0.053 A 
ATOM     41  C   UNL     1     153.811 166.965 188.054  0.00  0.00    -0.020 A 
ATOM     42  C   UNL     1     154.480 166.594 186.896  0.00  0.00    +0.117 A 
ATOM     43  C   UNL     1     153.852 165.814 185.931  0.00  0.00    -0.020 A 
ATOM     44  C   UNL     1     152.529 165.407 186.132  0.00  0.00    -0.053 A 
ATOM     45  H   UNL     1     151.976 166.897 189.151  0.00  0.00    +0.062 HD
ATOM     46  H   UNL     1     154.310 167.579 188.799  0.00  0.00    +0.065 HD
ATOM     47  H   UNL     1     154.359 165.529 185.015  0.00  0.00    +0.065 HD
ATOM     48  H   UNL     1     152.033 164.822 185.358  0.00  0.00    +0.062 HD
BRANCH  42  49
ATOM     49  O   UNL     1     155.759 167.036 186.731  0.00  0.00    -0.507 OA
ATOM     50  H   UNL     1     155.911 167.771 187.350  0.00  0.00    +0.292 HD
ENDBRANCH  42  49
ENDBRANCH   8  39
BRANCH   1  51
ATOM     51  C   UNL     1     146.160 166.882 183.458  0.00  0.00    -0.059 C 
ATOM     52  H   UNL     1     146.263 167.973 183.461  0.00  0.00    +0.024 HD
ATOM     53  H   UNL     1     145.245 166.640 182.904  0.00  0.00    +0.024 HD
ATOM     54  H   UNL     1     147.010 166.465 182.904  0.00  0.00    +0.024 HD
ENDBRANCH   1  51
BRANCH  22  55
ATOM     55  C   UNL     1     146.043 168.493 187.155  0.00  0.00    -0.044 C 
ATOM     56  H   UNL     1     146.415 167.922 188.013  0.00  0.00    +0.027 HD
ATOM     57  H   UNL     1     146.840 168.559 186.411  0.00  0.00    +0.027 HD
ATOM     58  H   UNL     1     145.836 169.501 187.524  0.00  0.00    +0.027 HD
ENDBRANCH  22  55
BRANCH  20  59
ATOM     59  C   UNL     1     141.600 167.649 188.698  0.00  0.00    -0.054 C 
ATOM     60  H   UNL     1     141.218 166.858 189.354  0.00  0.00    +0.024 HD
ATOM     61  H   UNL     1     141.446 168.611 189.197  0.00  0.00    +0.024 HD
ATOM     62  H   UNL     1     140.996 167.642 187.784  0.00  0.00    +0.024 HD
ENDBRANCH  20  59
BRANCH  16  63
ATOM     63  C   UNL     1     144.634 166.162 192.672  0.00  0.00    -0.038 C 
ATOM     64  H   UNL     1     143.718 166.637 193.038  0.00  0.00    +0.025 HD
ATOM     65  H   UNL     1     144.380 165.134 192.388  0.00  0.00    +0.025 HD
ATOM     66  H   UNL     1     145.350 166.112 193.499  0.00  0.00    +0.025 HD
ENDBRANCH  16  63
BRANCH  13  67
ATOM     67  C   UNL     1     147.512 168.719 190.962  0.00  0.00    +0.004 C 
ATOM     68  H   UNL     1     148.380 169.236 191.375  0.00  0.00    +0.043 HD
ATOM     69  H   UNL     1     146.638 169.042 191.534  0.00  0.00    +0.043 HD
ATOM     70  H   UNL     1     147.382 168.998 189.910  0.00  0.00    +0.043 HD
ENDBRANCH  13  67
BRANCH   3  71
ATOM     71  C   UNL     1     145.837 164.468 187.415  0.00  0.00    -0.028 C 
ATOM     72  H   UNL     1     146.308 163.992 188.281  0.00  0.00    +0.027 HD
ATOM     73  H   UNL     1     145.899 165.543 187.600  0.00  0.00    +0.027 HD
ATOM     74  H   UNL     1     144.791 164.154 187.395  0.00  0.00    +0.027 HD
ENDBRANCH   3  71
BRANCH  12  75
ATOM     75  C   UNL     1     150.139 167.417 191.601  0.00  0.00    +0.003 C 
ATOM     76  H   UNL     1     151.009 167.613 190.968  0.00  0.00    +0.034 HD
ATOM     77  H   UNL     1     149.773 168.408 191.904  0.00  0.00    +0.034 HD
BRANCH  75  78
ATOM     78  C   UNL     1     150.577 166.680 192.831  0.00  0.00    -0.006 A 
ATOM     79  C   UNL     1     151.802 166.086 193.060  0.00  0.00    +0.087 A 
ATOM     80  N   UNL     1     151.784 165.477 194.278  0.00  0.00    -0.349 N 
ATOM     81  C   UNL     1     150.564 165.670 194.883  0.00  0.00    +0.048 A 
ATOM     82  C   UNL     1     150.096 165.222 196.123  0.00  0.00    -0.038 A 
ATOM     83  C   UNL     1     148.792 165.571 196.486  0.00  0.00    -0.060 A 
ATOM     84  C   UNL     1     147.995 166.341 195.643  0.00  0.00    -0.061 A 
ATOM     85  C   UNL     1     148.481 166.780 194.406  0.00  0.00    -0.052 A 
ATOM     86  C   UNL     1     149.791 166.437 194.009  0.00  0.00    +0.004 A 
ATOM     87 BR   UNL     1     153.311 166.054 191.900  0.00  0.00    -0.031 Br
ATOM     88  H   UNL     1     152.547 164.936 194.660  0.00  0.00    +0.166 HD
ATOM     89  H   UNL     1     150.718 164.629 196.786  0.00  0.00    +0.064 HD
ATOM     90  H   UNL     1     148.398 165.241 197.444  0.00  0.00    +0.062 HD
ATOM     91  H   UNL     1     146.987 166.607 195.948  0.00  0.00    +0.062 HD
ATOM     92  H   UNL     1     147.845 167.385 193.766  0.00  0.00    +0.062 HD
ENDBRANCH  75  78
ENDBRANCH  12  75
TORSDOF 10
ENDMDL
MODEL 5
REMARK VINA RESULT:      -6.5      3.111      5.118
REMARK  Name = Jasplakinolide_conf1
REMARK  10 active torsions:
REMARK  status: ('A' for Active; 'I' for Inactive)
REMARK    1  A    between atoms: C_1  and  C_2
REMARK    2  A    between atoms: C_4  and  C_47
REMARK    3  A    between atoms: C_9  and  C_40
REMARK    4  A    between atoms: C_13  and  C_29
REMARK    5  A    between atoms: N_14  and  C_28
REMARK    6  A    between atoms: C_17  and  C_27
REMARK    7  A    between atoms: C_21  and  C_26
REMARK    8  A    between atoms: C_23  and  C_25
REMARK    9  A    between atoms: C_29  and  C_30
REMARK   10  A    between atoms: C_43  and  O_46
REMARK                            x       y       z     vdW  Elec       q    Type
REMARK                         _______ _______ _______ _____ _____    ______ ____
ROOT
ATOM      1  C   UNL     1     145.685 165.958 184.439  0.00  0.00    -0.022 C 
ATOM      2  C   UNL     1     145.709 164.411 184.508  0.00  0.00    -0.010 C 
ATOM      3  C   UNL     1     145.934 163.802 185.906  0.00  0.00    +0.101 C 
ATOM      4  O   UNL     1     147.253 164.187 186.344  0.00  0.00    -0.462 OA
ATOM      5  C   UNL     1     147.834 163.395 187.280  0.00  0.00    +0.309 C 
ATOM      6  O   UNL     1     147.346 162.369 187.739  0.00  0.00    -0.251 OA
ATOM      7  C   UNL     1     149.214 163.875 187.633  0.00  0.00    +0.067 C 
ATOM      8  C   UNL     1     149.251 165.356 188.026  0.00  0.00    +0.058 C 
ATOM      9  N   UNL     1     148.521 165.607 189.258  0.00  0.00    -0.306 N 
ATOM     10  C   UNL     1     147.743 166.734 189.442  0.00  0.00    +0.234 C 
ATOM     11  O   UNL     1     147.604 167.593 188.573  0.00  0.00    -0.274 OA
ATOM     12  C   UNL     1     147.076 166.829 190.837  0.00  0.00    +0.106 C 
ATOM     13  N   UNL     1     145.683 167.323 190.702  0.00  0.00    -0.291 N 
ATOM     14  C   UNL     1     144.662 166.385 190.615  0.00  0.00    +0.236 C 
ATOM     15  O   UNL     1     144.905 165.175 190.532  0.00  0.00    -0.274 OA
ATOM     16  C   UNL     1     143.196 166.874 190.586  0.00  0.00    +0.097 C 
ATOM     17  N   UNL     1     142.672 166.589 189.254  0.00  0.00    -0.304 N 
ATOM     18  C   UNL     1     142.329 167.579 188.366  0.00  0.00    +0.217 C 
ATOM     19  O   UNL     1     142.356 168.772 188.650  0.00  0.00    -0.275 OA
ATOM     20  C   UNL     1     141.863 167.062 187.011  0.00  0.00    +0.036 C 
ATOM     21  C   UNL     1     142.524 167.837 185.861  0.00  0.00    -0.021 C 
ATOM     22  C   UNL     1     143.982 167.455 185.652  0.00  0.00    -0.076 C 
ATOM     23  C   UNL     1     144.307 166.501 184.756  0.00  0.00    -0.082 C 
ATOM     24  H   UNL     1     146.438 166.347 185.131  0.00  0.00    +0.034 HD
ATOM     25  H   UNL     1     144.788 163.997 184.081  0.00  0.00    +0.031 HD
ATOM     26  H   UNL     1     146.532 164.054 183.874  0.00  0.00    +0.031 HD
ATOM     27  H   UNL     1     145.898 162.711 185.782  0.00  0.00    +0.073 HD
ATOM     28  H   UNL     1     149.861 163.676 186.770  0.00  0.00    +0.040 HD
ATOM     29  H   UNL     1     149.569 163.245 188.458  0.00  0.00    +0.040 HD
ATOM     30  H   UNL     1     148.776 165.935 187.223  0.00  0.00    +0.055 HD
ATOM     31  H   UNL     1     148.706 165.007 190.054  0.00  0.00    +0.149 HD
ATOM     32  H   UNL     1     147.019 165.804 191.225  0.00  0.00    +0.060 HD
ATOM     33  H   UNL     1     143.119 167.941 190.806  0.00  0.00    +0.059 HD
ATOM     34  H   UNL     1     142.728 165.626 188.939  0.00  0.00    +0.149 HD
ATOM     35  H   UNL     1     142.105 165.996 186.918  0.00  0.00    +0.039 HD
ATOM     36  H   UNL     1     141.972 167.636 184.933  0.00  0.00    +0.032 HD
ATOM     37  H   UNL     1     142.445 168.921 186.014  0.00  0.00    +0.032 HD
ATOM     38  H   UNL     1     143.498 166.037 184.191  0.00  0.00    +0.057 HD
ENDROOT
BRANCH   8  39
ATOM     39  C   UNL     1     150.679 165.867 188.185  0.00  0.00    -0.026 A 
ATOM     40  C   UNL     1     151.210 166.877 187.363  0.00  0.00    -0.053 A 
ATOM     41  C   UNL     1     152.532 167.301 187.519  0.00  0.00    -0.020 A 
ATOM     42  C   UNL     1     153.338 166.709 188.482  0.00  0.00    +0.117 A 
ATOM     43  C   UNL     1     152.842 165.703 189.303  0.00  0.00    -0.020 A 
ATOM     44  C   UNL     1     151.517 165.282 189.149  0.00  0.00    -0.053 A 
ATOM     45  H   UNL     1     150.612 167.333 186.578  0.00  0.00    +0.062 HD
ATOM     46  H   UNL     1     152.932 168.083 186.880  0.00  0.00    +0.065 HD
ATOM     47  H   UNL     1     153.466 165.222 190.050  0.00  0.00    +0.065 HD
ATOM     48  H   UNL     1     151.144 164.472 189.775  0.00  0.00    +0.062 HD
BRANCH  42  49
ATOM     49  O   UNL     1     154.631 167.132 188.577  0.00  0.00    -0.507 OA
ATOM     50  H   UNL     1     155.175 166.587 187.984  0.00  0.00    +0.292 HD
ENDBRANCH  42  49
ENDBRANCH   8  39
BRANCH   1  51
ATOM     51  C   UNL     1     146.069 166.424 183.030  0.00  0.00    -0.059 C 
ATOM     52  H   UNL     1     146.550 165.615 182.470  0.00  0.00    +0.024 HD
ATOM     53  H   UNL     1     146.776 167.262 183.070  0.00  0.00    +0.024 HD
ATOM     54  H   UNL     1     145.190 166.752 182.460  0.00  0.00    +0.024 HD
ENDBRANCH   1  51
BRANCH  22  55
ATOM     55  C   UNL     1     144.983 168.227 186.471  0.00  0.00    -0.044 C 
ATOM     56  H   UNL     1     145.345 167.620 187.309  0.00  0.00    +0.027 HD
ATOM     57  H   UNL     1     145.839 168.511 185.854  0.00  0.00    +0.027 HD
ATOM     58  H   UNL     1     144.563 169.135 186.912  0.00  0.00    +0.027 HD
ENDBRANCH  22  55
BRANCH  20  59
ATOM     59  C   UNL     1     140.341 167.203 186.957  0.00  0.00    -0.054 C 
ATOM     60  H   UNL     1     139.921 167.385 187.954  0.00  0.00    +0.024 HD
ATOM     61  H   UNL     1     140.050 168.034 186.306  0.00  0.00    +0.024 HD
ATOM     62  H   UNL     1     139.880 166.289 186.566  0.00  0.00    +0.024 HD
ENDBRANCH  20  59
BRANCH  16  63
ATOM     63  C   UNL     1     142.381 166.124 191.635  0.00  0.00    -0.038 C 
ATOM     64  H   UNL     1     141.433 165.773 191.213  0.00  0.00    +0.025 HD
ATOM     65  H   UNL     1     142.916 165.246 192.014  0.00  0.00    +0.025 HD
ATOM     66  H   UNL     1     142.157 166.772 192.488  0.00  0.00    +0.025 HD
ENDBRANCH  16  63
BRANCH  13  67
ATOM     67  C   UNL     1     145.469 168.752 190.496  0.00  0.00    +0.004 C 
ATOM     68  H   UNL     1     145.390 169.278 191.448  0.00  0.00    +0.043 HD
ATOM     69  H   UNL     1     144.545 168.937 189.943  0.00  0.00    +0.043 HD
ATOM     70  H   UNL     1     146.320 169.145 189.926  0.00  0.00    +0.043 HD
ENDBRANCH  13  67
BRANCH   3  71
ATOM     71  C   UNL     1     144.902 164.218 186.949  0.00  0.00    -0.028 C 
ATOM     72  H   UNL     1     144.445 165.174 186.675  0.00  0.00    +0.027 HD
ATOM     73  H   UNL     1     144.078 163.503 187.005  0.00  0.00    +0.027 HD
ATOM     74  H   UNL     1     145.357 164.340 187.934  0.00  0.00    +0.027 HD
ENDBRANCH   3  71
BRANCH  12  75
ATOM     75  C   UNL     1     147.918 167.649 191.834  0.00  0.00    +0.003 C 
ATOM     76  H   UNL     1     148.558 168.357 191.301  0.00  0.00    +0.034 HD
ATOM     77  H   UNL     1     147.243 168.268 192.441  0.00  0.00    +0.034 HD
BRANCH  75  78
ATOM     78  C   UNL     1     148.758 166.820 192.760  0.00  0.00    -0.006 A 
ATOM     79  C   UNL     1     148.320 165.919 193.708  0.00  0.00    +0.087 A 
ATOM     80  N   UNL     1     149.394 165.412 194.374  0.00  0.00    -0.349 N 
ATOM     81  C   UNL     1     150.556 165.948 193.871  0.00  0.00    +0.048 A 
ATOM     82  C   UNL     1     151.885 165.727 194.250  0.00  0.00    -0.038 A 
ATOM     83  C   UNL     1     152.879 166.422 193.555  0.00  0.00    -0.060 A 
ATOM     84  C   UNL     1     152.553 167.295 192.521  0.00  0.00    -0.061 A 
ATOM     85  C   UNL     1     151.219 167.502 192.155  0.00  0.00    -0.052 A 
ATOM     86  C   UNL     1     150.192 166.821 192.844  0.00  0.00    +0.004 A 
ATOM     87 BR   UNL     1     146.522 165.431 194.102  0.00  0.00    -0.031 Br
ATOM     88  H   UNL     1     149.335 164.762 195.146  0.00  0.00    +0.166 HD
ATOM     89  H   UNL     1     152.142 165.040 195.051  0.00  0.00    +0.064 HD
ATOM     90  H   UNL     1     153.922 166.271 193.824  0.00  0.00    +0.062 HD
ATOM     91  H   UNL     1     153.343 167.818 191.989  0.00  0.00    +0.062 HD
ATOM     92  H   UNL     1     150.987 168.183 191.341  0.00  0.00    +0.062 HD
ENDBRANCH  75  78
ENDBRANCH  12  75
TORSDOF 10
ENDMDL
MODEL 6
REMARK VINA RESULT:      -6.4      3.301      6.968
REMARK  Name = Jasplakinolide_conf1
REMARK  10 active torsions:
REMARK  status: ('A' for Active; 'I' for Inactive)
REMARK    1  A    between atoms: C_1  and  C_2
REMARK    2  A    between atoms: C_4  and  C_47
REMARK    3  A    between atoms: C_9  and  C_40
REMARK    4  A    between atoms: C_13  and  C_29
REMARK    5  A    between atoms: N_14  and  C_28
REMARK    6  A    between atoms: C_17  and  C_27
REMARK    7  A    between atoms: C_21  and  C_26
REMARK    8  A    between atoms: C_23  and  C_25
REMARK    9  A    between atoms: C_29  and  C_30
REMARK   10  A    between atoms: C_43  and  O_46
REMARK                            x       y       z     vdW  Elec       q    Type
REMARK                         _______ _______ _______ _____ _____    ______ ____
ROOT
ATOM      1  C   UNL     1     152.427 166.614 187.978  0.00  0.00    -0.022 C 
ATOM      2  C   UNL     1     152.774 165.848 189.278  0.00  0.00    -0.010 C 
ATOM      3  C   UNL     1     151.595 165.573 190.233  0.00  0.00    +0.101 C 
ATOM      4  O   UNL     1     151.108 166.846 190.703  0.00  0.00    -0.462 OA
ATOM      5  C   UNL     1     150.433 166.836 191.881  0.00  0.00    +0.309 C 
ATOM      6  O   UNL     1     150.252 165.850 192.583  0.00  0.00    -0.251 OA
ATOM      7  C   UNL     1     150.004 168.220 192.284  0.00  0.00    +0.067 C 
ATOM      8  C   UNL     1     149.232 168.953 191.181  0.00  0.00    +0.058 C 
ATOM      9  N   UNL     1     147.957 168.312 190.897  0.00  0.00    -0.306 N 
ATOM     10  C   UNL     1     147.458 168.193 189.614  0.00  0.00    +0.234 C 
ATOM     11  O   UNL     1     148.062 168.607 188.626  0.00  0.00    -0.274 OA
ATOM     12  C   UNL     1     146.070 167.509 189.530  0.00  0.00    +0.106 C 
ATOM     13  N   UNL     1     146.030 166.581 188.373  0.00  0.00    -0.291 N 
ATOM     14  C   UNL     1     146.335 165.244 188.596  0.00  0.00    +0.236 C 
ATOM     15  O   UNL     1     146.745 164.853 189.695  0.00  0.00    -0.274 OA
ATOM     16  C   UNL     1     146.192 164.239 187.430  0.00  0.00    +0.097 C 
ATOM     17  N   UNL     1     147.536 163.800 187.072  0.00  0.00    -0.304 N 
ATOM     18  C   UNL     1     148.119 164.107 185.866  0.00  0.00    +0.217 C 
ATOM     19  O   UNL     1     147.528 164.698 184.968  0.00  0.00    -0.275 OA
ATOM     20  C   UNL     1     149.549 163.603 185.722  0.00  0.00    +0.036 C 
ATOM     21  C   UNL     1     150.468 164.691 185.147  0.00  0.00    -0.021 C 
ATOM     22  C   UNL     1     150.812 165.770 186.163  0.00  0.00    -0.076 C 
ATOM     23  C   UNL     1     151.938 165.671 186.897  0.00  0.00    -0.082 C 
ATOM     24  H   UNL     1     151.677 167.375 188.214  0.00  0.00    +0.034 HD
ATOM     25  H   UNL     1     153.271 164.899 189.040  0.00  0.00    +0.031 HD
ATOM     26  H   UNL     1     153.503 166.445 189.842  0.00  0.00    +0.031 HD
ATOM     27  H   UNL     1     152.005 165.007 191.081  0.00  0.00    +0.073 HD
ATOM     28  H   UNL     1     150.906 168.772 192.572  0.00  0.00    +0.040 HD
ATOM     29  H   UNL     1     149.387 168.111 193.185  0.00  0.00    +0.040 HD
ATOM     30  H   UNL     1     149.838 168.930 190.266  0.00  0.00    +0.055 HD
ATOM     31  H   UNL     1     147.355 168.077 191.679  0.00  0.00    +0.149 HD
ATOM     32  H   UNL     1     145.968 166.900 190.437  0.00  0.00    +0.060 HD
ATOM     33  H   UNL     1     145.693 164.686 186.568  0.00  0.00    +0.059 HD
ATOM     34  H   UNL     1     148.098 163.399 187.815  0.00  0.00    +0.149 HD
ATOM     35  H   UNL     1     149.929 163.284 186.700  0.00  0.00    +0.039 HD
ATOM     36  H   UNL     1     151.400 164.224 184.803  0.00  0.00    +0.032 HD
ATOM     37  H   UNL     1     150.030 165.152 184.254  0.00  0.00    +0.032 HD
ATOM     38  H   UNL     1     152.585 164.810 186.724  0.00  0.00    +0.057 HD
ENDROOT
BRANCH   8  39
ATOM     39  C   UNL     1     148.981 170.414 191.536  0.00  0.00    -0.026 A 
ATOM     40  C   UNL     1     149.588 171.031 192.645  0.00  0.00    -0.053 A 
ATOM     41  C   UNL     1     149.314 172.365 192.957  0.00  0.00    -0.020 A 
ATOM     42  C   UNL     1     148.418 173.086 192.178  0.00  0.00    +0.117 A 
ATOM     43  C   UNL     1     147.796 172.499 191.082  0.00  0.00    -0.020 A 
ATOM     44  C   UNL     1     148.076 171.165 190.768  0.00  0.00    -0.053 A 
ATOM     45  H   UNL     1     150.267 170.480 193.291  0.00  0.00    +0.062 HD
ATOM     46  H   UNL     1     149.790 172.832 193.814  0.00  0.00    +0.065 HD
ATOM     47  H   UNL     1     147.083 173.047 190.475  0.00  0.00    +0.065 HD
ATOM     48  H   UNL     1     147.562 170.702 189.926  0.00  0.00    +0.062 HD
BRANCH  42  49
ATOM     49  O   UNL     1     148.156 174.374 192.539  0.00  0.00    -0.507 OA
ATOM     50  H   UNL     1     148.273 174.452 193.502  0.00  0.00    +0.292 HD
ENDBRANCH  42  49
ENDBRANCH   8  39
BRANCH   1  51
ATOM     51  C   UNL     1     153.671 167.339 187.451  0.00  0.00    -0.059 C 
ATOM     52  H   UNL     1     153.391 168.120 186.736  0.00  0.00    +0.024 HD
ATOM     53  H   UNL     1     154.344 166.644 186.934  0.00  0.00    +0.024 HD
ATOM     54  H   UNL     1     154.236 167.814 188.264  0.00  0.00    +0.024 HD
ENDBRANCH   1  51
BRANCH  22  55
ATOM     55  C   UNL     1     149.845 166.923 186.244  0.00  0.00    -0.044 C 
ATOM     56  H   UNL     1     149.659 167.339 185.247  0.00  0.00    +0.027 HD
ATOM     57  H   UNL     1     148.892 166.589 186.662  0.00  0.00    +0.027 HD
ATOM     58  H   UNL     1     150.216 167.749 186.856  0.00  0.00    +0.027 HD
ENDBRANCH  22  55
BRANCH  20  59
ATOM     59  C   UNL     1     149.521 162.377 184.808  0.00  0.00    -0.054 C 
ATOM     60  H   UNL     1     148.495 162.029 184.638  0.00  0.00    +0.024 HD
ATOM     61  H   UNL     1     149.970 162.606 183.836  0.00  0.00    +0.024 HD
ATOM     62  H   UNL     1     150.082 161.548 185.252  0.00  0.00    +0.024 HD
ENDBRANCH  20  59
BRANCH  16  63
ATOM     63  C   UNL     1     145.359 163.043 187.880  0.00  0.00    -0.038 C 
ATOM     64  H   UNL     1     145.957 162.361 188.493  0.00  0.00    +0.025 HD
ATOM     65  H   UNL     1     144.495 163.352 188.480  0.00  0.00    +0.025 HD
ATOM     66  H   UNL     1     144.981 162.487 187.016  0.00  0.00    +0.025 HD
ENDBRANCH  16  63
BRANCH  13  67
ATOM     67  C   UNL     1     145.842 167.142 187.039  0.00  0.00    +0.004 C 
ATOM     68  H   UNL     1     146.122 166.423 186.268  0.00  0.00    +0.043 HD
ATOM     69  H   UNL     1     146.458 168.033 186.893  0.00  0.00    +0.043 HD
ATOM     70  H   UNL     1     144.784 167.409 186.927  0.00  0.00    +0.043 HD
ENDBRANCH  13  67
BRANCH   3  71
ATOM     71  C   UNL     1     150.451 164.779 189.612  0.00  0.00    -0.028 C 
ATOM     72  H   UNL     1     150.742 163.733 189.472  0.00  0.00    +0.027 HD
ATOM     73  H   UNL     1     149.577 164.757 190.266  0.00  0.00    +0.027 HD
ATOM     74  H   UNL     1     150.174 165.178 188.634  0.00  0.00    +0.027 HD
ENDBRANCH   3  71
BRANCH  12  75
ATOM     75  C   UNL     1     144.915 168.529 189.532  0.00  0.00    +0.003 C 
ATOM     76  H   UNL     1     145.271 169.511 189.857  0.00  0.00    +0.034 HD
ATOM     77  H   UNL     1     144.568 168.674 188.499  0.00  0.00    +0.034 HD
BRANCH  75  78
ATOM     78  C   UNL     1     143.738 168.127 190.372  0.00  0.00    -0.006 A 
ATOM     79  C   UNL     1     142.410 168.431 190.153  0.00  0.00    +0.087 A 
ATOM     80  N   UNL     1     141.661 167.922 191.170  0.00  0.00    -0.349 N 
ATOM     81  C   UNL     1     142.469 167.261 192.065  0.00  0.00    +0.048 A 
ATOM     82  C   UNL     1     142.140 166.599 193.253  0.00  0.00    -0.038 A 
ATOM     83  C   UNL     1     143.182 166.010 193.975  0.00  0.00    -0.060 A 
ATOM     84  C   UNL     1     144.496 166.077 193.520  0.00  0.00    -0.061 A 
ATOM     85  C   UNL     1     144.806 166.743 192.329  0.00  0.00    -0.052 A 
ATOM     86  C   UNL     1     143.776 167.355 191.583  0.00  0.00    +0.004 A 
ATOM     87 BR   UNL     1     141.669 169.420 188.705  0.00  0.00    -0.031 Br
ATOM     88  H   UNL     1     140.662 168.046 191.264  0.00  0.00    +0.166 HD
ATOM     89  H   UNL     1     141.115 166.537 193.605  0.00  0.00    +0.064 HD
ATOM     90  H   UNL     1     142.960 165.485 194.901  0.00  0.00    +0.062 HD
ATOM     91  H   UNL     1     145.290 165.605 194.093  0.00  0.00    +0.062 HD
ATOM     92  H   UNL     1     145.837 166.779 191.989  0.00  0.00    +0.062 HD
ENDBRANCH  75  78
ENDBRANCH  12  75
TORSDOF 10
ENDMDL
MODEL 7
REMARK VINA RESULT:      -6.4     13.061     16.594
REMARK  Name = Jasplakinolide_conf1
REMARK  10 active torsions:
REMARK  status: ('A' for Active; 'I' for Inactive)
REMARK    1  A    between atoms: C_1  and  C_2
REMARK    2  A    between atoms: C_4  and  C_47
REMARK    3  A    between atoms: C_9  and  C_40
REMARK    4  A    between atoms: C_13  and  C_29
REMARK    5  A    between atoms: N_14  and  C_28
REMARK    6  A    between atoms: C_17  and  C_27
REMARK    7  A    between atoms: C_21  and  C_26
REMARK    8  A    between atoms: C_23  and  C_25
REMARK    9  A    between atoms: C_29  and  C_30
REMARK   10  A    between atoms: C_43  and  O_46
REMARK                            x       y       z     vdW  Elec       q    Type
REMARK                         _______ _______ _______ _____ _____    ______ ____
ROOT
ATOM      1  C   UNL     1     156.215 168.162 183.874  0.00  0.00    -0.022 C 
ATOM      2  C   UNL     1     155.935 167.324 182.603  0.00  0.00    -0.010 C 
ATOM      3  C   UNL     1     156.091 168.064 181.260  0.00  0.00    +0.101 C 
ATOM      4  O   UNL     1     155.093 169.103 181.214  0.00  0.00    -0.462 OA
ATOM      5  C   UNL     1     154.731 169.540 179.981  0.00  0.00    +0.309 C 
ATOM      6  O   UNL     1     155.149 169.090 178.922  0.00  0.00    -0.251 OA
ATOM      7  C   UNL     1     153.664 170.596 180.059  0.00  0.00    +0.067 C 
ATOM      8  C   UNL     1     154.032 171.752 180.995  0.00  0.00    +0.058 C 
ATOM      9  N   UNL     1     155.171 172.509 180.497  0.00  0.00    -0.306 N 
ATOM     10  C   UNL     1     156.156 172.999 181.333  0.00  0.00    +0.234 C 
ATOM     11  O   UNL     1     156.145 172.819 182.550  0.00  0.00    -0.274 OA
ATOM     12  C   UNL     1     157.263 173.806 180.609  0.00  0.00    +0.106 C 
ATOM     13  N   UNL     1     158.592 173.467 181.174  0.00  0.00    -0.291 N 
ATOM     14  C   UNL     1     159.334 172.473 180.549  0.00  0.00    +0.236 C 
ATOM     15  O   UNL     1     158.861 171.804 179.622  0.00  0.00    -0.274 OA
ATOM     16  C   UNL     1     160.766 172.179 181.052  0.00  0.00    +0.097 C 
ATOM     17  N   UNL     1     160.745 170.855 181.664  0.00  0.00    -0.304 N 
ATOM     18  C   UNL     1     160.940 170.658 183.009  0.00  0.00    +0.217 C 
ATOM     19  O   UNL     1     161.229 171.565 183.784  0.00  0.00    -0.275 OA
ATOM     20  C   UNL     1     160.817 169.205 183.448  0.00  0.00    +0.036 C 
ATOM     21  C   UNL     1     159.957 169.077 184.715  0.00  0.00    -0.021 C 
ATOM     22  C   UNL     1     158.471 169.258 184.442  0.00  0.00    -0.076 C 
ATOM     23  C   UNL     1     157.693 168.182 184.205  0.00  0.00    -0.082 C 
ATOM     24  H   UNL     1     155.826 169.173 183.716  0.00  0.00    +0.034 HD
ATOM     25  H   UNL     1     156.564 166.426 182.592  0.00  0.00    +0.031 HD
ATOM     26  H   UNL     1     154.895 166.972 182.649  0.00  0.00    +0.031 HD
ATOM     27  H   UNL     1     155.883 167.328 180.471  0.00  0.00    +0.073 HD
ATOM     28  H   UNL     1     152.738 170.104 180.379  0.00  0.00    +0.040 HD
ATOM     29  H   UNL     1     153.502 170.960 179.036  0.00  0.00    +0.040 HD
ATOM     30  H   UNL     1     154.303 171.329 181.971  0.00  0.00    +0.055 HD
ATOM     31  H   UNL     1     155.161 172.805 179.528  0.00  0.00    +0.149 HD
ATOM     32  H   UNL     1     157.260 173.471 179.565  0.00  0.00    +0.060 HD
ATOM     33  H   UNL     1     161.106 172.928 181.770  0.00  0.00    +0.059 HD
ATOM     34  H   UNL     1     160.411 170.091 181.086  0.00  0.00    +0.149 HD
ATOM     35  H   UNL     1     160.367 168.612 182.642  0.00  0.00    +0.039 HD
ATOM     36  H   UNL     1     160.115 168.082 185.153  0.00  0.00    +0.032 HD
ATOM     37  H   UNL     1     160.278 169.785 185.489  0.00  0.00    +0.032 HD
ATOM     38  H   UNL     1     158.163 167.198 184.231  0.00  0.00    +0.057 HD
ENDROOT
BRANCH   8  39
ATOM     39  C   UNL     1     152.862 172.706 181.211  0.00  0.00    -0.026 A 
ATOM     40  C   UNL     1     152.803 173.583 182.308  0.00  0.00    -0.053 A 
ATOM     41  C   UNL     1     151.701 174.423 182.490  0.00  0.00    -0.020 A 
ATOM     42  C   UNL     1     150.644 174.380 181.590  0.00  0.00    +0.117 A 
ATOM     43  C   UNL     1     150.672 173.516 180.502  0.00  0.00    -0.020 A 
ATOM     44  C   UNL     1     151.777 172.679 180.318  0.00  0.00    -0.053 A 
ATOM     45  H   UNL     1     153.600 173.613 183.046  0.00  0.00    +0.062 HD
ATOM     46  H   UNL     1     151.666 175.099 183.339  0.00  0.00    +0.065 HD
ATOM     47  H   UNL     1     149.846 173.462 179.800  0.00  0.00    +0.065 HD
ATOM     48  H   UNL     1     151.779 171.983 179.480  0.00  0.00    +0.062 HD
BRANCH  42  49
ATOM     49  O   UNL     1     149.576 175.194 181.825  0.00  0.00    -0.507 OA
ATOM     50  H   UNL     1     148.936 174.709 182.373  0.00  0.00    +0.292 HD
ENDBRANCH  42  49
ENDBRANCH   8  39
BRANCH   1  51
ATOM     51  C   UNL     1     155.467 167.562 185.071  0.00  0.00    -0.059 C 
ATOM     52  H   UNL     1     154.512 167.128 184.754  0.00  0.00    +0.024 HD
ATOM     53  H   UNL     1     155.247 168.329 185.823  0.00  0.00    +0.024 HD
ATOM     54  H   UNL     1     156.052 166.772 185.557  0.00  0.00    +0.024 HD
ENDBRANCH   1  51
BRANCH  22  55
ATOM     55  C   UNL     1     157.966 170.676 184.495  0.00  0.00    -0.044 C 
ATOM     56  H   UNL     1     157.333 170.891 183.626  0.00  0.00    +0.027 HD
ATOM     57  H   UNL     1     157.376 170.835 185.401  0.00  0.00    +0.027 HD
ATOM     58  H   UNL     1     158.771 171.416 184.477  0.00  0.00    +0.027 HD
ENDBRANCH  22  55
BRANCH  20  59
ATOM     59  C   UNL     1     162.228 168.670 183.693  0.00  0.00    -0.054 C 
ATOM     60  H   UNL     1     162.565 168.885 184.714  0.00  0.00    +0.024 HD
ATOM     61  H   UNL     1     162.265 167.587 183.542  0.00  0.00    +0.024 HD
ATOM     62  H   UNL     1     162.944 169.132 183.004  0.00  0.00    +0.024 HD
ENDBRANCH  20  59
BRANCH  16  63
ATOM     63  C   UNL     1     161.738 172.191 179.876  0.00  0.00    -0.038 C 
ATOM     64  H   UNL     1     162.476 171.389 179.974  0.00  0.00    +0.025 HD
ATOM     65  H   UNL     1     161.221 172.047 178.920  0.00  0.00    +0.025 HD
ATOM     66  H   UNL     1     162.272 173.145 179.824  0.00  0.00    +0.025 HD
ENDBRANCH  16  63
BRANCH  13  67
ATOM     67  C   UNL     1     158.979 174.066 182.448  0.00  0.00    +0.004 C 
ATOM     68  H   UNL     1     159.438 173.326 183.105  0.00  0.00    +0.043 HD
ATOM     69  H   UNL     1     158.111 174.475 182.972  0.00  0.00    +0.043 HD
ATOM     70  H   UNL     1     159.694 174.871 182.242  0.00  0.00    +0.043 HD
ENDBRANCH  13  67
BRANCH   3  71
ATOM     71  C   UNL     1     157.473 168.665 181.028  0.00  0.00    -0.028 C 
ATOM     72  H   UNL     1     157.595 168.952 179.978  0.00  0.00    +0.027 HD
ATOM     73  H   UNL     1     157.612 169.584 181.602  0.00  0.00    +0.027 HD
ATOM     74  H   UNL     1     158.265 167.952 181.269  0.00  0.00    +0.027 HD
ENDBRANCH   3  71
BRANCH  12  75
ATOM     75  C   UNL     1     156.973 175.320 180.603  0.00  0.00    +0.003 C 
ATOM     76  H   UNL     1     156.334 175.591 181.448  0.00  0.00    +0.034 HD
ATOM     77  H   UNL     1     157.916 175.861 180.767  0.00  0.00    +0.034 HD
BRANCH  75  78
ATOM     78  C   UNL     1     156.356 175.825 179.332  0.00  0.00    -0.006 A 
ATOM     79  C   UNL     1     156.991 176.073 178.132  0.00  0.00    +0.087 A 
ATOM     80  N   UNL     1     156.089 176.569 177.242  0.00  0.00    -0.349 N 
ATOM     81  C   UNL     1     154.845 176.642 177.823  0.00  0.00    +0.048 A 
ATOM     82  C   UNL     1     153.631 177.094 177.293  0.00  0.00    -0.038 A 
ATOM     83  C   UNL     1     152.509 177.056 178.126  0.00  0.00    -0.060 A 
ATOM     84  C   UNL     1     152.600 176.580 179.430  0.00  0.00    -0.061 A 
ATOM     85  C   UNL     1     153.822 176.131 179.943  0.00  0.00    -0.052 A 
ATOM     86  C   UNL     1     154.975 176.165 179.128  0.00  0.00    +0.004 A 
ATOM     87 BR   UNL     1     158.832 175.816 177.719  0.00  0.00    -0.031 Br
ATOM     88  H   UNL     1     156.315 176.870 176.304  0.00  0.00    +0.166 HD
ATOM     89  H   UNL     1     153.555 177.458 176.273  0.00  0.00    +0.064 HD
ATOM     90  H   UNL     1     151.549 177.398 177.744  0.00  0.00    +0.062 HD
ATOM     91  H   UNL     1     151.712 176.552 180.057  0.00  0.00    +0.062 HD
ATOM     92  H   UNL     1     153.870 175.757 180.961  0.00  0.00    +0.062 HD
ENDBRANCH  75  78
ENDBRANCH  12  75
TORSDOF 10
ENDMDL
MODEL 8
REMARK VINA RESULT:      -6.2      3.830      6.758
REMARK  Name = Jasplakinolide_conf1
REMARK  10 active torsions:
REMARK  status: ('A' for Active; 'I' for Inactive)
REMARK    1  A    between atoms: C_1  and  C_2
REMARK    2  A    between atoms: C_4  and  C_47
REMARK    3  A    between atoms: C_9  and  C_40
REMARK    4  A    between atoms: C_13  and  C_29
REMARK    5  A    between atoms: N_14  and  C_28
REMARK    6  A    between atoms: C_17  and  C_27
REMARK    7  A    between atoms: C_21  and  C_26
REMARK    8  A    between atoms: C_23  and  C_25
REMARK    9  A    between atoms: C_29  and  C_30
REMARK   10  A    between atoms: C_43  and  O_46
REMARK                            x       y       z     vdW  Elec       q    Type
REMARK                         _______ _______ _______ _____ _____    ______ ____
ROOT
ATOM      1  C   UNL     1     143.390 170.523 190.749  0.00  0.00    -0.022 C 
ATOM      2  C   UNL     1     144.248 171.810 190.784  0.00  0.00    -0.010 C 
ATOM      3  C   UNL     1     145.695 171.670 190.269  0.00  0.00    +0.101 C 
ATOM      4  O   UNL     1     146.388 170.769 191.155  0.00  0.00    -0.462 OA
ATOM      5  C   UNL     1     147.741 170.879 191.190  0.00  0.00    +0.309 C 
ATOM      6  O   UNL     1     148.399 171.704 190.569  0.00  0.00    -0.251 OA
ATOM      7  C   UNL     1     148.350 169.915 192.170  0.00  0.00    +0.067 C 
ATOM      8  C   UNL     1     147.893 168.468 191.950  0.00  0.00    +0.058 C 
ATOM      9  N   UNL     1     148.362 167.941 190.678  0.00  0.00    -0.306 N 
ATOM     10  C   UNL     1     147.581 167.125 189.881  0.00  0.00    +0.234 C 
ATOM     11  O   UNL     1     146.434 166.800 190.187  0.00  0.00    -0.274 OA
ATOM     12  C   UNL     1     148.278 166.644 188.584  0.00  0.00    +0.106 C 
ATOM     13  N   UNL     1     147.323 166.685 187.449  0.00  0.00    -0.291 N 
ATOM     14  C   UNL     1     147.302 167.823 186.652  0.00  0.00    +0.236 C 
ATOM     15  O   UNL     1     147.969 168.824 186.943  0.00  0.00    -0.274 OA
ATOM     16  C   UNL     1     146.396 167.844 185.400  0.00  0.00    +0.097 C 
ATOM     17  N   UNL     1     145.331 168.809 185.654  0.00  0.00    -0.304 N 
ATOM     18  C   UNL     1     144.015 168.440 185.791  0.00  0.00    +0.217 C 
ATOM     19  O   UNL     1     143.621 167.289 185.627  0.00  0.00    -0.275 OA
ATOM     20  C   UNL     1     143.077 169.596 186.113  0.00  0.00    +0.036 C 
ATOM     21  C   UNL     1     142.111 169.229 187.250  0.00  0.00    -0.021 C 
ATOM     22  C   UNL     1     142.782 169.221 188.616  0.00  0.00    -0.076 C 
ATOM     23  C   UNL     1     142.750 170.324 189.390  0.00  0.00    -0.082 C 
ATOM     24  H   UNL     1     144.026 169.674 191.019  0.00  0.00    +0.034 HD
ATOM     25  H   UNL     1     143.748 172.616 190.232  0.00  0.00    +0.031 HD
ATOM     26  H   UNL     1     144.317 172.146 191.828  0.00  0.00    +0.031 HD
ATOM     27  H   UNL     1     146.150 172.668 190.338  0.00  0.00    +0.073 HD
ATOM     28  H   UNL     1     148.092 170.264 193.176  0.00  0.00    +0.040 HD
ATOM     29  H   UNL     1     149.439 169.999 192.064  0.00  0.00    +0.040 HD
ATOM     30  H   UNL     1     146.795 168.453 191.943  0.00  0.00    +0.055 HD
ATOM     31  H   UNL     1     149.340 168.062 190.441  0.00  0.00    +0.149 HD
ATOM     32  H   UNL     1     149.069 167.373 188.367  0.00  0.00    +0.060 HD
ATOM     33  H   UNL     1     145.976 166.859 185.186  0.00  0.00    +0.059 HD
ATOM     34  H   UNL     1     145.618 169.751 185.897  0.00  0.00    +0.149 HD
ATOM     35  H   UNL     1     143.662 170.477 186.403  0.00  0.00    +0.039 HD
ATOM     36  H   UNL     1     141.289 169.958 187.267  0.00  0.00    +0.032 HD
ATOM     37  H   UNL     1     141.631 168.260 187.069  0.00  0.00    +0.032 HD
ATOM     38  H   UNL     1     142.221 171.199 189.008  0.00  0.00    +0.057 HD
ENDROOT
BRANCH   8  39
ATOM     39  C   UNL     1     148.363 167.546 193.069  0.00  0.00    -0.026 A 
ATOM     40  C   UNL     1     149.687 167.081 193.151  0.00  0.00    -0.053 A 
ATOM     41  C   UNL     1     150.076 166.214 194.175  0.00  0.00    -0.020 A 
ATOM     42  C   UNL     1     149.143 165.790 195.112  0.00  0.00    +0.117 A 
ATOM     43  C   UNL     1     147.825 166.226 195.051  0.00  0.00    -0.020 A 
ATOM     44  C   UNL     1     147.438 167.098 194.028  0.00  0.00    -0.053 A 
ATOM     45  H   UNL     1     150.430 167.369 192.410  0.00  0.00    +0.062 HD
ATOM     46  H   UNL     1     151.102 165.862 194.230  0.00  0.00    +0.065 HD
ATOM     47  H   UNL     1     147.083 165.891 195.768  0.00  0.00    +0.065 HD
ATOM     48  H   UNL     1     146.396 167.413 193.968  0.00  0.00    +0.062 HD
BRANCH  42  49
ATOM     49  O   UNL     1     149.560 164.918 196.075  0.00  0.00    -0.507 OA
ATOM     50  H   UNL     1     148.853 164.833 196.736  0.00  0.00    +0.292 HD
ENDBRANCH  42  49
ENDBRANCH   8  39
BRANCH   1  51
ATOM     51  C   UNL     1     142.271 170.612 191.793  0.00  0.00    -0.059 C 
ATOM     52  H   UNL     1     141.298 170.755 191.310  0.00  0.00    +0.024 HD
ATOM     53  H   UNL     1     142.430 171.459 192.470  0.00  0.00    +0.024 HD
ATOM     54  H   UNL     1     142.214 169.700 192.402  0.00  0.00    +0.024 HD
ENDBRANCH   1  51
BRANCH  22  55
ATOM     55  C   UNL     1     143.422 167.918 189.020  0.00  0.00    -0.044 C 
ATOM     56  H   UNL     1     143.680 167.325 188.135  0.00  0.00    +0.027 HD
ATOM     57  H   UNL     1     144.336 168.105 189.589  0.00  0.00    +0.027 HD
ATOM     58  H   UNL     1     142.764 167.290 189.627  0.00  0.00    +0.027 HD
ENDBRANCH  22  55
BRANCH  20  59
ATOM     59  C   UNL     1     142.308 169.942 184.837  0.00  0.00    -0.054 C 
ATOM     60  H   UNL     1     141.225 169.905 185.002  0.00  0.00    +0.024 HD
ATOM     61  H   UNL     1     142.567 170.947 184.488  0.00  0.00    +0.024 HD
ATOM     62  H   UNL     1     142.545 169.234 184.036  0.00  0.00    +0.024 HD
ENDBRANCH  20  59
BRANCH  16  63
ATOM     63  C   UNL     1     147.208 168.277 184.183  0.00  0.00    -0.038 C 
ATOM     64  H   UNL     1     146.573 168.333 183.293  0.00  0.00    +0.025 HD
ATOM     65  H   UNL     1     147.660 169.265 184.327  0.00  0.00    +0.025 HD
ATOM     66  H   UNL     1     148.017 167.567 183.984  0.00  0.00    +0.025 HD
ENDBRANCH  16  63
BRANCH  13  67
ATOM     67  C   UNL     1     146.341 165.612 187.328  0.00  0.00    +0.004 C 
ATOM     68  H   UNL     1     146.781 164.730 186.859  0.00  0.00    +0.043 HD
ATOM     69  H   UNL     1     145.492 165.920 186.711  0.00  0.00    +0.043 HD
ATOM     70  H   UNL     1     145.987 165.357 188.333  0.00  0.00    +0.043 HD
ENDBRANCH  13  67
BRANCH   3  71
ATOM     71  C   UNL     1     145.807 171.171 188.832  0.00  0.00    -0.028 C 
ATOM     72  H   UNL     1     144.948 170.542 188.577  0.00  0.00    +0.027 HD
ATOM     73  H   UNL     1     145.791 171.997 188.118  0.00  0.00    +0.027 HD
ATOM     74  H   UNL     1     146.709 170.571 188.687  0.00  0.00    +0.027 HD
ENDBRANCH   3  71
BRANCH  12  75
ATOM     75  C   UNL     1     148.956 165.271 188.758  0.00  0.00    +0.003 C 
ATOM     76  H   UNL     1     149.051 165.023 189.819  0.00  0.00    +0.034 HD
ATOM     77  H   UNL     1     148.300 164.496 188.337  0.00  0.00    +0.034 HD
BRANCH  75  78
ATOM     78  C   UNL     1     150.300 165.159 188.102  0.00  0.00    -0.006 A 
ATOM     79  C   UNL     1     151.537 165.213 188.711  0.00  0.00    +0.087 A 
ATOM     80  N   UNL     1     152.509 165.122 187.761  0.00  0.00    -0.349 N 
ATOM     81  C   UNL     1     151.939 164.988 186.517  0.00  0.00    +0.048 A 
ATOM     82  C   UNL     1     152.544 164.871 185.260  0.00  0.00    -0.038 A 
ATOM     83  C   UNL     1     151.705 164.749 184.148  0.00  0.00    -0.060 A 
ATOM     84  C   UNL     1     150.321 164.739 184.293  0.00  0.00    -0.061 A 
ATOM     85  C   UNL     1     149.734 164.856 185.558  0.00  0.00    -0.052 A 
ATOM     86  C   UNL     1     150.555 164.988 186.698  0.00  0.00    +0.004 A 
ATOM     87 BR   UNL     1     151.909 165.411 190.568  0.00  0.00    -0.031 Br
ATOM     88  H   UNL     1     153.500 165.179 187.948  0.00  0.00    +0.166 HD
ATOM     89  H   UNL     1     153.623 164.870 185.146  0.00  0.00    +0.064 HD
ATOM     90  H   UNL     1     152.143 164.654 183.157  0.00  0.00    +0.062 HD
ATOM     91  H   UNL     1     149.688 164.635 183.415  0.00  0.00    +0.062 HD
ATOM     92  H   UNL     1     148.652 164.839 185.648  0.00  0.00    +0.062 HD
ENDBRANCH  75  78
ENDBRANCH  12  75
TORSDOF 10
ENDMDL
MODEL 9
REMARK VINA RESULT:      -6.2     14.192     16.745
REMARK  Name = Jasplakinolide_conf1
REMARK  10 active torsions:
REMARK  status: ('A' for Active; 'I' for Inactive)
REMARK    1  A    between atoms: C_1  and  C_2
REMARK    2  A    between atoms: C_4  and  C_47
REMARK    3  A    between atoms: C_9  and  C_40
REMARK    4  A    between atoms: C_13  and  C_29
REMARK    5  A    between atoms: N_14  and  C_28
REMARK    6  A    between atoms: C_17  and  C_27
REMARK    7  A    between atoms: C_21  and  C_26
REMARK    8  A    between atoms: C_23  and  C_25
REMARK    9  A    between atoms: C_29  and  C_30
REMARK   10  A    between atoms: C_43  and  O_46
REMARK                            x       y       z     vdW  Elec       q    Type
REMARK                         _______ _______ _______ _____ _____    ______ ____
ROOT
ATOM      1  C   UNL     1     155.599 179.188 176.782  0.00  0.00    -0.022 C 
ATOM      2  C   UNL     1     155.935 178.344 175.528  0.00  0.00    -0.010 C 
ATOM      3  C   UNL     1     155.477 176.873 175.563  0.00  0.00    +0.101 C 
ATOM      4  O   UNL     1     156.199 176.215 176.624  0.00  0.00    -0.462 OA
ATOM      5  C   UNL     1     156.324 174.867 176.525  0.00  0.00    +0.309 C 
ATOM      6  O   UNL     1     155.915 174.187 175.592  0.00  0.00    -0.251 OA
ATOM      7  C   UNL     1     157.120 174.300 177.667  0.00  0.00    +0.067 C 
ATOM      8  C   UNL     1     156.591 174.731 179.039  0.00  0.00    +0.058 C 
ATOM      9  N   UNL     1     155.265 174.194 179.300  0.00  0.00    -0.306 N 
ATOM     10  C   UNL     1     154.282 174.927 179.939  0.00  0.00    +0.234 C 
ATOM     11  O   UNL     1     154.457 176.084 180.318  0.00  0.00    -0.274 OA
ATOM     12  C   UNL     1     152.952 174.161 180.150  0.00  0.00    +0.106 C 
ATOM     13  N   UNL     1     151.801 175.058 179.881  0.00  0.00    -0.291 N 
ATOM     14  C   UNL     1     151.249 175.050 178.606  0.00  0.00    +0.236 C 
ATOM     15  O   UNL     1     151.768 174.408 177.685  0.00  0.00    -0.274 OA
ATOM     16  C   UNL     1     149.982 175.893 178.333  0.00  0.00    +0.097 C 
ATOM     17  N   UNL     1     150.370 176.977 177.438  0.00  0.00    -0.304 N 
ATOM     18  C   UNL     1     150.363 178.295 177.826  0.00  0.00    +0.217 C 
ATOM     19  O   UNL     1     149.951 178.669 178.920  0.00  0.00    -0.275 OA
ATOM     20  C   UNL     1     150.862 179.259 176.758  0.00  0.00    +0.036 C 
ATOM     21  C   UNL     1     151.852 180.278 177.345  0.00  0.00    -0.021 C 
ATOM     22  C   UNL     1     153.220 179.676 177.628  0.00  0.00    -0.076 C 
ATOM     23  C   UNL     1     154.197 179.756 176.703  0.00  0.00    -0.082 C 
ATOM     24  H   UNL     1     155.726 178.558 177.668  0.00  0.00    +0.034 HD
ATOM     25  H   UNL     1     155.532 178.823 174.627  0.00  0.00    +0.031 HD
ATOM     26  H   UNL     1     157.028 178.331 175.409  0.00  0.00    +0.031 HD
ATOM     27  H   UNL     1     155.769 176.431 174.600  0.00  0.00    +0.073 HD
ATOM     28  H   UNL     1     158.162 174.610 177.527  0.00  0.00    +0.040 HD
ATOM     29  H   UNL     1     157.090 173.207 177.564  0.00  0.00    +0.040 HD
ATOM     30  H   UNL     1     156.525 175.827 179.051  0.00  0.00    +0.055 HD
ATOM     31  H   UNL     1     155.108 173.206 179.136  0.00  0.00    +0.149 HD
ATOM     32  H   UNL     1     152.926 173.367 179.394  0.00  0.00    +0.060 HD
ATOM     33  H   UNL     1     149.553 176.291 179.255  0.00  0.00    +0.059 HD
ATOM     34  H   UNL     1     150.811 176.711 176.565  0.00  0.00    +0.149 HD
ATOM     35  H   UNL     1     151.352 178.697 175.953  0.00  0.00    +0.039 HD
ATOM     36  H   UNL     1     151.973 181.106 176.633  0.00  0.00    +0.032 HD
ATOM     37  H   UNL     1     151.455 180.738 178.258  0.00  0.00    +0.032 HD
ATOM     38  H   UNL     1     153.972 180.273 175.769  0.00  0.00    +0.057 HD
ENDROOT
BRANCH   8  39
ATOM     39  C   UNL     1     157.525 174.309 180.168  0.00  0.00    -0.026 A 
ATOM     40  C   UNL     1     157.914 175.194 181.190  0.00  0.00    -0.053 A 
ATOM     41  C   UNL     1     158.794 174.781 182.193  0.00  0.00    -0.020 A 
ATOM     42  C   UNL     1     159.307 173.491 182.173  0.00  0.00    +0.117 A 
ATOM     43  C   UNL     1     158.947 172.598 181.171  0.00  0.00    -0.020 A 
ATOM     44  C   UNL     1     158.062 173.010 180.170  0.00  0.00    -0.053 A 
ATOM     45  H   UNL     1     157.555 176.220 181.210  0.00  0.00    +0.062 HD
ATOM     46  H   UNL     1     159.086 175.471 182.979  0.00  0.00    +0.065 HD
ATOM     47  H   UNL     1     159.352 171.591 181.136  0.00  0.00    +0.065 HD
ATOM     48  H   UNL     1     157.808 172.315 179.370  0.00  0.00    +0.062 HD
BRANCH  42  49
ATOM     49  O   UNL     1     160.188 173.142 183.154  0.00  0.00    -0.507 OA
ATOM     50  H   UNL     1     160.334 173.917 183.723  0.00  0.00    +0.292 HD
ENDBRANCH  42  49
ENDBRANCH   8  39
BRANCH   1  51
ATOM     51  C   UNL     1     156.582 180.358 176.904  0.00  0.00    -0.059 C 
ATOM     52  H   UNL     1     156.328 181.154 176.194  0.00  0.00    +0.024 HD
ATOM     53  H   UNL     1     157.607 180.037 176.685  0.00  0.00    +0.024 HD
ATOM     54  H   UNL     1     156.572 180.790 177.912  0.00  0.00    +0.024 HD
ENDBRANCH   1  51
BRANCH  22  55
ATOM     55  C   UNL     1     153.386 179.044 178.986  0.00  0.00    -0.044 C 
ATOM     56  H   UNL     1     152.592 179.376 179.664  0.00  0.00    +0.027 HD
ATOM     57  H   UNL     1     153.340 177.955 178.906  0.00  0.00    +0.027 HD
ATOM     58  H   UNL     1     154.331 179.312 179.467  0.00  0.00    +0.027 HD
ENDBRANCH  22  55
BRANCH  20  59
ATOM     59  C   UNL     1     149.644 179.966 176.161  0.00  0.00    -0.054 C 
ATOM     60  H   UNL     1     149.716 181.054 176.282  0.00  0.00    +0.024 HD
ATOM     61  H   UNL     1     149.551 179.746 175.093  0.00  0.00    +0.024 HD
ATOM     62  H   UNL     1     148.723 179.639 176.656  0.00  0.00    +0.024 HD
ENDBRANCH  20  59
BRANCH  16  63
ATOM     63  C   UNL     1     148.920 175.025 177.665  0.00  0.00    -0.038 C 
ATOM     64  H   UNL     1     148.708 175.381 176.652  0.00  0.00    +0.025 HD
ATOM     65  H   UNL     1     149.241 173.979 177.586  0.00  0.00    +0.025 HD
ATOM     66  H   UNL     1     147.987 175.043 178.238  0.00  0.00    +0.025 HD
ENDBRANCH  16  63
BRANCH  13  67
ATOM     67  C   UNL     1     151.417 176.022 180.908  0.00  0.00    +0.004 C 
ATOM     68  H   UNL     1     152.244 176.218 181.592  0.00  0.00    +0.043 HD
ATOM     69  H   UNL     1     150.580 175.651 181.505  0.00  0.00    +0.043 HD
ATOM     70  H   UNL     1     151.123 176.953 180.408  0.00  0.00    +0.043 HD
ENDBRANCH  13  67
BRANCH   3  71
ATOM     71  C   UNL     1     153.978 176.683 175.764  0.00  0.00    -0.028 C 
ATOM     72  H   UNL     1     153.777 175.743 176.287  0.00  0.00    +0.027 HD
ATOM     73  H   UNL     1     153.556 177.468 176.396  0.00  0.00    +0.027 HD
ATOM     74  H   UNL     1     153.448 176.649 174.809  0.00  0.00    +0.027 HD
ENDBRANCH   3  71
BRANCH  12  75
ATOM     75  C   UNL     1     152.881 173.479 181.531  0.00  0.00    +0.003 C 
ATOM     76  H   UNL     1     152.985 174.220 182.329  0.00  0.00    +0.034 HD
ATOM     77  H   UNL     1     151.879 173.050 181.663  0.00  0.00    +0.034 HD
BRANCH  75  78
ATOM     78  C   UNL     1     153.892 172.389 181.733  0.00  0.00    -0.006 A 
ATOM     79  C   UNL     1     153.966 171.182 181.068  0.00  0.00    +0.087 A 
ATOM     80  N   UNL     1     154.997 170.453 181.578  0.00  0.00    -0.349 N 
ATOM     81  C   UNL     1     155.632 171.164 182.569  0.00  0.00    +0.048 A 
ATOM     82  C   UNL     1     156.724 170.810 183.369  0.00  0.00    -0.038 A 
ATOM     83  C   UNL     1     157.163 171.743 184.312  0.00  0.00    -0.060 A 
ATOM     84  C   UNL     1     156.536 172.979 184.443  0.00  0.00    -0.061 A 
ATOM     85  C   UNL     1     155.445 173.316 183.634  0.00  0.00    -0.052 A 
ATOM     86  C   UNL     1     154.975 172.391 182.677  0.00  0.00    +0.004 A 
ATOM     87 BR   UNL     1     152.832 170.553 179.674  0.00  0.00    -0.031 Br
ATOM     88  H   UNL     1     155.233 169.513 181.289  0.00  0.00    +0.166 HD
ATOM     89  H   UNL     1     157.220 169.850 183.263  0.00  0.00    +0.064 HD
ATOM     90  H   UNL     1     158.011 171.501 184.948  0.00  0.00    +0.062 HD
ATOM     91  H   UNL     1     156.899 173.693 185.178  0.00  0.00    +0.062 HD
ATOM     92  H   UNL     1     154.975 174.288 183.748  0.00  0.00    +0.062 HD
ENDBRANCH  75  78
ENDBRANCH  12  75
TORSDOF 10
ENDMDL
MODEL 10
REMARK VINA RESULT:      -6.0     13.446     16.871
REMARK  Name = Jasplakinolide_conf1
REMARK  10 active torsions:
REMARK  status: ('A' for Active; 'I' for Inactive)
REMARK    1  A    between atoms: C_1  and  C_2
REMARK    2  A    between atoms: C_4  and  C_47
REMARK    3  A    between atoms: C_9  and  C_40
REMARK    4  A    between atoms: C_13  and  C_29
REMARK    5  A    between atoms: N_14  and  C_28
REMARK    6  A    between atoms: C_17  and  C_27
REMARK    7  A    between atoms: C_21  and  C_26
REMARK    8  A    between atoms: C_23  and  C_25
REMARK    9  A    between atoms: C_29  and  C_30
REMARK   10  A    between atoms: C_43  and  O_46
REMARK                            x       y       z     vdW  Elec       q    Type
REMARK                         _______ _______ _______ _____ _____    ______ ____
ROOT
ATOM      1  C   UNL     1     156.231 168.182 183.968  0.00  0.00    -0.022 C 
ATOM      2  C   UNL     1     155.941 167.309 182.723  0.00  0.00    -0.010 C 
ATOM      3  C   UNL     1     156.089 168.010 181.358  0.00  0.00    +0.101 C 
ATOM      4  O   UNL     1     155.092 169.050 181.290  0.00  0.00    -0.462 OA
ATOM      5  C   UNL     1     154.722 169.451 180.047  0.00  0.00    +0.309 C 
ATOM      6  O   UNL     1     155.133 168.971 178.998  0.00  0.00    -0.251 OA
ATOM      7  C   UNL     1     153.657 170.512 180.102  0.00  0.00    +0.067 C 
ATOM      8  C   UNL     1     154.034 171.693 181.003  0.00  0.00    +0.058 C 
ATOM      9  N   UNL     1     155.170 172.433 180.476  0.00  0.00    -0.306 N 
ATOM     10  C   UNL     1     156.162 172.946 181.291  0.00  0.00    +0.234 C 
ATOM     11  O   UNL     1     156.159 172.799 182.512  0.00  0.00    -0.274 OA
ATOM     12  C   UNL     1     157.265 173.730 180.536  0.00  0.00    +0.106 C 
ATOM     13  N   UNL     1     158.597 173.404 181.102  0.00  0.00    -0.291 N 
ATOM     14  C   UNL     1     159.334 172.392 180.500  0.00  0.00    +0.236 C 
ATOM     15  O   UNL     1     158.853 171.697 179.596  0.00  0.00    -0.274 OA
ATOM     16  C   UNL     1     160.769 172.110 181.001  0.00  0.00    +0.097 C 
ATOM     17  N   UNL     1     160.750 170.804 181.651  0.00  0.00    -0.304 N 
ATOM     18  C   UNL     1     160.954 170.645 183.000  0.00  0.00    +0.217 C 
ATOM     19  O   UNL     1     161.250 171.573 183.747  0.00  0.00    -0.275 OA
ATOM     20  C   UNL     1     160.831 169.205 183.481  0.00  0.00    +0.036 C 
ATOM     21  C   UNL     1     159.980 169.114 184.757  0.00  0.00    -0.021 C 
ATOM     22  C   UNL     1     158.493 169.290 184.489  0.00  0.00    -0.076 C 
ATOM     23  C   UNL     1     157.712 168.210 184.287  0.00  0.00    -0.082 C 
ATOM     24  H   UNL     1     155.842 169.189 183.783  0.00  0.00    +0.034 HD
ATOM     25  H   UNL     1     156.569 166.410 182.733  0.00  0.00    +0.031 HD
ATOM     26  H   UNL     1     154.900 166.960 182.786  0.00  0.00    +0.031 HD
ATOM     27  H   UNL     1     155.875 167.253 180.592  0.00  0.00    +0.073 HD
ATOM     28  H   UNL     1     152.733 170.031 180.443  0.00  0.00    +0.040 HD
ATOM     29  H   UNL     1     153.489 170.847 179.071  0.00  0.00    +0.040 HD
ATOM     30  H   UNL     1     154.311 171.297 181.989  0.00  0.00    +0.055 HD
ATOM     31  H   UNL     1     155.154 172.702 179.499  0.00  0.00    +0.149 HD
ATOM     32  H   UNL     1     157.255 173.365 179.502  0.00  0.00    +0.060 HD
ATOM     33  H   UNL     1     161.114 172.878 181.696  0.00  0.00    +0.059 HD
ATOM     34  H   UNL     1     160.411 170.024 181.097  0.00  0.00    +0.149 HD
ATOM     35  H   UNL     1     160.375 168.590 182.695  0.00  0.00    +0.039 HD
ATOM     36  H   UNL     1     160.140 168.132 185.221  0.00  0.00    +0.032 HD
ATOM     37  H   UNL     1     160.308 169.844 185.508  0.00  0.00    +0.032 HD
ATOM     38  H   UNL     1     158.180 167.226 184.339  0.00  0.00    +0.057 HD
ENDROOT
BRANCH   8  39
ATOM     39  C   UNL     1     152.867 172.654 181.200  0.00  0.00    -0.026 A 
ATOM     40  C   UNL     1     152.793 173.529 182.298  0.00  0.00    -0.053 A 
ATOM     41  C   UNL     1     151.694 174.376 182.462  0.00  0.00    -0.020 A 
ATOM     42  C   UNL     1     150.654 174.343 181.542  0.00  0.00    +0.117 A 
ATOM     43  C   UNL     1     150.697 173.483 180.451  0.00  0.00    -0.020 A 
ATOM     44  C   UNL     1     151.799 172.638 180.286  0.00  0.00    -0.053 A 
ATOM     45  H   UNL     1     153.576 173.550 183.052  0.00  0.00    +0.062 HD
ATOM     46  H   UNL     1     151.648 175.049 183.313  0.00  0.00    +0.065 HD
ATOM     47  H   UNL     1     149.884 173.437 179.733  0.00  0.00    +0.065 HD
ATOM     48  H   UNL     1     151.812 171.945 179.446  0.00  0.00    +0.062 HD
BRANCH  42  49
ATOM     49  O   UNL     1     149.588 175.165 181.759  0.00  0.00    -0.507 OA
ATOM     50  H   UNL     1     148.956 174.700 182.334  0.00  0.00    +0.292 HD
ENDBRANCH  42  49
ENDBRANCH   8  39
BRANCH   1  51
ATOM     51  C   UNL     1     155.491 167.618 185.186  0.00  0.00    -0.059 C 
ATOM     52  H   UNL     1     156.176 167.486 186.030  0.00  0.00    +0.024 HD
ATOM     53  H   UNL     1     155.052 166.639 184.963  0.00  0.00    +0.024 HD
ATOM     54  H   UNL     1     154.681 168.285 185.510  0.00  0.00    +0.024 HD
ENDBRANCH   1  51
BRANCH  22  55
ATOM     55  C   UNL     1     157.990 170.710 184.504  0.00  0.00    -0.044 C 
ATOM     56  H   UNL     1     158.603 171.327 185.171  0.00  0.00    +0.027 HD
ATOM     57  H   UNL     1     158.033 171.139 183.500  0.00  0.00    +0.027 HD
ATOM     58  H   UNL     1     156.963 170.794 184.868  0.00  0.00    +0.027 HD
ENDBRANCH  22  55
BRANCH  20  59
ATOM     59  C   UNL     1     162.243 168.675 183.731  0.00  0.00    -0.054 C 
ATOM     60  H   UNL     1     162.825 168.636 182.802  0.00  0.00    +0.024 HD
ATOM     61  H   UNL     1     162.778 169.311 184.443  0.00  0.00    +0.024 HD
ATOM     62  H   UNL     1     162.210 167.660 184.144  0.00  0.00    +0.024 HD
ENDBRANCH  20  59
BRANCH  16  63
ATOM     63  C   UNL     1     161.733 172.087 179.819  0.00  0.00    -0.038 C 
ATOM     64  H   UNL     1     161.797 173.074 179.351  0.00  0.00    +0.025 HD
ATOM     65  H   UNL     1     162.746 171.802 180.126  0.00  0.00    +0.025 HD
ATOM     66  H   UNL     1     161.401 171.369 179.062  0.00  0.00    +0.025 HD
ENDBRANCH  16  63
BRANCH  13  67
ATOM     67  C   UNL     1     158.994 174.039 182.355  0.00  0.00    +0.004 C 
ATOM     68  H   UNL     1     159.923 173.610 182.735  0.00  0.00    +0.043 HD
ATOM     69  H   UNL     1     158.232 173.901 183.127  0.00  0.00    +0.043 HD
ATOM     70  H   UNL     1     159.133 175.110 182.167  0.00  0.00    +0.043 HD
ENDBRANCH  13  67
BRANCH   3  71
ATOM     71  C   UNL     1     157.470 168.602 181.100  0.00  0.00    -0.028 C 
ATOM     72  H   UNL     1     157.589 168.850 180.040  0.00  0.00    +0.027 HD
ATOM     73  H   UNL     1     157.611 169.542 181.639  0.00  0.00    +0.027 HD
ATOM     74  H   UNL     1     158.262 167.899 181.365  0.00  0.00    +0.027 HD
ENDBRANCH   3  71
BRANCH  12  75
ATOM     75  C   UNL     1     156.978 175.244 180.489  0.00  0.00    +0.003 C 
ATOM     76  H   UNL     1     156.185 175.505 181.196  0.00  0.00    +0.034 HD
ATOM     77  H   UNL     1     157.868 175.784 180.839  0.00  0.00    +0.034 HD
BRANCH  75  78
ATOM     78  C   UNL     1     156.617 175.761 179.128  0.00  0.00    -0.006 A 
ATOM     79  C   UNL     1     155.365 176.119 178.673  0.00  0.00    +0.087 A 
ATOM     80  N   UNL     1     155.453 176.491 177.366  0.00  0.00    -0.349 N 
ATOM     81  C   UNL     1     156.757 176.405 176.938  0.00  0.00    +0.048 A 
ATOM     82  C   UNL     1     157.310 176.677 175.682  0.00  0.00    -0.038 A 
ATOM     83  C   UNL     1     158.688 176.497 175.530  0.00  0.00    -0.060 A 
ATOM     84  C   UNL     1     159.476 176.070 176.595  0.00  0.00    -0.061 A 
ATOM     85  C   UNL     1     158.906 175.804 177.845  0.00  0.00    -0.052 A 
ATOM     86  C   UNL     1     157.516 175.969 178.026  0.00  0.00    +0.004 A 
ATOM     87 BR   UNL     1     153.727 176.097 179.643  0.00  0.00    -0.031 Br
ATOM     88  H   UNL     1     154.665 176.757 176.791  0.00  0.00    +0.166 HD
ATOM     89  H   UNL     1     156.699 177.018 174.853  0.00  0.00    +0.064 HD
ATOM     90  H   UNL     1     159.150 176.701 174.567  0.00  0.00    +0.062 HD
ATOM     91  H   UNL     1     160.547 175.944 176.457  0.00  0.00    +0.062 HD
ATOM     92  H   UNL     1     159.540 175.477 178.664  0.00  0.00    +0.062 HD
ENDBRANCH  75  78
ENDBRANCH  12  75
TORSDOF 10
ENDMDL
