MODEL 1
REMARK VINA RESULT:      -7.1      0.000      0.000
REMARK  Name = Jasplakinolide_conf3
REMARK  10 active torsions:
REMARK  status: ('A' for Active; 'I' for Inactive)
REMARK    1  A    between atoms: C_1  and  C_2
REMARK    2  A    between atoms: C_4  and  C_47
REMARK    3  A    between atoms: C_9  and  C_40
REMARK    4  A    between atoms: C_13  and  C_29
REMARK    5  A    between atoms: N_14  and  C_28
REMARK    6  A    between atoms: C_17  and  C_27
REMARK    7  A    between atoms: C_21  and  C_26
REMARK    8  A    between atoms: C_23  and  C_25
REMARK    9  A    between atoms: C_29  and  C_30
REMARK   10  A    between atoms: C_43  and  O_46
REMARK                            x       y       z     vdW  Elec       q    Type
REMARK                         _______ _______ _______ _____ _____    ______ ____
ROOT
ATOM      1  C   UNL     1     151.124 167.095 190.774  0.00  0.00    -0.022 C 
ATOM      2  C   UNL     1     152.051 167.601 189.643  0.00  0.00    -0.010 C 
ATOM      3  C   UNL     1     152.320 166.529 188.573  0.00  0.00    +0.101 C 
ATOM      4  O   UNL     1     151.244 166.596 187.611  0.00  0.00    -0.462 OA
ATOM      5  C   UNL     1     151.007 165.470 186.881  0.00  0.00    +0.309 C 
ATOM      6  O   UNL     1     151.559 164.392 187.045  0.00  0.00    -0.251 OA
ATOM      7  C   UNL     1     150.069 165.781 185.744  0.00  0.00    +0.067 C 
ATOM      8  C   UNL     1     148.930 164.762 185.639  0.00  0.00    +0.058 C 
ATOM      9  N   UNL     1     147.791 165.175 186.446  0.00  0.00    -0.306 N 
ATOM     10  C   UNL     1     147.373 164.515 187.582  0.00  0.00    +0.234 C 
ATOM     11  O   UNL     1     147.868 163.452 187.947  0.00  0.00    -0.274 OA
ATOM     12  C   UNL     1     146.100 165.129 188.222  0.00  0.00    +0.106 C 
ATOM     13  N   UNL     1     145.994 166.600 187.994  0.00  0.00    -0.291 N 
ATOM     14  C   UNL     1     146.984 167.411 188.540  0.00  0.00    +0.236 C 
ATOM     15  O   UNL     1     148.019 166.914 188.996  0.00  0.00    -0.274 OA
ATOM     16  C   UNL     1     146.831 168.946 188.497  0.00  0.00    +0.097 C 
ATOM     17  N   UNL     1     147.702 169.500 189.534  0.00  0.00    -0.304 N 
ATOM     18  C   UNL     1     147.241 170.189 190.629  0.00  0.00    +0.217 C 
ATOM     19  O   UNL     1     146.051 170.427 190.813  0.00  0.00    -0.275 OA
ATOM     20  C   UNL     1     148.346 170.641 191.586  0.00  0.00    +0.036 C 
ATOM     21  C   UNL     1     148.670 169.558 192.633  0.00  0.00    -0.021 C 
ATOM     22  C   UNL     1     149.257 168.279 192.065  0.00  0.00    -0.076 C 
ATOM     23  C   UNL     1     150.472 168.270 191.478  0.00  0.00    -0.082 C 
ATOM     24  H   UNL     1     150.349 166.469 190.318  0.00  0.00    +0.034 HD
ATOM     25  H   UNL     1     152.995 167.940 190.089  0.00  0.00    +0.031 HD
ATOM     26  H   UNL     1     151.594 168.474 189.157  0.00  0.00    +0.031 HD
ATOM     27  H   UNL     1     152.376 165.533 189.026  0.00  0.00    +0.073 HD
ATOM     28  H   UNL     1     149.674 166.799 185.856  0.00  0.00    +0.040 HD
ATOM     29  H   UNL     1     150.696 165.780 184.842  0.00  0.00    +0.040 HD
ATOM     30  H   UNL     1     149.281 163.787 185.997  0.00  0.00    +0.055 HD
ATOM     31  H   UNL     1     147.274 166.000 186.175  0.00  0.00    +0.149 HD
ATOM     32  H   UNL     1     145.284 164.671 187.644  0.00  0.00    +0.060 HD
ATOM     33  H   UNL     1     145.798 169.224 188.715  0.00  0.00    +0.059 HD
ATOM     34  H   UNL     1     148.651 169.137 189.559  0.00  0.00    +0.149 HD
ATOM     35  H   UNL     1     149.240 170.870 190.992  0.00  0.00    +0.039 HD
ATOM     36  H   UNL     1     147.762 169.322 193.203  0.00  0.00    +0.032 HD
ATOM     37  H   UNL     1     149.383 169.961 193.367  0.00  0.00    +0.032 HD
ATOM     38  H   UNL     1     151.048 169.195 191.473  0.00  0.00    +0.057 HD
ENDROOT
BRANCH   8  39
ATOM     39  C   UNL     1     148.437 164.600 184.207  0.00  0.00    -0.026 A 
ATOM     40  C   UNL     1     147.263 163.891 183.897  0.00  0.00    -0.053 A 
ATOM     41  C   UNL     1     146.853 163.738 182.571  0.00  0.00    -0.020 A 
ATOM     42  C   UNL     1     147.616 164.284 181.547  0.00  0.00    +0.117 A 
ATOM     43  C   UNL     1     148.788 164.978 181.825  0.00  0.00    -0.020 A 
ATOM     44  C   UNL     1     149.199 165.131 183.152  0.00  0.00    -0.053 A 
ATOM     45  H   UNL     1     146.655 163.449 184.683  0.00  0.00    +0.062 HD
ATOM     46  H   UNL     1     145.942 163.196 182.337  0.00  0.00    +0.065 HD
ATOM     47  H   UNL     1     149.395 165.403 181.031  0.00  0.00    +0.065 HD
ATOM     48  H   UNL     1     150.124 165.666 183.362  0.00  0.00    +0.062 HD
BRANCH  42  49
ATOM     49  O   UNL     1     147.179 164.112 180.268  0.00  0.00    -0.507 OA
ATOM     50  H   UNL     1     146.404 164.681 180.127  0.00  0.00    +0.292 HD
ENDBRANCH  42  49
ENDBRANCH   8  39
BRANCH   1  51
ATOM     51  C   UNL     1     151.909 166.255 191.787  0.00  0.00    -0.059 C 
ATOM     52  H   UNL     1     152.237 165.308 191.343  0.00  0.00    +0.024 HD
ATOM     53  H   UNL     1     151.301 166.017 192.667  0.00  0.00    +0.024 HD
ATOM     54  H   UNL     1     152.804 166.781 192.131  0.00  0.00    +0.024 HD
ENDBRANCH   1  51
BRANCH  22  55
ATOM     55  C   UNL     1     148.384 167.063 192.231  0.00  0.00    -0.044 C 
ATOM     56  H   UNL     1     148.932 166.119 192.188  0.00  0.00    +0.027 HD
ATOM     57  H   UNL     1     147.878 167.098 193.201  0.00  0.00    +0.027 HD
ATOM     58  H   UNL     1     147.622 167.040 191.449  0.00  0.00    +0.027 HD
ENDBRANCH  22  55
BRANCH  20  59
ATOM     59  C   UNL     1     147.920 171.932 192.288  0.00  0.00    -0.054 C 
ATOM     60  H   UNL     1     148.631 172.745 192.102  0.00  0.00    +0.024 HD
ATOM     61  H   UNL     1     147.863 171.784 193.372  0.00  0.00    +0.024 HD
ATOM     62  H   UNL     1     146.933 172.257 191.940  0.00  0.00    +0.024 HD
ENDBRANCH  20  59
BRANCH  16  63
ATOM     63  C   UNL     1     147.267 169.473 187.135  0.00  0.00    -0.038 C 
ATOM     64  H   UNL     1     147.135 170.556 187.056  0.00  0.00    +0.025 HD
ATOM     65  H   UNL     1     148.322 169.244 186.951  0.00  0.00    +0.025 HD
ATOM     66  H   UNL     1     146.682 169.015 186.329  0.00  0.00    +0.025 HD
ENDBRANCH  16  63
BRANCH  13  67
ATOM     67  C   UNL     1     144.758 167.075 187.383  0.00  0.00    +0.004 C 
ATOM     68  H   UNL     1     143.905 166.435 187.599  0.00  0.00    +0.043 HD
ATOM     69  H   UNL     1     144.544 168.075 187.770  0.00  0.00    +0.043 HD
ATOM     70  H   UNL     1     144.888 167.129 186.300  0.00  0.00    +0.043 HD
ENDBRANCH  13  67
BRANCH   3  71
ATOM     71  C   UNL     1     153.626 166.833 187.838  0.00  0.00    -0.028 C 
ATOM     72  H   UNL     1     153.496 166.738 186.756  0.00  0.00    +0.027 HD
ATOM     73  H   UNL     1     154.423 166.152 188.150  0.00  0.00    +0.027 HD
ATOM     74  H   UNL     1     153.948 167.863 188.026  0.00  0.00    +0.027 HD
ENDBRANCH   3  71
BRANCH  12  75
ATOM     75  C   UNL     1     145.944 164.714 189.701  0.00  0.00    +0.003 C 
ATOM     76  H   UNL     1     146.631 165.277 190.342  0.00  0.00    +0.034 HD
ATOM     77  H   UNL     1     146.227 163.664 189.838  0.00  0.00    +0.034 HD
BRANCH  75  78
ATOM     78  C   UNL     1     144.537 164.890 190.211  0.00  0.00    -0.006 A 
ATOM     79  C   UNL     1     143.372 164.463 189.609  0.00  0.00    +0.087 A 
ATOM     80  N   UNL     1     142.310 164.806 190.391  0.00  0.00    -0.349 N 
ATOM     81  C   UNL     1     142.744 165.487 191.502  0.00  0.00    +0.048 A 
ATOM     82  C   UNL     1     142.014 166.046 192.559  0.00  0.00    -0.038 A 
ATOM     83  C   UNL     1     142.729 166.698 193.567  0.00  0.00    -0.060 A 
ATOM     84  C   UNL     1     144.117 166.779 193.521  0.00  0.00    -0.061 A 
ATOM     85  C   UNL     1     144.829 166.207 192.461  0.00  0.00    -0.052 A 
ATOM     86  C   UNL     1     144.137 165.548 191.424  0.00  0.00    +0.004 A 
ATOM     87 BR   UNL     1     143.201 163.542 187.953  0.00  0.00    -0.031 Br
ATOM     88  H   UNL     1     141.345 164.598 190.177  0.00  0.00    +0.166 HD
ATOM     89  H   UNL     1     140.932 165.983 192.599  0.00  0.00    +0.064 HD
ATOM     90  H   UNL     1     142.194 167.146 194.402  0.00  0.00    +0.062 HD
ATOM     91  H   UNL     1     144.662 167.294 194.311  0.00  0.00    +0.062 HD
ATOM     92  H   UNL     1     145.910 166.286 192.447  0.00  0.00    +0.062 HD
ENDBRANCH  75  78
ENDBRANCH  12  75
TORSDOF 10
ENDMDL
MODEL 2
REMARK VINA RESULT:      -7.0      5.392      9.040
REMARK  Name = Jasplakinolide_conf3
REMARK  10 active torsions:
REMARK  status: ('A' for Active; 'I' for Inactive)
REMARK    1  A    between atoms: C_1  and  C_2
REMARK    2  A    between atoms: C_4  and  C_47
REMARK    3  A    between atoms: C_9  and  C_40
REMARK    4  A    between atoms: C_13  and  C_29
REMARK    5  A    between atoms: N_14  and  C_28
REMARK    6  A    between atoms: C_17  and  C_27
REMARK    7  A    between atoms: C_21  and  C_26
REMARK    8  A    between atoms: C_23  and  C_25
REMARK    9  A    between atoms: C_29  and  C_30
REMARK   10  A    between atoms: C_43  and  O_46
REMARK                            x       y       z     vdW  Elec       q    Type
REMARK                         _______ _______ _______ _____ _____    ______ ____
ROOT
ATOM      1  C   UNL     1     141.569 175.019 189.852  0.00  0.00    -0.022 C 
ATOM      2  C   UNL     1     141.093 175.650 188.522  0.00  0.00    -0.010 C 
ATOM      3  C   UNL     1     142.259 176.157 187.656  0.00  0.00    +0.101 C 
ATOM      4  O   UNL     1     142.730 175.043 186.866  0.00  0.00    -0.462 OA
ATOM      5  C   UNL     1     144.014 175.114 186.413  0.00  0.00    +0.309 C 
ATOM      6  O   UNL     1     144.818 175.987 186.704  0.00  0.00    -0.251 OA
ATOM      7  C   UNL     1     144.259 174.040 185.385  0.00  0.00    +0.067 C 
ATOM      8  C   UNL     1     145.559 173.274 185.650  0.00  0.00    +0.058 C 
ATOM      9  N   UNL     1     145.317 172.130 186.516  0.00  0.00    -0.306 N 
ATOM     10  C   UNL     1     145.788 172.029 187.808  0.00  0.00    +0.234 C 
ATOM     11  O   UNL     1     146.549 172.859 188.299  0.00  0.00    -0.274 OA
ATOM     12  C   UNL     1     145.437 170.682 188.492  0.00  0.00    +0.106 C 
ATOM     13  N   UNL     1     144.154 170.103 187.997  0.00  0.00    -0.291 N 
ATOM     14  C   UNL     1     142.988 170.828 188.224  0.00  0.00    +0.236 C 
ATOM     15  O   UNL     1     143.046 171.999 188.613  0.00  0.00    -0.274 OA
ATOM     16  C   UNL     1     141.616 170.199 187.903  0.00  0.00    +0.097 C 
ATOM     17  N   UNL     1     140.610 170.930 188.674  0.00  0.00    -0.304 N 
ATOM     18  C   UNL     1     139.850 170.363 189.667  0.00  0.00    +0.217 C 
ATOM     19  O   UNL     1     139.930 169.177 189.971  0.00  0.00    -0.275 OA
ATOM     20  C   UNL     1     138.889 171.342 190.345  0.00  0.00    +0.036 C 
ATOM     21  C   UNL     1     139.559 172.070 191.527  0.00  0.00    -0.021 C 
ATOM     22  C   UNL     1     140.710 172.982 191.142  0.00  0.00    -0.076 C 
ATOM     23  C   UNL     1     140.504 174.089 190.398  0.00  0.00    -0.082 C 
ATOM     24  H   UNL     1     142.481 174.447 189.645  0.00  0.00    +0.034 HD
ATOM     25  H   UNL     1     140.403 176.472 188.751  0.00  0.00    +0.031 HD
ATOM     26  H   UNL     1     140.527 174.906 187.945  0.00  0.00    +0.031 HD
ATOM     27  H   UNL     1     143.064 176.557 188.283  0.00  0.00    +0.073 HD
ATOM     28  H   UNL     1     143.401 173.357 185.352  0.00  0.00    +0.040 HD
ATOM     29  H   UNL     1     144.288 174.564 184.420  0.00  0.00    +0.040 HD
ATOM     30  H   UNL     1     146.281 173.940 186.137  0.00  0.00    +0.055 HD
ATOM     31  H   UNL     1     144.762 171.360 186.166  0.00  0.00    +0.149 HD
ATOM     32  H   UNL     1     146.232 170.008 188.141  0.00  0.00    +0.060 HD
ATOM     33  H   UNL     1     141.605 169.151 188.210  0.00  0.00    +0.059 HD
ATOM     34  H   UNL     1     140.667 171.944 188.632  0.00  0.00    +0.149 HD
ATOM     35  H   UNL     1     138.556 172.070 189.595  0.00  0.00    +0.039 HD
ATOM     36  H   UNL     1     139.909 171.329 192.257  0.00  0.00    +0.032 HD
ATOM     37  H   UNL     1     138.810 172.675 192.056  0.00  0.00    +0.032 HD
ATOM     38  H   UNL     1     139.478 174.343 190.128  0.00  0.00    +0.057 HD
ENDROOT
BRANCH   8  39
ATOM     39  C   UNL     1     146.183 172.746 184.364  0.00  0.00    -0.026 A 
ATOM     40  C   UNL     1     146.537 173.598 183.302  0.00  0.00    -0.053 A 
ATOM     41  C   UNL     1     147.083 173.079 182.127  0.00  0.00    -0.020 A 
ATOM     42  C   UNL     1     147.270 171.709 182.000  0.00  0.00    +0.117 A 
ATOM     43  C   UNL     1     146.916 170.844 183.029  0.00  0.00    -0.020 A 
ATOM     44  C   UNL     1     146.370 171.363 184.205  0.00  0.00    -0.053 A 
ATOM     45  H   UNL     1     146.392 174.673 183.378  0.00  0.00    +0.062 HD
ATOM     46  H   UNL     1     147.361 173.741 181.312  0.00  0.00    +0.065 HD
ATOM     47  H   UNL     1     147.053 169.771 182.937  0.00  0.00    +0.065 HD
ATOM     48  H   UNL     1     146.084 170.678 185.003  0.00  0.00    +0.062 HD
BRANCH  42  49
ATOM     49  O   UNL     1     147.806 171.247 180.835  0.00  0.00    -0.507 OA
ATOM     50  H   UNL     1     148.761 171.121 180.963  0.00  0.00    +0.292 HD
ENDBRANCH  42  49
ENDBRANCH   8  39
BRANCH   1  51
ATOM     51  C   UNL     1     141.889 176.105 190.886  0.00  0.00    -0.059 C 
ATOM     52  H   UNL     1     141.670 177.103 190.489  0.00  0.00    +0.024 HD
ATOM     53  H   UNL     1     142.946 176.086 191.173  0.00  0.00    +0.024 HD
ATOM     54  H   UNL     1     141.292 175.977 191.793  0.00  0.00    +0.024 HD
ENDBRANCH   1  51
BRANCH  22  55
ATOM     55  C   UNL     1     142.054 172.550 191.669  0.00  0.00    -0.044 C 
ATOM     56  H   UNL     1     142.006 171.692 192.343  0.00  0.00    +0.027 HD
ATOM     57  H   UNL     1     142.706 172.270 190.835  0.00  0.00    +0.027 HD
ATOM     58  H   UNL     1     142.525 173.372 192.210  0.00  0.00    +0.027 HD
ENDBRANCH  22  55
BRANCH  20  59
ATOM     59  C   UNL     1     137.650 170.589 190.834  0.00  0.00    -0.054 C 
ATOM     60  H   UNL     1     137.452 170.785 191.894  0.00  0.00    +0.024 HD
ATOM     61  H   UNL     1     137.782 169.507 190.717  0.00  0.00    +0.024 HD
ATOM     62  H   UNL     1     136.765 170.884 190.262  0.00  0.00    +0.024 HD
ENDBRANCH  20  59
BRANCH  16  63
ATOM     63  C   UNL     1     141.316 170.340 186.416  0.00  0.00    -0.038 C 
ATOM     64  H   UNL     1     140.304 170.717 186.237  0.00  0.00    +0.025 HD
ATOM     65  H   UNL     1     142.024 171.026 185.941  0.00  0.00    +0.025 HD
ATOM     66  H   UNL     1     141.396 169.374 185.903  0.00  0.00    +0.025 HD
ENDBRANCH  16  63
BRANCH  13  67
ATOM     67  C   UNL     1     144.211 168.737 187.491  0.00  0.00    +0.004 C 
ATOM     68  H   UNL     1     143.977 167.993 188.250  0.00  0.00    +0.043 HD
ATOM     69  H   UNL     1     143.485 168.639 186.678  0.00  0.00    +0.043 HD
ATOM     70  H   UNL     1     145.212 168.537 187.104  0.00  0.00    +0.043 HD
ENDBRANCH  13  67
BRANCH   3  71
ATOM     71  C   UNL     1     141.770 177.240 186.694  0.00  0.00    -0.028 C 
ATOM     72  H   UNL     1     140.706 177.448 186.848  0.00  0.00    +0.027 HD
ATOM     73  H   UNL     1     141.913 176.938 185.652  0.00  0.00    +0.027 HD
ATOM     74  H   UNL     1     142.302 178.183 186.864  0.00  0.00    +0.027 HD
ENDBRANCH   3  71
BRANCH  12  75
ATOM     75  C   UNL     1     145.525 170.780 190.031  0.00  0.00    +0.003 C 
ATOM     76  H   UNL     1     144.859 170.054 190.510  0.00  0.00    +0.034 HD
ATOM     77  H   UNL     1     145.171 171.758 190.375  0.00  0.00    +0.034 HD
BRANCH  75  78
ATOM     78  C   UNL     1     146.925 170.581 190.549  0.00  0.00    -0.006 A 
ATOM     79  C   UNL     1     147.800 169.566 190.220  0.00  0.00    +0.087 A 
ATOM     80  N   UNL     1     148.971 169.746 190.895  0.00  0.00    -0.349 N 
ATOM     81  C   UNL     1     148.885 170.856 191.699  0.00  0.00    +0.048 A 
ATOM     82  C   UNL     1     149.825 171.407 192.579  0.00  0.00    -0.038 A 
ATOM     83  C   UNL     1     149.458 172.556 193.285  0.00  0.00    -0.060 A 
ATOM     84  C   UNL     1     148.204 173.132 193.111  0.00  0.00    -0.061 A 
ATOM     85  C   UNL     1     147.281 172.571 192.221  0.00  0.00    -0.052 A 
ATOM     86  C   UNL     1     147.618 171.408 191.498  0.00  0.00    +0.004 A 
ATOM     87 BR   UNL     1     147.488 168.116 189.030  0.00  0.00    -0.031 Br
ATOM     88  H   UNL     1     149.778 169.144 190.821  0.00  0.00    +0.166 HD
ATOM     89  H   UNL     1     150.805 170.962 192.716  0.00  0.00    +0.064 HD
ATOM     90  H   UNL     1     150.164 173.009 193.979  0.00  0.00    +0.062 HD
ATOM     91  H   UNL     1     147.928 174.024 193.671  0.00  0.00    +0.062 HD
ATOM     92  H   UNL     1     146.309 173.037 192.105  0.00  0.00    +0.062 HD
ENDBRANCH  75  78
ENDBRANCH  12  75
TORSDOF 10
ENDMDL
MODEL 3
REMARK VINA RESULT:      -6.9      3.476      6.550
REMARK  Name = Jasplakinolide_conf3
REMARK  10 active torsions:
REMARK  status: ('A' for Active; 'I' for Inactive)
REMARK    1  A    between atoms: C_1  and  C_2
REMARK    2  A    between atoms: C_4  and  C_47
REMARK    3  A    between atoms: C_9  and  C_40
REMARK    4  A    between atoms: C_13  and  C_29
REMARK    5  A    between atoms: N_14  and  C_28
REMARK    6  A    between atoms: C_17  and  C_27
REMARK    7  A    between atoms: C_21  and  C_26
REMARK    8  A    between atoms: C_23  and  C_25
REMARK    9  A    between atoms: C_29  and  C_30
REMARK   10  A    between atoms: C_43  and  O_46
REMARK                            x       y       z     vdW  Elec       q    Type
REMARK                         _______ _______ _______ _____ _____    ______ ____
ROOT
ATOM      1  C   UNL     1     145.877 169.427 186.304  0.00  0.00    -0.022 C 
ATOM      2  C   UNL     1     144.784 168.796 185.410  0.00  0.00    -0.010 C 
ATOM      3  C   UNL     1     145.054 167.313 185.103  0.00  0.00    +0.101 C 
ATOM      4  O   UNL     1     144.499 166.537 186.190  0.00  0.00    -0.462 OA
ATOM      5  C   UNL     1     145.026 165.295 186.384  0.00  0.00    +0.309 C 
ATOM      6  O   UNL     1     145.985 164.832 185.784  0.00  0.00    -0.251 OA
ATOM      7  C   UNL     1     144.165 164.515 187.344  0.00  0.00    +0.067 C 
ATOM      8  C   UNL     1     144.993 163.835 188.439  0.00  0.00    +0.058 C 
ATOM      9  N   UNL     1     145.153 164.714 189.587  0.00  0.00    -0.306 N 
ATOM     10  C   UNL     1     146.356 165.272 189.967  0.00  0.00    +0.234 C 
ATOM     11  O   UNL     1     147.418 164.982 189.424  0.00  0.00    -0.274 OA
ATOM     12  C   UNL     1     146.262 166.124 191.260  0.00  0.00    +0.106 C 
ATOM     13  N   UNL     1     144.924 166.764 191.431  0.00  0.00    -0.291 N 
ATOM     14  C   UNL     1     144.523 167.689 190.473  0.00  0.00    +0.236 C 
ATOM     15  O   UNL     1     145.149 167.803 189.413  0.00  0.00    -0.274 OA
ATOM     16  C   UNL     1     143.240 168.517 190.692  0.00  0.00    +0.097 C 
ATOM     17  N   UNL     1     143.333 169.701 189.837  0.00  0.00    -0.304 N 
ATOM     18  C   UNL     1     143.401 170.985 190.318  0.00  0.00    +0.217 C 
ATOM     19  O   UNL     1     143.357 171.250 191.516  0.00  0.00    -0.275 OA
ATOM     20  C   UNL     1     143.523 172.049 189.226  0.00  0.00    +0.036 C 
ATOM     21  C   UNL     1     144.994 172.309 188.846  0.00  0.00    -0.021 C 
ATOM     22  C   UNL     1     145.705 171.129 188.210  0.00  0.00    -0.076 C 
ATOM     23  C   UNL     1     145.332 170.660 187.001  0.00  0.00    -0.082 C 
ATOM     24  H   UNL     1     146.168 168.684 187.055  0.00  0.00    +0.034 HD
ATOM     25  H   UNL     1     144.719 169.371 184.477  0.00  0.00    +0.031 HD
ATOM     26  H   UNL     1     143.809 168.879 185.908  0.00  0.00    +0.031 HD
ATOM     27  H   UNL     1     146.128 167.126 185.001  0.00  0.00    +0.073 HD
ATOM     28  H   UNL     1     143.405 165.175 187.781  0.00  0.00    +0.040 HD
ATOM     29  H   UNL     1     143.632 163.781 186.725  0.00  0.00    +0.040 HD
ATOM     30  H   UNL     1     145.985 163.586 188.043  0.00  0.00    +0.055 HD
ATOM     31  H   UNL     1     144.341 164.947 190.142  0.00  0.00    +0.149 HD
ATOM     32  H   UNL     1     146.347 165.375 192.060  0.00  0.00    +0.060 HD
ATOM     33  H   UNL     1     143.175 168.836 191.735  0.00  0.00    +0.059 HD
ATOM     34  H   UNL     1     143.608 169.534 188.873  0.00  0.00    +0.149 HD
ATOM     35  H   UNL     1     142.963 171.704 188.347  0.00  0.00    +0.039 HD
ATOM     36  H   UNL     1     145.547 172.630 189.739  0.00  0.00    +0.032 HD
ATOM     37  H   UNL     1     145.048 173.154 188.146  0.00  0.00    +0.032 HD
ATOM     38  H   UNL     1     144.543 171.188 186.465  0.00  0.00    +0.057 HD
ENDROOT
BRANCH   8  39
ATOM     39  C   UNL     1     144.338 162.552 188.936  0.00  0.00    -0.026 A 
ATOM     40  C   UNL     1     145.037 161.333 189.000  0.00  0.00    -0.053 A 
ATOM     41  C   UNL     1     144.399 160.170 189.436  0.00  0.00    -0.020 A 
ATOM     42  C   UNL     1     143.060 160.214 189.801  0.00  0.00    +0.117 A 
ATOM     43  C   UNL     1     142.343 161.403 189.735  0.00  0.00    -0.020 A 
ATOM     44  C   UNL     1     142.981 162.567 189.299  0.00  0.00    -0.053 A 
ATOM     45  H   UNL     1     146.084 161.275 188.711  0.00  0.00    +0.062 HD
ATOM     46  H   UNL     1     144.945 159.233 189.490  0.00  0.00    +0.065 HD
ATOM     47  H   UNL     1     141.294 161.446 190.012  0.00  0.00    +0.065 HD
ATOM     48  H   UNL     1     142.409 163.493 189.238  0.00  0.00    +0.062 HD
BRANCH  42  49
ATOM     49  O   UNL     1     142.479 159.055 190.221  0.00  0.00    -0.507 OA
ATOM     50  H   UNL     1     143.143 158.347 190.189  0.00  0.00    +0.292 HD
ENDBRANCH  42  49
ENDBRANCH   8  39
BRANCH   1  51
ATOM     51  C   UNL     1     147.110 169.804 185.475  0.00  0.00    -0.059 C 
ATOM     52  H   UNL     1     147.222 170.892 185.408  0.00  0.00    +0.024 HD
ATOM     53  H   UNL     1     147.040 169.413 184.454  0.00  0.00    +0.024 HD
ATOM     54  H   UNL     1     148.026 169.409 185.924  0.00  0.00    +0.024 HD
ENDBRANCH   1  51
BRANCH  22  55
ATOM     55  C   UNL     1     146.837 170.564 189.028  0.00  0.00    -0.044 C 
ATOM     56  H   UNL     1     147.802 170.585 188.517  0.00  0.00    +0.027 HD
ATOM     57  H   UNL     1     146.949 171.139 189.953  0.00  0.00    +0.027 HD
ATOM     58  H   UNL     1     146.625 169.527 189.295  0.00  0.00    +0.027 HD
ENDBRANCH  22  55
BRANCH  20  59
ATOM     59  C   UNL     1     142.872 173.350 189.702  0.00  0.00    -0.054 C 
ATOM     60  H   UNL     1     142.675 174.030 188.865  0.00  0.00    +0.024 HD
ATOM     61  H   UNL     1     143.524 173.875 190.409  0.00  0.00    +0.024 HD
ATOM     62  H   UNL     1     141.922 173.147 190.206  0.00  0.00    +0.024 HD
ENDBRANCH  20  59
BRANCH  16  63
ATOM     63  C   UNL     1     142.019 167.698 190.291  0.00  0.00    -0.038 C 
ATOM     64  H   UNL     1     141.190 168.333 189.965  0.00  0.00    +0.025 HD
ATOM     65  H   UNL     1     142.265 167.012 189.473  0.00  0.00    +0.025 HD
ATOM     66  H   UNL     1     141.655 167.095 191.131  0.00  0.00    +0.025 HD
ENDBRANCH  16  63
BRANCH  13  67
ATOM     67  C   UNL     1     144.238 166.506 192.692  0.00  0.00    +0.004 C 
ATOM     68  H   UNL     1     144.384 165.490 193.054  0.00  0.00    +0.043 HD
ATOM     69  H   UNL     1     144.626 167.199 193.444  0.00  0.00    +0.043 HD
ATOM     70  H   UNL     1     143.167 166.679 192.562  0.00  0.00    +0.043 HD
ENDBRANCH  13  67
BRANCH   3  71
ATOM     71  C   UNL     1     144.336 166.900 183.819  0.00  0.00    -0.028 C 
ATOM     72  H   UNL     1     143.365 166.446 184.042  0.00  0.00    +0.027 HD
ATOM     73  H   UNL     1     144.928 166.179 183.248  0.00  0.00    +0.027 HD
ATOM     74  H   UNL     1     144.136 167.772 183.186  0.00  0.00    +0.027 HD
ENDBRANCH   3  71
BRANCH  12  75
ATOM     75  C   UNL     1     147.444 167.109 191.386  0.00  0.00    +0.003 C 
ATOM     76  H   UNL     1     147.106 168.087 191.743  0.00  0.00    +0.034 HD
ATOM     77  H   UNL     1     147.887 167.305 190.402  0.00  0.00    +0.034 HD
BRANCH  75  78
ATOM     78  C   UNL     1     148.532 166.601 192.295  0.00  0.00    -0.006 A 
ATOM     79  C   UNL     1     149.812 166.229 191.938  0.00  0.00    +0.087 A 
ATOM     80  N   UNL     1     150.493 165.835 193.051  0.00  0.00    -0.349 N 
ATOM     81  C   UNL     1     149.676 165.908 194.153  0.00  0.00    +0.048 A 
ATOM     82  C   UNL     1     149.936 165.585 195.491  0.00  0.00    -0.038 A 
ATOM     83  C   UNL     1     148.899 165.755 196.412  0.00  0.00    -0.060 A 
ATOM     84  C   UNL     1     147.657 166.235 196.010  0.00  0.00    -0.061 A 
ATOM     85  C   UNL     1     147.419 166.560 194.671  0.00  0.00    -0.052 A 
ATOM     86  C   UNL     1     148.442 166.394 193.714  0.00  0.00    +0.004 A 
ATOM     87 BR   UNL     1     150.570 166.237 190.193  0.00  0.00    -0.031 Br
ATOM     88  H   UNL     1     151.453 165.525 193.060  0.00  0.00    +0.166 HD
ATOM     89  H   UNL     1     150.904 165.212 195.809  0.00  0.00    +0.064 HD
ATOM     90  H   UNL     1     149.065 165.511 197.460  0.00  0.00    +0.062 HD
ATOM     91  H   UNL     1     146.856 166.358 196.738  0.00  0.00    +0.062 HD
ATOM     92  H   UNL     1     146.442 166.930 194.382  0.00  0.00    +0.062 HD
ENDBRANCH  75  78
ENDBRANCH  12  75
TORSDOF 10
ENDMDL
MODEL 4
REMARK VINA RESULT:      -6.8      6.203     10.551
REMARK  Name = Jasplakinolide_conf3
REMARK  10 active torsions:
REMARK  status: ('A' for Active; 'I' for Inactive)
REMARK    1  A    between atoms: C_1  and  C_2
REMARK    2  A    between atoms: C_4  and  C_47
REMARK    3  A    between atoms: C_9  and  C_40
REMARK    4  A    between atoms: C_13  and  C_29
REMARK    5  A    between atoms: N_14  and  C_28
REMARK    6  A    between atoms: C_17  and  C_27
REMARK    7  A    between atoms: C_21  and  C_26
REMARK    8  A    between atoms: C_23  and  C_25
REMARK    9  A    between atoms: C_29  and  C_30
REMARK   10  A    between atoms: C_43  and  O_46
REMARK                            x       y       z     vdW  Elec       q    Type
REMARK                         _______ _______ _______ _____ _____    ______ ____
ROOT
ATOM      1  C   UNL     1     158.635 166.130 184.917  0.00  0.00    -0.022 C 
ATOM      2  C   UNL     1     159.449 164.898 184.457  0.00  0.00    -0.010 C 
ATOM      3  C   UNL     1     160.228 164.239 185.609  0.00  0.00    +0.101 C 
ATOM      4  O   UNL     1     159.335 163.307 186.259  0.00  0.00    -0.462 OA
ATOM      5  C   UNL     1     159.623 162.986 187.553  0.00  0.00    +0.309 C 
ATOM      6  O   UNL     1     160.506 163.495 188.227  0.00  0.00    -0.251 OA
ATOM      7  C   UNL     1     158.791 161.808 187.989  0.00  0.00    +0.067 C 
ATOM      8  C   UNL     1     158.128 162.042 189.350  0.00  0.00    +0.058 C 
ATOM      9  N   UNL     1     156.824 162.667 189.188  0.00  0.00    -0.306 N 
ATOM     10  C   UNL     1     156.533 163.956 189.583  0.00  0.00    +0.234 C 
ATOM     11  O   UNL     1     157.332 164.650 190.207  0.00  0.00    -0.274 OA
ATOM     12  C   UNL     1     155.053 164.357 189.349  0.00  0.00    +0.106 C 
ATOM     13  N   UNL     1     154.447 163.659 188.178  0.00  0.00    -0.291 N 
ATOM     14  C   UNL     1     154.991 163.910 186.923  0.00  0.00    +0.236 C 
ATOM     15  O   UNL     1     156.069 164.505 186.816  0.00  0.00    -0.274 OA
ATOM     16  C   UNL     1     154.294 163.366 185.659  0.00  0.00    +0.097 C 
ATOM     17  N   UNL     1     154.760 164.165 184.526  0.00  0.00    -0.304 N 
ATOM     18  C   UNL     1     153.942 164.973 183.774  0.00  0.00    +0.217 C 
ATOM     19  O   UNL     1     152.735 165.066 183.973  0.00  0.00    -0.275 OA
ATOM     20  C   UNL     1     154.671 165.730 182.663  0.00  0.00    +0.036 C 
ATOM     21  C   UNL     1     155.232 167.075 183.163  0.00  0.00    -0.021 C 
ATOM     22  C   UNL     1     156.314 166.959 184.221  0.00  0.00    -0.076 C 
ATOM     23  C   UNL     1     157.513 166.409 183.935  0.00  0.00    -0.082 C 
ATOM     24  H   UNL     1     158.209 165.904 185.901  0.00  0.00    +0.034 HD
ATOM     25  H   UNL     1     160.138 165.209 183.662  0.00  0.00    +0.031 HD
ATOM     26  H   UNL     1     158.771 164.152 184.021  0.00  0.00    +0.031 HD
ATOM     27  H   UNL     1     160.585 164.994 186.318  0.00  0.00    +0.073 HD
ATOM     28  H   UNL     1     158.040 161.580 187.221  0.00  0.00    +0.040 HD
ATOM     29  H   UNL     1     159.486 160.958 188.018  0.00  0.00    +0.040 HD
ATOM     30  H   UNL     1     158.763 162.700 189.955  0.00  0.00    +0.055 HD
ATOM     31  H   UNL     1     156.079 162.140 188.752  0.00  0.00    +0.149 HD
ATOM     32  H   UNL     1     154.544 163.961 190.239  0.00  0.00    +0.060 HD
ATOM     33  H   UNL     1     153.212 163.479 185.752  0.00  0.00    +0.059 HD
ATOM     34  H   UNL     1     155.764 164.310 184.465  0.00  0.00    +0.149 HD
ATOM     35  H   UNL     1     155.488 165.095 182.295  0.00  0.00    +0.039 HD
ATOM     36  H   UNL     1     154.408 167.689 183.550  0.00  0.00    +0.032 HD
ATOM     37  H   UNL     1     155.647 167.637 182.316  0.00  0.00    +0.032 HD
ATOM     38  H   UNL     1     157.706 166.102 182.907  0.00  0.00    +0.057 HD
ENDROOT
BRANCH   8  39
ATOM     39  C   UNL     1     157.918 160.741 190.114  0.00  0.00    -0.026 A 
ATOM     40  C   UNL     1     156.874 159.853 189.802  0.00  0.00    -0.053 A 
ATOM     41  C   UNL     1     156.692 158.682 190.540  0.00  0.00    -0.020 A 
ATOM     42  C   UNL     1     157.545 158.394 191.598  0.00  0.00    +0.117 A 
ATOM     43  C   UNL     1     158.578 159.262 191.935  0.00  0.00    -0.020 A 
ATOM     44  C   UNL     1     158.759 160.435 191.197  0.00  0.00    -0.053 A 
ATOM     45  H   UNL     1     156.189 160.063 188.984  0.00  0.00    +0.062 HD
ATOM     46  H   UNL     1     155.888 157.995 190.292  0.00  0.00    +0.065 HD
ATOM     47  H   UNL     1     159.246 159.050 192.764  0.00  0.00    +0.065 HD
ATOM     48  H   UNL     1     159.563 161.116 191.475  0.00  0.00    +0.062 HD
BRANCH  42  49
ATOM     49  O   UNL     1     157.332 157.240 192.290  0.00  0.00    -0.507 OA
ATOM     50  H   UNL     1     157.917 157.232 193.066  0.00  0.00    +0.292 HD
ENDBRANCH  42  49
ENDBRANCH   8  39
BRANCH   1  51
ATOM     51  C   UNL     1     159.536 167.364 185.038  0.00  0.00    -0.059 C 
ATOM     52  H   UNL     1     159.428 168.018 184.165  0.00  0.00    +0.024 HD
ATOM     53  H   UNL     1     160.592 167.083 185.115  0.00  0.00    +0.024 HD
ATOM     54  H   UNL     1     159.281 167.957 185.922  0.00  0.00    +0.024 HD
ENDBRANCH   1  51
BRANCH  22  55
ATOM     55  C   UNL     1     155.934 167.513 185.569  0.00  0.00    -0.044 C 
ATOM     56  H   UNL     1     156.416 168.465 185.806  0.00  0.00    +0.027 HD
ATOM     57  H   UNL     1     154.853 167.681 185.610  0.00  0.00    +0.027 HD
ATOM     58  H   UNL     1     156.199 166.803 186.354  0.00  0.00    +0.027 HD
ENDBRANCH  22  55
BRANCH  20  59
ATOM     59  C   UNL     1     153.715 165.969 181.492  0.00  0.00    -0.054 C 
ATOM     60  H   UNL     1     153.636 165.084 180.850  0.00  0.00    +0.024 HD
ATOM     61  H   UNL     1     154.066 166.800 180.868  0.00  0.00    +0.024 HD
ATOM     62  H   UNL     1     152.712 166.219 181.854  0.00  0.00    +0.024 HD
ENDBRANCH  20  59
BRANCH  16  63
ATOM     63  C   UNL     1     154.678 161.907 185.441  0.00  0.00    -0.038 C 
ATOM     64  H   UNL     1     155.234 161.500 186.291  0.00  0.00    +0.025 HD
ATOM     65  H   UNL     1     153.785 161.291 185.291  0.00  0.00    +0.025 HD
ATOM     66  H   UNL     1     155.312 161.794 184.554  0.00  0.00    +0.025 HD
ENDBRANCH  16  63
BRANCH  13  67
ATOM     67  C   UNL     1     153.212 162.924 188.429  0.00  0.00    +0.004 C 
ATOM     68  H   UNL     1     152.462 163.078 187.656  0.00  0.00    +0.043 HD
ATOM     69  H   UNL     1     153.449 161.857 188.471  0.00  0.00    +0.043 HD
ATOM     70  H   UNL     1     152.794 163.237 189.388  0.00  0.00    +0.043 HD
ENDBRANCH  13  67
BRANCH   3  71
ATOM     71  C   UNL     1     161.414 163.447 185.060  0.00  0.00    -0.028 C 
ATOM     72  H   UNL     1     162.201 163.349 185.814  0.00  0.00    +0.027 HD
ATOM     73  H   UNL     1     161.842 163.935 184.179  0.00  0.00    +0.027 HD
ATOM     74  H   UNL     1     161.112 162.430 184.787  0.00  0.00    +0.027 HD
ENDBRANCH   3  71
BRANCH  12  75
ATOM     75  C   UNL     1     154.871 165.890 189.325  0.00  0.00    +0.003 C 
ATOM     76  H   UNL     1     155.072 166.294 188.327  0.00  0.00    +0.034 HD
ATOM     77  H   UNL     1     155.605 166.375 189.979  0.00  0.00    +0.034 HD
BRANCH  75  78
ATOM     78  C   UNL     1     153.496 166.321 189.764  0.00  0.00    -0.006 A 
ATOM     79  C   UNL     1     152.461 166.752 188.960  0.00  0.00    +0.087 A 
ATOM     80  N   UNL     1     151.380 167.042 189.737  0.00  0.00    -0.349 N 
ATOM     81  C   UNL     1     151.683 166.839 191.061  0.00  0.00    +0.048 A 
ATOM     82  C   UNL     1     150.897 167.026 192.206  0.00  0.00    -0.038 A 
ATOM     83  C   UNL     1     151.477 166.741 193.445  0.00  0.00    -0.060 A 
ATOM     84  C   UNL     1     152.787 166.282 193.532  0.00  0.00    -0.061 A 
ATOM     85  C   UNL     1     153.554 166.093 192.377  0.00  0.00    -0.052 A 
ATOM     86  C   UNL     1     153.000 166.377 191.111  0.00  0.00    +0.004 A 
ATOM     87 BR   UNL     1     152.473 166.941 187.067  0.00  0.00    -0.031 Br
ATOM     88  H   UNL     1     150.490 167.368 189.389  0.00  0.00    +0.166 HD
ATOM     89  H   UNL     1     149.875 167.383 192.142  0.00  0.00    +0.064 HD
ATOM     90  H   UNL     1     150.896 166.878 194.355  0.00  0.00    +0.062 HD
ATOM     91  H   UNL     1     153.229 166.068 194.504  0.00  0.00    +0.062 HD
ATOM     92  H   UNL     1     154.573 165.736 192.472  0.00  0.00    +0.062 HD
ENDBRANCH  75  78
ENDBRANCH  12  75
TORSDOF 10
ENDMDL
MODEL 5
REMARK VINA RESULT:      -6.5      9.898     13.893
REMARK  Name = Jasplakinolide_conf3
REMARK  10 active torsions:
REMARK  status: ('A' for Active; 'I' for Inactive)
REMARK    1  A    between atoms: C_1  and  C_2
REMARK    2  A    between atoms: C_4  and  C_47
REMARK    3  A    between atoms: C_9  and  C_40
REMARK    4  A    between atoms: C_13  and  C_29
REMARK    5  A    between atoms: N_14  and  C_28
REMARK    6  A    between atoms: C_17  and  C_27
REMARK    7  A    between atoms: C_21  and  C_26
REMARK    8  A    between atoms: C_23  and  C_25
REMARK    9  A    between atoms: C_29  and  C_30
REMARK   10  A    between atoms: C_43  and  O_46
REMARK                            x       y       z     vdW  Elec       q    Type
REMARK                         _______ _______ _______ _____ _____    ______ ____
ROOT
ATOM      1  C   UNL     1     159.821 170.908 178.310  0.00  0.00    -0.022 C 
ATOM      2  C   UNL     1     159.368 172.204 177.596  0.00  0.00    -0.010 C 
ATOM      3  C   UNL     1     157.894 172.155 177.157  0.00  0.00    +0.101 C 
ATOM      4  O   UNL     1     157.093 172.588 178.279  0.00  0.00    -0.462 OA
ATOM      5  C   UNL     1     155.794 172.174 178.299  0.00  0.00    +0.309 C 
ATOM      6  O   UNL     1     155.290 171.392 177.507  0.00  0.00    -0.251 OA
ATOM      7  C   UNL     1     155.028 172.929 179.353  0.00  0.00    +0.067 C 
ATOM      8  C   UNL     1     154.188 171.999 180.234  0.00  0.00    +0.058 C 
ATOM      9  N   UNL     1     154.956 171.544 181.383  0.00  0.00    -0.306 N 
ATOM     10  C   UNL     1     155.365 170.240 181.568  0.00  0.00    +0.234 C 
ATOM     11  O   UNL     1     155.018 169.328 180.822  0.00  0.00    -0.274 OA
ATOM     12  C   UNL     1     156.119 170.010 182.905  0.00  0.00    +0.106 C 
ATOM     13  N   UNL     1     156.868 171.219 183.356  0.00  0.00    -0.291 N 
ATOM     14  C   UNL     1     157.900 171.681 182.545  0.00  0.00    +0.236 C 
ATOM     15  O   UNL     1     158.036 171.245 181.397  0.00  0.00    -0.274 OA
ATOM     16  C   UNL     1     158.826 172.808 183.046  0.00  0.00    +0.097 C 
ATOM     17  N   UNL     1     160.059 172.740 182.261  0.00  0.00    -0.304 N 
ATOM     18  C   UNL     1     161.289 172.450 182.797  0.00  0.00    +0.217 C 
ATOM     19  O   UNL     1     161.463 172.252 183.996  0.00  0.00    -0.275 OA
ATOM     20  C   UNL     1     162.419 172.409 181.766  0.00  0.00    +0.036 C 
ATOM     21  C   UNL     1     162.566 171.010 181.138  0.00  0.00    -0.021 C 
ATOM     22  C   UNL     1     161.377 170.555 180.312  0.00  0.00    -0.076 C 
ATOM     23  C   UNL     1     161.041 171.185 179.167  0.00  0.00    -0.082 C 
ATOM     24  H   UNL     1     158.997 170.571 178.949  0.00  0.00    +0.034 HD
ATOM     25  H   UNL     1     160.018 172.371 176.728  0.00  0.00    +0.031 HD
ATOM     26  H   UNL     1     159.505 173.061 178.270  0.00  0.00    +0.031 HD
ATOM     27  H   UNL     1     157.614 171.142 176.848  0.00  0.00    +0.073 HD
ATOM     28  H   UNL     1     155.722 173.524 179.961  0.00  0.00    +0.040 HD
ATOM     29  H   UNL     1     154.399 173.640 178.801  0.00  0.00    +0.040 HD
ATOM     30  H   UNL     1     153.878 171.126 179.648  0.00  0.00    +0.055 HD
ATOM     31  H   UNL     1     155.221 172.215 182.092  0.00  0.00    +0.149 HD
ATOM     32  H   UNL     1     155.305 169.866 183.629  0.00  0.00    +0.060 HD
ATOM     33  H   UNL     1     159.068 172.652 184.100  0.00  0.00    +0.059 HD
ATOM     34  H   UNL     1     159.942 172.661 181.255  0.00  0.00    +0.149 HD
ATOM     35  H   UNL     1     162.199 173.150 180.987  0.00  0.00    +0.039 HD
ATOM     36  H   UNL     1     162.762 170.276 181.931  0.00  0.00    +0.032 HD
ATOM     37  H   UNL     1     163.454 170.990 180.491  0.00  0.00    +0.032 HD
ATOM     38  H   UNL     1     161.683 171.995 178.818  0.00  0.00    +0.057 HD
ENDROOT
BRANCH   8  39
ATOM     39  C   UNL     1     152.939 172.690 180.767  0.00  0.00    -0.026 A 
ATOM     40  C   UNL     1     151.688 172.556 180.140  0.00  0.00    -0.053 A 
ATOM     41  C   UNL     1     150.568 173.224 180.638  0.00  0.00    -0.020 A 
ATOM     42  C   UNL     1     150.691 174.036 181.758  0.00  0.00    +0.117 A 
ATOM     43  C   UNL     1     151.920 174.196 182.389  0.00  0.00    -0.020 A 
ATOM     44  C   UNL     1     153.041 173.528 181.890  0.00  0.00    -0.053 A 
ATOM     45  H   UNL     1     151.570 171.932 179.257  0.00  0.00    +0.062 HD
ATOM     46  H   UNL     1     149.601 173.113 180.155  0.00  0.00    +0.065 HD
ATOM     47  H   UNL     1     152.029 174.834 183.261  0.00  0.00    +0.065 HD
ATOM     48  H   UNL     1     154.003 173.667 182.383  0.00  0.00    +0.062 HD
BRANCH  42  49
ATOM     49  O   UNL     1     149.572 174.669 182.210  0.00  0.00    -0.507 OA
ATOM     50  H   UNL     1     149.120 175.077 181.453  0.00  0.00    +0.292 HD
ENDBRANCH  42  49
ENDBRANCH   8  39
BRANCH   1  51
ATOM     51  C   UNL     1     160.141 169.809 177.292  0.00  0.00    -0.059 C 
ATOM     52  H   UNL     1     160.361 170.236 176.306  0.00  0.00    +0.024 HD
ATOM     53  H   UNL     1     159.301 169.115 177.173  0.00  0.00    +0.024 HD
ATOM     54  H   UNL     1     161.016 169.227 177.597  0.00  0.00    +0.024 HD
ENDBRANCH   1  51
BRANCH  22  55
ATOM     55  C   UNL     1     160.644 169.364 180.873  0.00  0.00    -0.044 C 
ATOM     56  H   UNL     1     159.798 169.628 181.511  0.00  0.00    +0.027 HD
ATOM     57  H   UNL     1     160.252 168.750 180.055  0.00  0.00    +0.027 HD
ATOM     58  H   UNL     1     161.326 168.750 181.464  0.00  0.00    +0.027 HD
ENDBRANCH  22  55
BRANCH  20  59
ATOM     59  C   UNL     1     163.735 172.821 182.430  0.00  0.00    -0.054 C 
ATOM     60  H   UNL     1     164.170 173.704 181.947  0.00  0.00    +0.024 HD
ATOM     61  H   UNL     1     164.471 172.012 182.367  0.00  0.00    +0.024 HD
ATOM     62  H   UNL     1     163.580 173.054 183.489  0.00  0.00    +0.024 HD
ENDBRANCH  20  59
BRANCH  16  63
ATOM     63  C   UNL     1     158.161 174.162 182.829  0.00  0.00    -0.038 C 
ATOM     64  H   UNL     1     158.255 174.809 183.707  0.00  0.00    +0.025 HD
ATOM     65  H   UNL     1     158.609 174.680 181.974  0.00  0.00    +0.025 HD
ATOM     66  H   UNL     1     157.091 174.048 182.624  0.00  0.00    +0.025 HD
ENDBRANCH  16  63
BRANCH  13  67
ATOM     67  C   UNL     1     156.579 171.695 184.704  0.00  0.00    +0.004 C 
ATOM     68  H   UNL     1     156.914 171.007 185.478  0.00  0.00    +0.043 HD
ATOM     69  H   UNL     1     157.089 172.651 184.850  0.00  0.00    +0.043 HD
ATOM     70  H   UNL     1     155.502 171.842 184.812  0.00  0.00    +0.043 HD
ENDBRANCH  13  67
BRANCH   3  71
ATOM     71  C   UNL     1     157.654 173.130 176.005  0.00  0.00    -0.028 C 
ATOM     72  H   UNL     1     158.501 173.812 175.887  0.00  0.00    +0.027 HD
ATOM     73  H   UNL     1     156.753 173.727 176.173  0.00  0.00    +0.027 HD
ATOM     74  H   UNL     1     157.549 172.593 175.055  0.00  0.00    +0.027 HD
ENDBRANCH   3  71
BRANCH  12  75
ATOM     75  C   UNL     1     156.973 168.725 182.868  0.00  0.00    +0.003 C 
ATOM     76  H   UNL     1     158.006 168.947 182.580  0.00  0.00    +0.034 HD
ATOM     77  H   UNL     1     156.605 168.040 182.095  0.00  0.00    +0.034 HD
BRANCH  75  78
ATOM     78  C   UNL     1     156.975 167.988 184.182  0.00  0.00    -0.006 A 
ATOM     79  C   UNL     1     157.882 168.122 185.212  0.00  0.00    +0.087 A 
ATOM     80  N   UNL     1     157.532 167.287 186.231  0.00  0.00    -0.349 N 
ATOM     81  C   UNL     1     156.414 166.567 185.887  0.00  0.00    +0.048 A 
ATOM     82  C   UNL     1     155.718 165.585 186.603  0.00  0.00    -0.038 A 
ATOM     83  C   UNL     1     154.600 165.009 185.995  0.00  0.00    -0.060 A 
ATOM     84  C   UNL     1     154.194 165.404 184.725  0.00  0.00    -0.061 A 
ATOM     85  C   UNL     1     154.898 166.392 184.028  0.00  0.00    -0.052 A 
ATOM     86  C   UNL     1     156.034 166.990 184.611  0.00  0.00    +0.004 A 
ATOM     87 BR   UNL     1     159.402 169.265 185.268  0.00  0.00    -0.031 Br
ATOM     88  H   UNL     1     158.030 167.203 187.105  0.00  0.00    +0.166 HD
ATOM     89  H   UNL     1     156.031 165.276 187.595  0.00  0.00    +0.064 HD
ATOM     90  H   UNL     1     154.038 164.240 186.522  0.00  0.00    +0.062 HD
ATOM     91  H   UNL     1     153.324 164.943 184.259  0.00  0.00    +0.062 HD
ATOM     92  H   UNL     1     154.562 166.682 183.038  0.00  0.00    +0.062 HD
ENDBRANCH  75  78
ENDBRANCH  12  75
TORSDOF 10
ENDMDL
MODEL 6
REMARK VINA RESULT:      -6.4      3.317      5.800
REMARK  Name = Jasplakinolide_conf3
REMARK  10 active torsions:
REMARK  status: ('A' for Active; 'I' for Inactive)
REMARK    1  A    between atoms: C_1  and  C_2
REMARK    2  A    between atoms: C_4  and  C_47
REMARK    3  A    between atoms: C_9  and  C_40
REMARK    4  A    between atoms: C_13  and  C_29
REMARK    5  A    between atoms: N_14  and  C_28
REMARK    6  A    between atoms: C_17  and  C_27
REMARK    7  A    between atoms: C_21  and  C_26
REMARK    8  A    between atoms: C_23  and  C_25
REMARK    9  A    between atoms: C_29  and  C_30
REMARK   10  A    between atoms: C_43  and  O_46
REMARK                            x       y       z     vdW  Elec       q    Type
REMARK                         _______ _______ _______ _____ _____    ______ ____
ROOT
ATOM      1  C   UNL     1     145.435 171.706 187.699  0.00  0.00    -0.022 C 
ATOM      2  C   UNL     1     144.691 171.288 186.409  0.00  0.00    -0.010 C 
ATOM      3  C   UNL     1     145.583 170.486 185.445  0.00  0.00    +0.101 C 
ATOM      4  O   UNL     1     145.511 169.097 185.841  0.00  0.00    -0.462 OA
ATOM      5  C   UNL     1     146.554 168.302 185.470  0.00  0.00    +0.309 C 
ATOM      6  O   UNL     1     147.578 168.687 184.925  0.00  0.00    -0.251 OA
ATOM      7  C   UNL     1     146.204 166.854 185.697  0.00  0.00    +0.067 C 
ATOM      8  C   UNL     1     147.318 166.098 186.426  0.00  0.00    +0.058 C 
ATOM      9  N   UNL     1     147.137 166.175 187.868  0.00  0.00    -0.306 N 
ATOM     10  C   UNL     1     147.978 166.867 188.714  0.00  0.00    +0.234 C 
ATOM     11  O   UNL     1     149.019 167.390 188.326  0.00  0.00    -0.274 OA
ATOM     12  C   UNL     1     147.592 166.740 190.211  0.00  0.00    +0.106 C 
ATOM     13  N   UNL     1     146.123 166.564 190.413  0.00  0.00    -0.291 N 
ATOM     14  C   UNL     1     145.286 167.599 190.009  0.00  0.00    +0.236 C 
ATOM     15  O   UNL     1     145.723 168.519 189.310  0.00  0.00    -0.274 OA
ATOM     16  C   UNL     1     143.784 167.554 190.359  0.00  0.00    +0.097 C 
ATOM     17  N   UNL     1     143.276 168.924 190.273  0.00  0.00    -0.304 N 
ATOM     18  C   UNL     1     142.786 169.623 191.348  0.00  0.00    +0.217 C 
ATOM     19  O   UNL     1     142.704 169.142 192.474  0.00  0.00    -0.275 OA
ATOM     20  C   UNL     1     142.343 171.048 191.009  0.00  0.00    +0.036 C 
ATOM     21  C   UNL     1     143.508 172.049 191.122  0.00  0.00    -0.021 C 
ATOM     22  C   UNL     1     144.634 171.830 190.128  0.00  0.00    -0.076 C 
ATOM     23  C   UNL     1     144.437 171.998 188.803  0.00  0.00    -0.082 C 
ATOM     24  H   UNL     1     146.078 170.872 188.002  0.00  0.00    +0.034 HD
ATOM     25  H   UNL     1     144.312 172.191 185.913  0.00  0.00    +0.031 HD
ATOM     26  H   UNL     1     143.818 170.674 186.670  0.00  0.00    +0.031 HD
ATOM     27  H   UNL     1     146.617 170.847 185.480  0.00  0.00    +0.073 HD
ATOM     28  H   UNL     1     145.257 166.784 186.247  0.00  0.00    +0.040 HD
ATOM     29  H   UNL     1     146.022 166.440 184.696  0.00  0.00    +0.040 HD
ATOM     30  H   UNL     1     148.287 166.541 186.168  0.00  0.00    +0.055 HD
ATOM     31  H   UNL     1     146.345 165.706 188.287  0.00  0.00    +0.149 HD
ATOM     32  H   UNL     1     148.058 165.791 190.510  0.00  0.00    +0.060 HD
ATOM     33  H   UNL     1     143.649 167.188 191.379  0.00  0.00    +0.059 HD
ATOM     34  H   UNL     1     143.534 169.443 189.439  0.00  0.00    +0.149 HD
ATOM     35  H   UNL     1     141.944 171.048 189.986  0.00  0.00    +0.039 HD
ATOM     36  H   UNL     1     143.912 172.021 192.143  0.00  0.00    +0.032 HD
ATOM     37  H   UNL     1     143.128 173.071 190.983  0.00  0.00    +0.032 HD
ATOM     38  H   UNL     1     143.461 172.353 188.469  0.00  0.00    +0.057 HD
ENDROOT
BRANCH   8  39
ATOM     39  C   UNL     1     147.349 164.622 186.050  0.00  0.00    -0.026 A 
ATOM     40  C   UNL     1     146.396 164.052 185.188  0.00  0.00    -0.053 A 
ATOM     41  C   UNL     1     146.436 162.690 184.885  0.00  0.00    -0.020 A 
ATOM     42  C   UNL     1     147.422 161.888 185.445  0.00  0.00    +0.117 A 
ATOM     43  C   UNL     1     148.368 162.424 186.310  0.00  0.00    -0.020 A 
ATOM     44  C   UNL     1     148.328 163.787 186.615  0.00  0.00    -0.053 A 
ATOM     45  H   UNL     1     145.610 164.660 184.745  0.00  0.00    +0.062 HD
ATOM     46  H   UNL     1     145.701 162.255 184.213  0.00  0.00    +0.065 HD
ATOM     47  H   UNL     1     149.139 161.804 186.759  0.00  0.00    +0.065 HD
ATOM     48  H   UNL     1     149.066 164.198 187.303  0.00  0.00    +0.062 HD
BRANCH  42  49
ATOM     49  O   UNL     1     147.424 160.564 185.120  0.00  0.00    -0.507 OA
ATOM     50  H   UNL     1     146.653 160.143 185.536  0.00  0.00    +0.292 HD
ENDBRANCH  42  49
ENDBRANCH   8  39
BRANCH   1  51
ATOM     51  C   UNL     1     146.307 172.941 187.449  0.00  0.00    -0.059 C 
ATOM     52  H   UNL     1     145.756 173.707 186.892  0.00  0.00    +0.024 HD
ATOM     53  H   UNL     1     147.202 172.689 186.870  0.00  0.00    +0.024 HD
ATOM     54  H   UNL     1     146.633 173.394 188.390  0.00  0.00    +0.024 HD
ENDBRANCH   1  51
BRANCH  22  55
ATOM     55  C   UNL     1     145.949 171.435 190.748  0.00  0.00    -0.044 C 
ATOM     56  H   UNL     1     145.941 170.439 191.198  0.00  0.00    +0.027 HD
ATOM     57  H   UNL     1     146.735 171.438 189.986  0.00  0.00    +0.027 HD
ATOM     58  H   UNL     1     146.225 172.149 191.526  0.00  0.00    +0.027 HD
ENDBRANCH  22  55
BRANCH  20  59
ATOM     59  C   UNL     1     141.205 171.467 191.943  0.00  0.00    -0.054 C 
ATOM     60  H   UNL     1     140.921 170.655 192.622  0.00  0.00    +0.024 HD
ATOM     61  H   UNL     1     140.314 171.746 191.369  0.00  0.00    +0.024 HD
ATOM     62  H   UNL     1     141.499 172.330 192.550  0.00  0.00    +0.024 HD
ENDBRANCH  20  59
BRANCH  16  63
ATOM     63  C   UNL     1     143.044 166.676 189.357  0.00  0.00    -0.038 C 
ATOM     64  H   UNL     1     143.645 166.478 188.465  0.00  0.00    +0.025 HD
ATOM     65  H   UNL     1     142.777 165.715 189.810  0.00  0.00    +0.025 HD
ATOM     66  H   UNL     1     142.116 167.154 189.023  0.00  0.00    +0.025 HD
ENDBRANCH  16  63
BRANCH  13  67
ATOM     67  C   UNL     1     145.711 165.402 191.193  0.00  0.00    +0.004 C 
ATOM     68  H   UNL     1     146.176 165.365 192.176  0.00  0.00    +0.043 HD
ATOM     69  H   UNL     1     144.627 165.444 191.327  0.00  0.00    +0.043 HD
ATOM     70  H   UNL     1     145.971 164.492 190.650  0.00  0.00    +0.043 HD
ENDBRANCH  13  67
BRANCH   3  71
ATOM     71  C   UNL     1     145.049 170.595 184.017  0.00  0.00    -0.028 C 
ATOM     72  H   UNL     1     144.054 171.053 184.006  0.00  0.00    +0.027 HD
ATOM     73  H   UNL     1     144.978 169.610 183.545  0.00  0.00    +0.027 HD
ATOM     74  H   UNL     1     145.695 171.234 183.406  0.00  0.00    +0.027 HD
ENDBRANCH   3  71
BRANCH  12  75
ATOM     75  C   UNL     1     148.206 167.874 191.060  0.00  0.00    +0.003 C 
ATOM     76  H   UNL     1     147.425 168.509 191.494  0.00  0.00    +0.034 HD
ATOM     77  H   UNL     1     148.799 168.548 190.430  0.00  0.00    +0.034 HD
BRANCH  75  78
ATOM     78  C   UNL     1     149.094 167.362 192.163  0.00  0.00    -0.006 A 
ATOM     79  C   UNL     1     150.469 167.249 192.142  0.00  0.00    +0.087 A 
ATOM     80  N   UNL     1     150.897 166.752 193.336  0.00  0.00    -0.349 N 
ATOM     81  C   UNL     1     149.823 166.500 194.154  0.00  0.00    +0.048 A 
ATOM     82  C   UNL     1     149.780 165.970 195.450  0.00  0.00    -0.038 A 
ATOM     83  C   UNL     1     148.526 165.816 196.047  0.00  0.00    -0.060 A 
ATOM     84  C   UNL     1     147.365 166.183 195.376  0.00  0.00    -0.061 A 
ATOM     85  C   UNL     1     147.428 166.718 194.085  0.00  0.00    -0.052 A 
ATOM     86  C   UNL     1     148.678 166.881 193.451  0.00  0.00    +0.004 A 
ATOM     87 BR   UNL     1     151.640 167.691 190.710  0.00  0.00    -0.031 Br
ATOM     88  H   UNL     1     151.863 166.583 193.579  0.00  0.00    +0.166 HD
ATOM     89  H   UNL     1     150.684 165.684 195.978  0.00  0.00    +0.064 HD
ATOM     90  H   UNL     1     148.457 165.404 197.053  0.00  0.00    +0.062 HD
ATOM     91  H   UNL     1     146.393 166.053 195.851  0.00  0.00    +0.062 HD
ATOM     92  H   UNL     1     146.508 166.995 193.582  0.00  0.00    +0.062 HD
ENDBRANCH  75  78
ENDBRANCH  12  75
TORSDOF 10
ENDMDL
MODEL 7
REMARK VINA RESULT:      -6.3      6.726     11.889
REMARK  Name = Jasplakinolide_conf3
REMARK  10 active torsions:
REMARK  status: ('A' for Active; 'I' for Inactive)
REMARK    1  A    between atoms: C_1  and  C_2
REMARK    2  A    between atoms: C_4  and  C_47
REMARK    3  A    between atoms: C_9  and  C_40
REMARK    4  A    between atoms: C_13  and  C_29
REMARK    5  A    between atoms: N_14  and  C_28
REMARK    6  A    between atoms: C_17  and  C_27
REMARK    7  A    between atoms: C_21  and  C_26
REMARK    8  A    between atoms: C_23  and  C_25
REMARK    9  A    between atoms: C_29  and  C_30
REMARK   10  A    between atoms: C_43  and  O_46
REMARK                            x       y       z     vdW  Elec       q    Type
REMARK                         _______ _______ _______ _____ _____    ______ ____
ROOT
ATOM      1  C   UNL     1     152.167 161.622 185.547  0.00  0.00    -0.022 C 
ATOM      2  C   UNL     1     151.634 160.636 186.612  0.00  0.00    -0.010 C 
ATOM      3  C   UNL     1     152.645 159.528 186.952  0.00  0.00    +0.101 C 
ATOM      4  O   UNL     1     153.520 160.040 187.982  0.00  0.00    -0.462 OA
ATOM      5  C   UNL     1     154.747 159.455 188.088  0.00  0.00    +0.309 C 
ATOM      6  O   UNL     1     155.196 158.612 187.326  0.00  0.00    -0.251 OA
ATOM      7  C   UNL     1     155.417 159.890 189.365  0.00  0.00    +0.067 C 
ATOM      8  C   UNL     1     156.865 160.332 189.135  0.00  0.00    +0.058 C 
ATOM      9  N   UNL     1     156.930 161.755 188.835  0.00  0.00    -0.306 N 
ATOM     10  C   UNL     1     157.291 162.266 187.606  0.00  0.00    +0.234 C 
ATOM     11  O   UNL     1     157.695 161.556 186.689  0.00  0.00    -0.274 OA
ATOM     12  C   UNL     1     157.335 163.817 187.570  0.00  0.00    +0.106 C 
ATOM     13  N   UNL     1     156.358 164.442 188.508  0.00  0.00    -0.291 N 
ATOM     14  C   UNL     1     155.005 164.209 188.282  0.00  0.00    +0.236 C 
ATOM     15  O   UNL     1     154.646 163.341 187.479  0.00  0.00    -0.274 OA
ATOM     16  C   UNL     1     153.945 164.974 189.102  0.00  0.00    +0.097 C 
ATOM     17  N   UNL     1     152.692 164.924 188.348  0.00  0.00    -0.304 N 
ATOM     18  C   UNL     1     152.071 166.033 187.828  0.00  0.00    +0.217 C 
ATOM     19  O   UNL     1     152.503 167.171 187.982  0.00  0.00    -0.275 OA
ATOM     20  C   UNL     1     150.789 165.718 187.056  0.00  0.00    +0.036 C 
ATOM     21  C   UNL     1     151.078 165.412 185.573  0.00  0.00    -0.021 C 
ATOM     22  C   UNL     1     151.901 164.160 185.331  0.00  0.00    -0.076 C 
ATOM     23  C   UNL     1     151.415 162.937 185.631  0.00  0.00    -0.082 C 
ATOM     24  H   UNL     1     153.229 161.797 185.752  0.00  0.00    +0.034 HD
ATOM     25  H   UNL     1     150.697 160.196 186.245  0.00  0.00    +0.031 HD
ATOM     26  H   UNL     1     151.392 161.184 187.532  0.00  0.00    +0.031 HD
ATOM     27  H   UNL     1     153.217 159.237 186.064  0.00  0.00    +0.073 HD
ATOM     28  H   UNL     1     154.833 160.691 189.836  0.00  0.00    +0.040 HD
ATOM     29  H   UNL     1     155.360 159.020 190.033  0.00  0.00    +0.040 HD
ATOM     30  H   UNL     1     157.286 159.773 188.291  0.00  0.00    +0.055 HD
ATOM     31  H   UNL     1     156.688 162.419 189.558  0.00  0.00    +0.149 HD
ATOM     32  H   UNL     1     158.334 164.048 187.969  0.00  0.00    +0.060 HD
ATOM     33  H   UNL     1     154.247 166.017 189.221  0.00  0.00    +0.059 HD
ATOM     34  H   UNL     1     152.422 164.011 187.994  0.00  0.00    +0.149 HD
ATOM     35  H   UNL     1     150.305 164.854 187.530  0.00  0.00    +0.039 HD
ATOM     36  H   UNL     1     151.582 166.274 185.118  0.00  0.00    +0.032 HD
ATOM     37  H   UNL     1     150.129 165.303 185.030  0.00  0.00    +0.032 HD
ATOM     38  H   UNL     1     150.391 162.867 185.999  0.00  0.00    +0.057 HD
ENDROOT
BRANCH   8  39
ATOM     39  C   UNL     1     157.739 160.085 190.359  0.00  0.00    -0.026 A 
ATOM     40  C   UNL     1     157.534 158.988 191.213  0.00  0.00    -0.053 A 
ATOM     41  C   UNL     1     158.336 158.805 192.341  0.00  0.00    -0.020 A 
ATOM     42  C   UNL     1     159.340 159.721 192.628  0.00  0.00    +0.117 A 
ATOM     43  C   UNL     1     159.555 160.822 191.808  0.00  0.00    -0.020 A 
ATOM     44  C   UNL     1     158.753 161.004 190.678  0.00  0.00    -0.053 A 
ATOM     45  H   UNL     1     156.748 158.263 191.012  0.00  0.00    +0.062 HD
ATOM     46  H   UNL     1     158.178 157.952 192.995  0.00  0.00    +0.065 HD
ATOM     47  H   UNL     1     160.334 161.546 192.026  0.00  0.00    +0.065 HD
ATOM     48  H   UNL     1     158.920 161.876 190.046  0.00  0.00    +0.062 HD
BRANCH  42  49
ATOM     49  O   UNL     1     160.099 159.503 193.739  0.00  0.00    -0.507 OA
ATOM     50  H   UNL     1     159.760 158.715 194.196  0.00  0.00    +0.292 HD
ENDBRANCH  42  49
ENDBRANCH   8  39
BRANCH   1  51
ATOM     51  C   UNL     1     152.024 161.034 184.139  0.00  0.00    -0.059 C 
ATOM     52  H   UNL     1     151.100 161.377 183.660  0.00  0.00    +0.024 HD
ATOM     53  H   UNL     1     151.999 159.939 184.163  0.00  0.00    +0.024 HD
ATOM     54  H   UNL     1     152.856 161.337 183.495  0.00  0.00    +0.024 HD
ENDBRANCH   1  51
BRANCH  22  55
ATOM     55  C   UNL     1     153.260 164.411 184.730  0.00  0.00    -0.044 C 
ATOM     56  H   UNL     1     153.946 163.566 184.827  0.00  0.00    +0.027 HD
ATOM     57  H   UNL     1     153.160 164.623 183.661  0.00  0.00    +0.027 HD
ATOM     58  H   UNL     1     153.726 165.274 185.208  0.00  0.00    +0.027 HD
ENDBRANCH  22  55
BRANCH  20  59
ATOM     59  C   UNL     1     149.821 166.899 187.163  0.00  0.00    -0.054 C 
ATOM     60  H   UNL     1     150.345 167.826 187.424  0.00  0.00    +0.024 HD
ATOM     61  H   UNL     1     149.068 166.715 187.937  0.00  0.00    +0.024 HD
ATOM     62  H   UNL     1     149.298 167.060 186.214  0.00  0.00    +0.024 HD
ENDBRANCH  20  59
BRANCH  16  63
ATOM     63  C   UNL     1     153.750 164.301 190.455  0.00  0.00    -0.038 C 
ATOM     64  H   UNL     1     154.373 164.755 191.231  0.00  0.00    +0.025 HD
ATOM     65  H   UNL     1     152.704 164.369 190.773  0.00  0.00    +0.025 HD
ATOM     66  H   UNL     1     154.013 163.237 190.409  0.00  0.00    +0.025 HD
ENDBRANCH  16  63
BRANCH  13  67
ATOM     67  C   UNL     1     156.899 165.400 189.465  0.00  0.00    +0.004 C 
ATOM     68  H   UNL     1     156.479 166.397 189.352  0.00  0.00    +0.043 HD
ATOM     69  H   UNL     1     156.674 165.044 190.475  0.00  0.00    +0.043 HD
ATOM     70  H   UNL     1     157.983 165.462 189.340  0.00  0.00    +0.043 HD
ENDBRANCH  13  67
BRANCH   3  71
ATOM     71  C   UNL     1     151.920 158.307 187.518  0.00  0.00    -0.028 C 
ATOM     72  H   UNL     1     151.742 158.422 188.592  0.00  0.00    +0.027 HD
ATOM     73  H   UNL     1     152.501 157.394 187.363  0.00  0.00    +0.027 HD
ATOM     74  H   UNL     1     150.938 158.184 187.049  0.00  0.00    +0.027 HD
ENDBRANCH   3  71
BRANCH  12  75
ATOM     75  C   UNL     1     157.249 164.359 186.127  0.00  0.00    +0.003 C 
ATOM     76  H   UNL     1     156.213 164.590 185.854  0.00  0.00    +0.034 HD
ATOM     77  H   UNL     1     157.566 163.594 185.409  0.00  0.00    +0.034 HD
BRANCH  75  78
ATOM     78  C   UNL     1     158.100 165.583 185.912  0.00  0.00    -0.006 A 
ATOM     79  C   UNL     1     159.469 165.683 186.051  0.00  0.00    +0.087 A 
ATOM     80  N   UNL     1     159.859 166.955 185.758  0.00  0.00    -0.349 N 
ATOM     81  C   UNL     1     158.764 167.725 185.451  0.00  0.00    +0.048 A 
ATOM     82  C   UNL     1     158.681 169.082 185.113  0.00  0.00    -0.038 A 
ATOM     83  C   UNL     1     157.413 169.609 184.853  0.00  0.00    -0.060 A 
ATOM     84  C   UNL     1     156.278 168.809 184.924  0.00  0.00    -0.061 A 
ATOM     85  C   UNL     1     156.381 167.454 185.255  0.00  0.00    -0.052 A 
ATOM     86  C   UNL     1     157.646 166.892 185.529  0.00  0.00    +0.004 A 
ATOM     87 BR   UNL     1     160.678 164.308 186.568  0.00  0.00    -0.031 Br
ATOM     88  H   UNL     1     160.813 167.285 185.775  0.00  0.00    +0.166 HD
ATOM     89  H   UNL     1     159.565 169.709 185.056  0.00  0.00    +0.064 HD
ATOM     90  H   UNL     1     157.312 170.661 184.590  0.00  0.00    +0.062 HD
ATOM     91  H   UNL     1     155.295 169.234 184.724  0.00  0.00    +0.062 HD
ATOM     92  H   UNL     1     155.481 166.852 185.305  0.00  0.00    +0.062 HD
ENDBRANCH  75  78
ENDBRANCH  12  75
TORSDOF 10
ENDMDL
MODEL 8
REMARK VINA RESULT:      -6.3      3.754      7.832
REMARK  Name = Jasplakinolide_conf3
REMARK  10 active torsions:
REMARK  status: ('A' for Active; 'I' for Inactive)
REMARK    1  A    between atoms: C_1  and  C_2
REMARK    2  A    between atoms: C_4  and  C_47
REMARK    3  A    between atoms: C_9  and  C_40
REMARK    4  A    between atoms: C_13  and  C_29
REMARK    5  A    between atoms: N_14  and  C_28
REMARK    6  A    between atoms: C_17  and  C_27
REMARK    7  A    between atoms: C_21  and  C_26
REMARK    8  A    between atoms: C_23  and  C_25
REMARK    9  A    between atoms: C_29  and  C_30
REMARK   10  A    between atoms: C_43  and  O_46
REMARK                            x       y       z     vdW  Elec       q    Type
REMARK                         _______ _______ _______ _____ _____    ______ ____
ROOT
ATOM      1  C   UNL     1     141.116 167.490 186.502  0.00  0.00    -0.022 C 
ATOM      2  C   UNL     1     140.064 166.373 186.693  0.00  0.00    -0.010 C 
ATOM      3  C   UNL     1     140.550 165.007 186.180  0.00  0.00    +0.101 C 
ATOM      4  O   UNL     1     141.292 164.380 187.251  0.00  0.00    -0.462 OA
ATOM      5  C   UNL     1     142.201 163.430 186.890  0.00  0.00    +0.309 C 
ATOM      6  O   UNL     1     142.505 163.144 185.742  0.00  0.00    -0.251 OA
ATOM      7  C   UNL     1     142.673 162.680 188.108  0.00  0.00    +0.067 C 
ATOM      8  C   UNL     1     144.199 162.551 188.150  0.00  0.00    +0.058 C 
ATOM      9  N   UNL     1     144.794 163.683 188.846  0.00  0.00    -0.306 N 
ATOM     10  C   UNL     1     145.568 164.644 188.230  0.00  0.00    +0.234 C 
ATOM     11  O   UNL     1     145.910 164.560 187.053  0.00  0.00    -0.274 OA
ATOM     12  C   UNL     1     146.128 165.709 189.209  0.00  0.00    +0.106 C 
ATOM     13  N   UNL     1     145.227 165.947 190.375  0.00  0.00    -0.291 N 
ATOM     14  C   UNL     1     143.960 166.461 190.119  0.00  0.00    +0.236 C 
ATOM     15  O   UNL     1     143.524 166.502 188.963  0.00  0.00    -0.274 OA
ATOM     16  C   UNL     1     143.057 166.901 191.289  0.00  0.00    +0.097 C 
ATOM     17  N   UNL     1     142.059 167.824 190.748  0.00  0.00    -0.304 N 
ATOM     18  C   UNL     1     141.970 169.146 191.106  0.00  0.00    +0.217 C 
ATOM     19  O   UNL     1     142.707 169.660 191.942  0.00  0.00    -0.275 OA
ATOM     20  C   UNL     1     140.863 169.911 190.379  0.00  0.00    +0.036 C 
ATOM     21  C   UNL     1     141.359 170.496 189.042  0.00  0.00    -0.021 C 
ATOM     22  C   UNL     1     141.756 169.463 188.003  0.00  0.00    -0.076 C 
ATOM     23  C   UNL     1     140.841 168.635 187.459  0.00  0.00    -0.082 C 
ATOM     24  H   UNL     1     142.102 167.064 186.719  0.00  0.00    +0.034 HD
ATOM     25  H   UNL     1     139.141 166.668 186.175  0.00  0.00    +0.031 HD
ATOM     26  H   UNL     1     139.817 166.279 187.760  0.00  0.00    +0.031 HD
ATOM     27  H   UNL     1     141.178 165.127 185.291  0.00  0.00    +0.073 HD
ATOM     28  H   UNL     1     142.296 163.170 189.015  0.00  0.00    +0.040 HD
ATOM     29  H   UNL     1     142.186 161.698 188.051  0.00  0.00    +0.040 HD
ATOM     30  H   UNL     1     144.590 162.520 187.126  0.00  0.00    +0.055 HD
ATOM     31  H   UNL     1     144.629 163.789 189.837  0.00  0.00    +0.149 HD
ATOM     32  H   UNL     1     147.031 165.228 189.613  0.00  0.00    +0.060 HD
ATOM     33  H   UNL     1     143.651 167.422 192.044  0.00  0.00    +0.059 HD
ATOM     34  H   UNL     1     141.590 167.523 189.898  0.00  0.00    +0.149 HD
ATOM     35  H   UNL     1     140.029 169.220 190.200  0.00  0.00    +0.039 HD
ATOM     36  H   UNL     1     142.208 171.167 189.233  0.00  0.00    +0.032 HD
ATOM     37  H   UNL     1     140.575 171.130 188.606  0.00  0.00    +0.032 HD
ATOM     38  H   UNL     1     139.796 168.765 187.742  0.00  0.00    +0.057 HD
ENDROOT
BRANCH   8  39
ATOM     39  C   UNL     1     144.646 161.287 188.874  0.00  0.00    -0.026 A 
ATOM     40  C   UNL     1     146.001 160.933 188.991  0.00  0.00    -0.053 A 
ATOM     41  C   UNL     1     146.376 159.754 189.637  0.00  0.00    -0.020 A 
ATOM     42  C   UNL     1     145.400 158.917 190.163  0.00  0.00    +0.117 A 
ATOM     43  C   UNL     1     144.052 159.236 190.049  0.00  0.00    -0.020 A 
ATOM     44  C   UNL     1     143.677 160.417 189.402  0.00  0.00    -0.053 A 
ATOM     45  H   UNL     1     146.781 161.570 188.579  0.00  0.00    +0.062 HD
ATOM     46  H   UNL     1     147.425 159.488 189.731  0.00  0.00    +0.065 HD
ATOM     47  H   UNL     1     143.281 158.586 190.451  0.00  0.00    +0.065 HD
ATOM     48  H   UNL     1     142.618 160.655 189.307  0.00  0.00    +0.062 HD
BRANCH  42  49
ATOM     49  O   UNL     1     145.811 157.777 190.786  0.00  0.00    -0.507 OA
ATOM     50  H   UNL     1     146.547 157.396 190.279  0.00  0.00    +0.292 HD
ENDBRANCH  42  49
ENDBRANCH   8  39
BRANCH   1  51
ATOM     51  C   UNL     1     141.106 168.008 185.059  0.00  0.00    -0.059 C 
ATOM     52  H   UNL     1     141.981 167.649 184.506  0.00  0.00    +0.024 HD
ATOM     53  H   UNL     1     141.118 169.103 185.026  0.00  0.00    +0.024 HD
ATOM     54  H   UNL     1     140.217 167.666 184.521  0.00  0.00    +0.024 HD
ENDBRANCH   1  51
BRANCH  22  55
ATOM     55  C   UNL     1     143.219 169.466 187.645  0.00  0.00    -0.044 C 
ATOM     56  H   UNL     1     143.761 168.587 188.001  0.00  0.00    +0.027 HD
ATOM     57  H   UNL     1     143.335 169.497 186.556  0.00  0.00    +0.027 HD
ATOM     58  H   UNL     1     143.705 170.349 188.065  0.00  0.00    +0.027 HD
ENDBRANCH  22  55
BRANCH  20  59
ATOM     59  C   UNL     1     140.341 171.036 191.276  0.00  0.00    -0.054 C 
ATOM     60  H   UNL     1     139.550 171.611 190.781  0.00  0.00    +0.024 HD
ATOM     61  H   UNL     1     141.147 171.733 191.532  0.00  0.00    +0.024 HD
ATOM     62  H   UNL     1     139.935 170.632 192.209  0.00  0.00    +0.024 HD
ENDBRANCH  20  59
BRANCH  16  63
ATOM     63  C   UNL     1     142.353 165.688 191.886  0.00  0.00    -0.038 C 
ATOM     64  H   UNL     1     141.908 165.053 191.114  0.00  0.00    +0.025 HD
ATOM     65  H   UNL     1     143.055 165.079 192.465  0.00  0.00    +0.025 HD
ATOM     66  H   UNL     1     141.545 165.992 192.561  0.00  0.00    +0.025 HD
ENDBRANCH  16  63
BRANCH  13  67
ATOM     67  C   UNL     1     145.826 165.802 191.697  0.00  0.00    +0.004 C 
ATOM     68  H   UNL     1     145.860 166.737 192.252  0.00  0.00    +0.043 HD
ATOM     69  H   UNL     1     145.230 165.084 192.268  0.00  0.00    +0.043 HD
ATOM     70  H   UNL     1     146.844 165.421 191.592  0.00  0.00    +0.043 HD
ENDBRANCH  13  67
BRANCH   3  71
ATOM     71  C   UNL     1     139.356 164.111 185.850  0.00  0.00    -0.028 C 
ATOM     72  H   UNL     1     138.672 164.611 185.157  0.00  0.00    +0.027 HD
ATOM     73  H   UNL     1     138.797 163.848 186.753  0.00  0.00    +0.027 HD
ATOM     74  H   UNL     1     139.684 163.189 185.357  0.00  0.00    +0.027 HD
ENDBRANCH   3  71
BRANCH  12  75
ATOM     75  C   UNL     1     146.550 166.999 188.473  0.00  0.00    +0.003 C 
ATOM     76  H   UNL     1     145.675 167.542 188.099  0.00  0.00    +0.034 HD
ATOM     77  H   UNL     1     147.136 166.757 187.579  0.00  0.00    +0.034 HD
BRANCH  75  78
ATOM     78  C   UNL     1     147.371 167.921 189.336  0.00  0.00    -0.006 A 
ATOM     79  C   UNL     1     148.655 167.711 189.794  0.00  0.00    +0.087 A 
ATOM     80  N   UNL     1     149.049 168.784 190.536  0.00  0.00    -0.349 N 
ATOM     81  C   UNL     1     148.032 169.705 190.610  0.00  0.00    +0.048 A 
ATOM     82  C   UNL     1     147.976 170.935 191.276  0.00  0.00    -0.038 A 
ATOM     83  C   UNL     1     146.792 171.671 191.180  0.00  0.00    -0.060 A 
ATOM     84  C   UNL     1     145.712 171.196 190.443  0.00  0.00    -0.061 A 
ATOM     85  C   UNL     1     145.790 169.968 189.778  0.00  0.00    -0.052 A 
ATOM     86  C   UNL     1     146.969 169.198 189.859  0.00  0.00    +0.004 A 
ATOM     87 BR   UNL     1     149.756 166.191 189.483  0.00  0.00    -0.031 Br
ATOM     88  H   UNL     1     149.952 168.881 190.977  0.00  0.00    +0.166 HD
ATOM     89  H   UNL     1     148.816 171.310 191.850  0.00  0.00    +0.064 HD
ATOM     90  H   UNL     1     146.713 172.631 191.688  0.00  0.00    +0.062 HD
ATOM     91  H   UNL     1     144.793 171.777 190.381  0.00  0.00    +0.062 HD
ATOM     92  H   UNL     1     144.934 169.618 189.211  0.00  0.00    +0.062 HD
ENDBRANCH  75  78
ENDBRANCH  12  75
TORSDOF 10
ENDMDL
MODEL 9
REMARK VINA RESULT:      -6.3      6.603     11.958
REMARK  Name = Jasplakinolide_conf3
REMARK  10 active torsions:
REMARK  status: ('A' for Active; 'I' for Inactive)
REMARK    1  A    between atoms: C_1  and  C_2
REMARK    2  A    between atoms: C_4  and  C_47
REMARK    3  A    between atoms: C_9  and  C_40
REMARK    4  A    between atoms: C_13  and  C_29
REMARK    5  A    between atoms: N_14  and  C_28
REMARK    6  A    between atoms: C_17  and  C_27
REMARK    7  A    between atoms: C_21  and  C_26
REMARK    8  A    between atoms: C_23  and  C_25
REMARK    9  A    between atoms: C_29  and  C_30
REMARK   10  A    between atoms: C_43  and  O_46
REMARK                            x       y       z     vdW  Elec       q    Type
REMARK                         _______ _______ _______ _____ _____    ______ ____
ROOT
ATOM      1  C   UNL     1     151.774 161.577 185.489  0.00  0.00    -0.022 C 
ATOM      2  C   UNL     1     151.210 160.603 186.549  0.00  0.00    -0.010 C 
ATOM      3  C   UNL     1     152.177 159.450 186.868  0.00  0.00    +0.101 C 
ATOM      4  O   UNL     1     153.083 159.915 187.894  0.00  0.00    -0.462 OA
ATOM      5  C   UNL     1     154.285 159.278 187.982  0.00  0.00    +0.309 C 
ATOM      6  O   UNL     1     154.691 158.425 187.207  0.00  0.00    -0.251 OA
ATOM      7  C   UNL     1     154.984 159.672 189.257  0.00  0.00    +0.067 C 
ATOM      8  C   UNL     1     156.448 160.056 189.018  0.00  0.00    +0.058 C 
ATOM      9  N   UNL     1     156.569 161.477 188.731  0.00  0.00    -0.306 N 
ATOM     10  C   UNL     1     156.939 161.987 187.505  0.00  0.00    +0.234 C 
ATOM     11  O   UNL     1     157.305 161.270 186.577  0.00  0.00    -0.274 OA
ATOM     12  C   UNL     1     157.048 163.534 187.483  0.00  0.00    +0.106 C 
ATOM     13  N   UNL     1     156.106 164.189 188.438  0.00  0.00    -0.291 N 
ATOM     14  C   UNL     1     154.743 164.015 188.222  0.00  0.00    +0.236 C 
ATOM     15  O   UNL     1     154.340 163.172 187.414  0.00  0.00    -0.274 OA
ATOM     16  C   UNL     1     153.723 164.815 189.060  0.00  0.00    +0.097 C 
ATOM     17  N   UNL     1     152.462 164.825 188.318  0.00  0.00    -0.304 N 
ATOM     18  C   UNL     1     151.882 165.964 187.816  0.00  0.00    +0.217 C 
ATOM     19  O   UNL     1     152.363 167.082 187.977  0.00  0.00    -0.275 OA
ATOM     20  C   UNL     1     150.581 165.711 187.052  0.00  0.00    +0.036 C 
ATOM     21  C   UNL     1     150.844 165.408 185.564  0.00  0.00    -0.021 C 
ATOM     22  C   UNL     1     151.612 164.126 185.301  0.00  0.00    -0.076 C 
ATOM     23  C   UNL     1     151.078 162.921 185.594  0.00  0.00    -0.082 C 
ATOM     24  H   UNL     1     152.845 161.706 185.685  0.00  0.00    +0.034 HD
ATOM     25  H   UNL     1     150.252 160.206 186.187  0.00  0.00    +0.031 HD
ATOM     26  H   UNL     1     151.000 161.151 187.477  0.00  0.00    +0.031 HD
ATOM     27  H   UNL     1     152.729 159.146 185.972  0.00  0.00    +0.073 HD
ATOM     28  H   UNL     1     154.439 160.492 189.742  0.00  0.00    +0.040 HD
ATOM     29  H   UNL     1     154.898 158.798 189.917  0.00  0.00    +0.040 HD
ATOM     30  H   UNL     1     156.837 159.489 188.164  0.00  0.00    +0.055 HD
ATOM     31  H   UNL     1     156.362 162.143 189.464  0.00  0.00    +0.149 HD
ATOM     32  H   UNL     1     158.058 163.719 187.875  0.00  0.00    +0.060 HD
ATOM     33  H   UNL     1     154.069 165.843 189.187  0.00  0.00    +0.059 HD
ATOM     34  H   UNL     1     152.150 163.928 187.957  0.00  0.00    +0.149 HD
ATOM     35  H   UNL     1     150.067 164.863 187.523  0.00  0.00    +0.039 HD
ATOM     36  H   UNL     1     151.379 166.254 185.112  0.00  0.00    +0.032 HD
ATOM     37  H   UNL     1     149.886 165.345 185.029  0.00  0.00    +0.032 HD
ATOM     38  H   UNL     1     150.056 162.889 185.971  0.00  0.00    +0.057 HD
ENDROOT
BRANCH   8  39
ATOM     39  C   UNL     1     157.322 159.760 190.231  0.00  0.00    -0.026 A 
ATOM     40  C   UNL     1     157.051 158.691 191.103  0.00  0.00    -0.053 A 
ATOM     41  C   UNL     1     157.857 158.464 192.220  0.00  0.00    -0.020 A 
ATOM     42  C   UNL     1     158.931 159.306 192.478  0.00  0.00    +0.117 A 
ATOM     43  C   UNL     1     159.212 160.378 191.639  0.00  0.00    -0.020 A 
ATOM     44  C   UNL     1     158.406 160.606 190.521  0.00  0.00    -0.053 A 
ATOM     45  H   UNL     1     156.211 158.025 190.924  0.00  0.00    +0.062 HD
ATOM     46  H   UNL     1     157.648 157.633 192.888  0.00  0.00    +0.065 HD
ATOM     47  H   UNL     1     160.046 161.046 191.836  0.00  0.00    +0.065 HD
ATOM     48  H   UNL     1     158.626 161.455 189.874  0.00  0.00    +0.062 HD
BRANCH  42  49
ATOM     49  O   UNL     1     159.690 159.046 193.580  0.00  0.00    -0.507 OA
ATOM     50  H   UNL     1     160.353 159.751 193.671  0.00  0.00    +0.292 HD
ENDBRANCH  42  49
ENDBRANCH   8  39
BRANCH   1  51
ATOM     51  C   UNL     1     151.594 161.010 184.076  0.00  0.00    -0.059 C 
ATOM     52  H   UNL     1     152.553 160.952 183.549  0.00  0.00    +0.024 HD
ATOM     53  H   UNL     1     150.923 161.635 183.476  0.00  0.00    +0.024 HD
ATOM     54  H   UNL     1     151.176 160.000 184.104  0.00  0.00    +0.024 HD
ENDBRANCH   1  51
BRANCH  22  55
ATOM     55  C   UNL     1     152.974 164.326 184.690  0.00  0.00    -0.044 C 
ATOM     56  H   UNL     1     153.403 165.312 184.885  0.00  0.00    +0.027 HD
ATOM     57  H   UNL     1     153.674 163.586 185.091  0.00  0.00    +0.027 HD
ATOM     58  H   UNL     1     152.921 164.195 183.608  0.00  0.00    +0.027 HD
ENDBRANCH  22  55
BRANCH  20  59
ATOM     59  C   UNL     1     149.665 166.930 187.181  0.00  0.00    -0.054 C 
ATOM     60  H   UNL     1     150.232 167.836 187.419  0.00  0.00    +0.024 HD
ATOM     61  H   UNL     1     148.929 166.780 187.979  0.00  0.00    +0.024 HD
ATOM     62  H   UNL     1     149.119 167.106 186.248  0.00  0.00    +0.024 HD
ENDBRANCH  20  59
BRANCH  16  63
ATOM     63  C   UNL     1     153.512 164.136 190.408  0.00  0.00    -0.038 C 
ATOM     64  H   UNL     1     152.554 164.411 190.858  0.00  0.00    +0.025 HD
ATOM     65  H   UNL     1     153.539 163.047 190.301  0.00  0.00    +0.025 HD
ATOM     66  H   UNL     1     154.297 164.418 191.119  0.00  0.00    +0.025 HD
ENDBRANCH  16  63
BRANCH  13  67
ATOM     67  C   UNL     1     156.696 165.114 189.399  0.00  0.00    +0.004 C 
ATOM     68  H   UNL     1     157.054 166.033 188.939  0.00  0.00    +0.043 HD
ATOM     69  H   UNL     1     155.934 165.374 190.139  0.00  0.00    +0.043 HD
ATOM     70  H   UNL     1     157.533 164.626 189.902  0.00  0.00    +0.043 HD
ENDBRANCH  13  67
BRANCH   3  71
ATOM     71  C   UNL     1     151.407 158.255 187.429  0.00  0.00    -0.028 C 
ATOM     72  H   UNL     1     150.344 158.322 187.178  0.00  0.00    +0.027 HD
ATOM     73  H   UNL     1     151.500 158.199 188.518  0.00  0.00    +0.027 HD
ATOM     74  H   UNL     1     151.773 157.317 186.996  0.00  0.00    +0.027 HD
ENDBRANCH   3  71
BRANCH  12  75
ATOM     75  C   UNL     1     156.971 164.095 186.047  0.00  0.00    +0.003 C 
ATOM     76  H   UNL     1     155.930 164.202 185.722  0.00  0.00    +0.034 HD
ATOM     77  H   UNL     1     157.418 163.391 185.335  0.00  0.00    +0.034 HD
BRANCH  75  78
ATOM     78  C   UNL     1     157.672 165.420 185.899  0.00  0.00    -0.006 A 
ATOM     79  C   UNL     1     157.094 166.671 185.872  0.00  0.00    +0.087 A 
ATOM     80  N   UNL     1     158.068 167.614 185.733  0.00  0.00    -0.349 N 
ATOM     81  C   UNL     1     159.298 167.010 185.635  0.00  0.00    +0.048 A 
ATOM     82  C   UNL     1     160.568 167.573 185.461  0.00  0.00    -0.038 A 
ATOM     83  C   UNL     1     161.659 166.702 185.388  0.00  0.00    -0.060 A 
ATOM     84  C   UNL     1     161.484 165.327 185.492  0.00  0.00    -0.061 A 
ATOM     85  C   UNL     1     160.208 164.783 185.674  0.00  0.00    -0.052 A 
ATOM     86  C   UNL     1     159.085 165.634 185.746  0.00  0.00    +0.004 A 
ATOM     87 BR   UNL     1     155.242 167.088 186.000  0.00  0.00    -0.031 Br
ATOM     88  H   UNL     1     157.907 168.610 185.696  0.00  0.00    +0.166 HD
ATOM     89  H   UNL     1     160.709 168.646 185.381  0.00  0.00    +0.064 HD
ATOM     90  H   UNL     1     162.660 167.106 185.250  0.00  0.00    +0.062 HD
ATOM     91  H   UNL     1     162.342 164.659 185.428  0.00  0.00    +0.062 HD
ATOM     92  H   UNL     1     160.097 163.707 185.750  0.00  0.00    +0.062 HD
ENDBRANCH  75  78
ENDBRANCH  12  75
TORSDOF 10
ENDMDL
MODEL 10
REMARK VINA RESULT:      -6.3      6.207     10.563
REMARK  Name = Jasplakinolide_conf3
REMARK  10 active torsions:
REMARK  status: ('A' for Active; 'I' for Inactive)
REMARK    1  A    between atoms: C_1  and  C_2
REMARK    2  A    between atoms: C_4  and  C_47
REMARK    3  A    between atoms: C_9  and  C_40
REMARK    4  A    between atoms: C_13  and  C_29
REMARK    5  A    between atoms: N_14  and  C_28
REMARK    6  A    between atoms: C_17  and  C_27
REMARK    7  A    between atoms: C_21  and  C_26
REMARK    8  A    between atoms: C_23  and  C_25
REMARK    9  A    between atoms: C_29  and  C_30
REMARK   10  A    between atoms: C_43  and  O_46
REMARK                            x       y       z     vdW  Elec       q    Type
REMARK                         _______ _______ _______ _____ _____    ______ ____
ROOT
ATOM      1  C   UNL     1     158.312 165.895 184.725  0.00  0.00    -0.022 C 
ATOM      2  C   UNL     1     159.136 164.659 184.293  0.00  0.00    -0.010 C 
ATOM      3  C   UNL     1     159.954 164.059 185.450  0.00  0.00    +0.101 C 
ATOM      4  O   UNL     1     159.094 163.138 186.158  0.00  0.00    -0.462 OA
ATOM      5  C   UNL     1     159.419 162.873 187.455  0.00  0.00    +0.309 C 
ATOM      6  O   UNL     1     160.309 163.422 188.087  0.00  0.00    -0.251 OA
ATOM      7  C   UNL     1     158.618 161.700 187.957  0.00  0.00    +0.067 C 
ATOM      8  C   UNL     1     157.985 161.977 189.325  0.00  0.00    +0.058 C 
ATOM      9  N   UNL     1     156.667 162.574 189.172  0.00  0.00    -0.306 N 
ATOM     10  C   UNL     1     156.365 163.872 189.524  0.00  0.00    +0.234 C 
ATOM     11  O   UNL     1     157.167 164.603 190.100  0.00  0.00    -0.274 OA
ATOM     12  C   UNL     1     154.872 164.240 189.313  0.00  0.00    +0.106 C 
ATOM     13  N   UNL     1     154.249 163.487 188.186  0.00  0.00    -0.291 N 
ATOM     14  C   UNL     1     154.758 163.697 186.908  0.00  0.00    +0.236 C 
ATOM     15  O   UNL     1     155.822 164.305 186.751  0.00  0.00    -0.274 OA
ATOM     16  C   UNL     1     154.039 163.093 185.684  0.00  0.00    +0.097 C 
ATOM     17  N   UNL     1     154.463 163.855 184.509  0.00  0.00    -0.304 N 
ATOM     18  C   UNL     1     153.613 164.619 183.748  0.00  0.00    +0.217 C 
ATOM     19  O   UNL     1     152.409 164.701 183.974  0.00  0.00    -0.275 OA
ATOM     20  C   UNL     1     154.301 165.343 182.590  0.00  0.00    +0.036 C 
ATOM     21  C   UNL     1     154.852 166.716 183.024  0.00  0.00    -0.021 C 
ATOM     22  C   UNL     1     155.961 166.659 184.058  0.00  0.00    -0.076 C 
ATOM     23  C   UNL     1     157.162 166.117 183.762  0.00  0.00    -0.082 C 
ATOM     24  H   UNL     1     157.915 165.701 185.728  0.00  0.00    +0.034 HD
ATOM     25  H   UNL     1     159.799 164.950 183.469  0.00  0.00    +0.031 HD
ATOM     26  H   UNL     1     158.460 163.885 183.904  0.00  0.00    +0.031 HD
ATOM     27  H   UNL     1     160.316 164.846 186.120  0.00  0.00    +0.073 HD
ATOM     28  H   UNL     1     157.853 161.430 187.219  0.00  0.00    +0.040 HD
ATOM     29  H   UNL     1     159.327 160.863 188.002  0.00  0.00    +0.040 HD
ATOM     30  H   UNL     1     158.624 162.668 189.887  0.00  0.00    +0.055 HD
ATOM     31  H   UNL     1     155.921 162.018 188.777  0.00  0.00    +0.149 HD
ATOM     32  H   UNL     1     154.392 163.871 190.231  0.00  0.00    +0.060 HD
ATOM     33  H   UNL     1     152.957 163.192 185.800  0.00  0.00    +0.059 HD
ATOM     34  H   UNL     1     155.463 164.013 184.418  0.00  0.00    +0.149 HD
ATOM     35  H   UNL     1     155.120 164.708 182.226  0.00  0.00    +0.039 HD
ATOM     36  H   UNL     1     154.027 167.331 183.407  0.00  0.00    +0.032 HD
ATOM     37  H   UNL     1     155.235 167.251 182.144  0.00  0.00    +0.032 HD
ATOM     38  H   UNL     1     157.334 165.773 182.742  0.00  0.00    +0.057 HD
ENDROOT
BRANCH   8  39
ATOM     39  C   UNL     1     157.816 160.703 190.144  0.00  0.00    -0.026 A 
ATOM     40  C   UNL     1     158.664 160.391 191.221  0.00  0.00    -0.053 A 
ATOM     41  C   UNL     1     158.499 159.202 191.935  0.00  0.00    -0.020 A 
ATOM     42  C   UNL     1     157.492 158.316 191.574  0.00  0.00    +0.117 A 
ATOM     43  C   UNL     1     156.648 158.595 190.505  0.00  0.00    -0.020 A 
ATOM     44  C   UNL     1     156.814 159.784 189.790  0.00  0.00    -0.053 A 
ATOM     45  H   UNL     1     159.464 161.067 191.515  0.00  0.00    +0.062 HD
ATOM     46  H   UNL     1     159.153 158.968 192.770  0.00  0.00    +0.065 HD
ATOM     47  H   UNL     1     155.862 157.906 190.211  0.00  0.00    +0.065 HD
ATOM     48  H   UNL     1     156.156 159.990 188.946  0.00  0.00    +0.062 HD
BRANCH  42  49
ATOM     49  O   UNL     1     157.367 157.169 192.299  0.00  0.00    -0.507 OA
ATOM     50  H   UNL     1     158.049 156.542 192.007  0.00  0.00    +0.292 HD
ENDBRANCH  42  49
ENDBRANCH   8  39
BRANCH   1  51
ATOM     51  C   UNL     1     159.194 167.147 184.775  0.00  0.00    -0.059 C 
ATOM     52  H   UNL     1     159.169 167.608 185.770  0.00  0.00    +0.024 HD
ATOM     53  H   UNL     1     158.863 167.900 184.051  0.00  0.00    +0.024 HD
ATOM     54  H   UNL     1     160.239 166.907 184.555  0.00  0.00    +0.024 HD
ENDBRANCH   1  51
BRANCH  22  55
ATOM     55  C   UNL     1     155.605 167.259 185.392  0.00  0.00    -0.044 C 
ATOM     56  H   UNL     1     155.619 168.352 185.401  0.00  0.00    +0.027 HD
ATOM     57  H   UNL     1     154.597 166.947 185.682  0.00  0.00    +0.027 HD
ATOM     58  H   UNL     1     156.303 166.913 186.156  0.00  0.00    +0.027 HD
ENDBRANCH  22  55
BRANCH  20  59
ATOM     59  C   UNL     1     153.313 165.521 181.436  0.00  0.00    -0.054 C 
ATOM     60  H   UNL     1     152.279 165.575 181.796  0.00  0.00    +0.024 HD
ATOM     61  H   UNL     1     153.377 164.679 180.737  0.00  0.00    +0.024 HD
ATOM     62  H   UNL     1     153.527 166.439 180.878  0.00  0.00    +0.024 HD
ENDBRANCH  20  59
BRANCH  16  63
ATOM     63  C   UNL     1     154.442 161.633 185.514  0.00  0.00    -0.038 C 
ATOM     64  H   UNL     1     154.964 161.248 186.395  0.00  0.00    +0.025 HD
ATOM     65  H   UNL     1     153.561 161.007 185.338  0.00  0.00    +0.025 HD
ATOM     66  H   UNL     1     155.114 161.506 184.657  0.00  0.00    +0.025 HD
ENDBRANCH  16  63
BRANCH  13  67
ATOM     67  C   UNL     1     153.034 162.743 188.496  0.00  0.00    +0.004 C 
ATOM     68  H   UNL     1     152.261 162.857 187.739  0.00  0.00    +0.043 HD
ATOM     69  H   UNL     1     153.288 161.681 188.569  0.00  0.00    +0.043 HD
ATOM     70  H   UNL     1     152.637 163.084 189.455  0.00  0.00    +0.043 HD
ENDBRANCH  13  67
BRANCH   3  71
ATOM     71  C   UNL     1     161.139 163.265 184.901  0.00  0.00    -0.028 C 
ATOM     72  H   UNL     1     162.009 163.913 184.753  0.00  0.00    +0.027 HD
ATOM     73  H   UNL     1     160.893 162.797 183.943  0.00  0.00    +0.027 HD
ATOM     74  H   UNL     1     161.447 162.485 185.606  0.00  0.00    +0.027 HD
ENDBRANCH   3  71
BRANCH  12  75
ATOM     75  C   UNL     1     154.664 165.767 189.234  0.00  0.00    +0.003 C 
ATOM     76  H   UNL     1     154.943 166.152 188.247  0.00  0.00    +0.034 HD
ATOM     77  H   UNL     1     155.329 166.283 189.936  0.00  0.00    +0.034 HD
BRANCH  75  78
ATOM     78  C   UNL     1     153.248 166.180 189.541  0.00  0.00    -0.006 A 
ATOM     79  C   UNL     1     152.713 166.466 190.780  0.00  0.00    +0.087 A 
ATOM     80  N   UNL     1     151.402 166.808 190.635  0.00  0.00    -0.349 N 
ATOM     81  C   UNL     1     151.037 166.727 189.314  0.00  0.00    +0.048 A 
ATOM     82  C   UNL     1     149.798 166.962 188.704  0.00  0.00    -0.038 A 
ATOM     83  C   UNL     1     149.714 166.795 187.319  0.00  0.00    -0.060 A 
ATOM     84  C   UNL     1     150.827 166.413 186.577  0.00  0.00    -0.061 A 
ATOM     85  C   UNL     1     152.058 166.190 187.203  0.00  0.00    -0.052 A 
ATOM     86  C   UNL     1     152.175 166.345 188.600  0.00  0.00    +0.004 A 
ATOM     87 BR   UNL     1     153.602 166.408 192.461  0.00  0.00    -0.031 Br
ATOM     88  H   UNL     1     150.787 167.071 191.392  0.00  0.00    +0.166 HD
ATOM     89  H   UNL     1     148.928 167.262 189.279  0.00  0.00    +0.064 HD
ATOM     90  H   UNL     1     148.766 166.966 186.813  0.00  0.00    +0.062 HD
ATOM     91  H   UNL     1     150.747 166.281 185.499  0.00  0.00    +0.062 HD
ATOM     92  H   UNL     1     152.910 165.892 186.602  0.00  0.00    +0.062 HD
ENDBRANCH  75  78
ENDBRANCH  12  75
TORSDOF 10
ENDMDL
