MODEL 1
REMARK VINA RESULT:      -6.5      0.000      0.000
REMARK  Name = Kabiramide C_conf1
REMARK  29 active torsions:
REMARK  status: ('A' for Active; 'I' for Inactive)
REMARK    1  A    between atoms: C_1  and  C_2
REMARK    2  A    between atoms: C_4  and  O_64
REMARK    3  A    between atoms: C_9  and  C_41
REMARK    4  A    between atoms: C_10  and  C_40
REMARK    5  A    between atoms: C_11  and  O_38
REMARK    6  A    between atoms: C_30  and  O_36
REMARK    7  A    between atoms: C_31  and  C_35
REMARK    8  A    between atoms: C_32  and  O_34
REMARK    9  A    between atoms: O_36  and  C_37
REMARK   10  A    between atoms: O_38  and  C_39
REMARK   11  A    between atoms: C_41  and  C_42
REMARK   12  A    between atoms: C_42  and  C_43
REMARK   13  A    between atoms: C_42  and  O_62
REMARK   14  A    between atoms: C_43  and  C_44
REMARK   15  A    between atoms: C_43  and  C_45
REMARK   16  A    between atoms: C_45  and  C_46
REMARK   17  A    between atoms: C_46  and  C_47
REMARK   18  A    between atoms: C_47  and  C_49
REMARK   19  A    between atoms: C_49  and  C_50
REMARK   20  A    between atoms: C_49  and  C_51
REMARK   21  A    between atoms: C_51  and  C_52
REMARK   22  A    between atoms: C_51  and  O_60
REMARK   23  A    between atoms: C_52  and  C_53
REMARK   24  A    between atoms: C_52  and  C_54
REMARK   25  A    between atoms: C_55  and  N_56
REMARK   26  A    between atoms: N_56  and  C_57
REMARK   27  A    between atoms: O_60  and  C_61
REMARK   28  A    between atoms: O_62  and  C_63
REMARK   29  A    between atoms: O_64  and  C_65
REMARK                            x       y       z     vdW  Elec       q    Type
REMARK                         _______ _______ _______ _____ _____    ______ ____
ROOT
ATOM      1  C   UNL     1     146.146 164.387 187.811  0.00  0.00    -0.038 C 
ATOM      2  C   UNL     1     147.519 164.437 188.550  0.00  0.00    -0.012 C 
ATOM      3  C   UNL     1     148.360 165.743 188.524  0.00  0.00    +0.115 C 
ATOM      4  C   UNL     1     149.290 165.878 187.319  0.00  0.00    +0.082 C 
ATOM      5  C   UNL     1     150.582 165.118 187.464  0.00  0.00    +0.311 C 
ATOM      6  O   UNL     1     150.699 163.928 187.198  0.00  0.00    -0.251 OA
ATOM      7  O   UNL     1     151.593 165.953 187.837  0.00  0.00    -0.461 OA
ATOM      8  C   UNL     1     152.953 165.498 187.630  0.00  0.00    +0.110 C 
ATOM      9  C   UNL     1     153.628 165.041 188.959  0.00  0.00    +0.020 C 
ATOM     10  C   UNL     1     154.047 166.141 189.979  0.00  0.00    +0.068 C 
ATOM     11  C   UNL     1     152.950 167.138 190.401  0.00  0.00    -0.008 C 
ATOM     12  C   UNL     1     151.881 166.627 191.318  0.00  0.00    -0.077 C 
ATOM     13  C   UNL     1     152.084 166.025 192.504  0.00  0.00    -0.003 C 
ATOM     14  C   UNL     1     150.978 165.671 193.327  0.00  0.00    +0.220 A 
ATOM     15  N   UNL     1     149.700 165.783 193.003  0.00  0.00    -0.205 NA
ATOM     16  C   UNL     1     149.001 165.419 194.121  0.00  0.00    +0.164 A 
ATOM     17  C   UNL     1     149.868 165.044 195.107  0.00  0.00    +0.125 A 
ATOM     18  O   UNL     1     151.137 165.180 194.619  0.00  0.00    -0.443 OA
ATOM     19  C   UNL     1     147.450 165.454 194.205  0.00  0.00    +0.250 A 
ATOM     20  N   UNL     1     146.707 165.817 193.178  0.00  0.00    -0.203 NA
ATOM     21  C   UNL     1     145.421 165.731 193.635  0.00  0.00    +0.164 A 
ATOM     22  C   UNL     1     145.416 165.323 194.943  0.00  0.00    +0.125 A 
ATOM     23  O   UNL     1     146.715 165.138 195.328  0.00  0.00    -0.442 OA
ATOM     24  C   UNL     1     144.177 166.055 192.759  0.00  0.00    +0.249 A 
ATOM     25  N   UNL     1     144.286 166.436 191.499  0.00  0.00    -0.210 NA
ATOM     26  C   UNL     1     142.996 166.572 191.057  0.00  0.00    +0.109 A 
ATOM     27  C   UNL     1     142.136 166.297 192.094  0.00  0.00    +0.118 A 
ATOM     28  O   UNL     1     142.876 165.963 193.188  0.00  0.00    -0.442 OA
ATOM     29  C   UNL     1     142.700 166.956 189.636  0.00  0.00    +0.108 C 
ATOM     30  C   UNL     1     142.475 165.673 188.766  0.00  0.00    +0.014 C 
ATOM     31  C   UNL     1     143.696 165.346 187.850  0.00  0.00    +0.061 C 
ATOM     32  C   UNL     1     145.007 165.092 188.614  0.00  0.00    -0.024 C 
ATOM     33  H   UNL     1     145.861 163.321 187.804  0.00  0.00    +0.030 HD
ATOM     34  H   UNL     1     148.145 163.606 188.196  0.00  0.00    +0.030 HD
ATOM     35  H   UNL     1     147.314 164.210 189.608  0.00  0.00    +0.030 HD
ATOM     36  H   UNL     1     148.959 165.763 189.446  0.00  0.00    +0.074 HD
ATOM     37  H   UNL     1     149.538 166.935 187.131  0.00  0.00    +0.041 HD
ATOM     38  H   UNL     1     148.817 165.560 186.383  0.00  0.00    +0.041 HD
ATOM     39  H   UNL     1     152.958 164.635 186.950  0.00  0.00    +0.074 HD
ATOM     40  H   UNL     1     154.574 164.571 188.641  0.00  0.00    +0.036 HD
ATOM     41  H   UNL     1     154.432 165.627 190.870  0.00  0.00    +0.060 HD
ATOM     42  H   UNL     1     153.398 168.009 190.894  0.00  0.00    +0.033 HD
ATOM     43  H   UNL     1     152.472 167.573 189.518  0.00  0.00    +0.033 HD
ATOM     44  H   UNL     1     150.858 166.838 190.992  0.00  0.00    +0.057 HD
ATOM     45  H   UNL     1     153.077 165.849 192.895  0.00  0.00    +0.067 HD
ATOM     46  H   UNL     1     149.772 164.691 196.123  0.00  0.00    +0.105 HD
ATOM     47  H   UNL     1     144.659 165.125 195.687  0.00  0.00    +0.105 HD
ATOM     48  H   UNL     1     141.064 166.287 192.213  0.00  0.00    +0.105 HD
ATOM     49  H   UNL     1     143.556 167.516 189.240  0.00  0.00    +0.067 HD
ATOM     50  H   UNL     1     142.346 164.802 189.430  0.00  0.00    +0.035 HD
ATOM     51  H   UNL     1     143.460 164.446 187.266  0.00  0.00    +0.060 HD
ATOM     52  H   UNL     1     144.798 164.456 189.486  0.00  0.00    +0.029 HD
ATOM     53  H   UNL     1     145.369 166.043 189.006  0.00  0.00    +0.029 HD
ENDROOT
BRANCH   1  54
ATOM     54  C   UNL     1     146.257 164.787 186.340  0.00  0.00    -0.062 C 
ATOM     55  H   UNL     1     146.137 165.866 186.195  0.00  0.00    +0.023 HD
ATOM     56  H   UNL     1     145.499 164.278 185.731  0.00  0.00    +0.023 HD
ATOM     57  H   UNL     1     147.227 164.483 185.930  0.00  0.00    +0.023 HD
ENDBRANCH   1  54
BRANCH  30  58
ATOM     58  C   UNL     1     141.192 165.753 187.920  0.00  0.00    -0.057 C 
ATOM     59  H   UNL     1     140.323 165.438 188.503  0.00  0.00    +0.023 HD
ATOM     60  H   UNL     1     141.253 165.119 187.030  0.00  0.00    +0.023 HD
ATOM     61  H   UNL     1     141.011 166.781 187.597  0.00  0.00    +0.023 HD
ENDBRANCH  30  58
BRANCH   9  62
ATOM     62  C   UNL     1     152.822 163.925 189.637  0.00  0.00    -0.057 C 
ATOM     63  H   UNL     1     151.763 164.204 189.704  0.00  0.00    +0.023 HD
ATOM     64  H   UNL     1     152.869 162.998 189.055  0.00  0.00    +0.023 HD
ATOM     65  H   UNL     1     153.172 163.707 190.649  0.00  0.00    +0.023 HD
ENDBRANCH   9  62
BRANCH   8  66
ATOM     66  C   UNL     1     153.717 166.633 186.917  0.00  0.00    +0.011 C 
ATOM     67  H   UNL     1     154.344 167.147 187.657  0.00  0.00    +0.033 HD
ATOM     68  H   UNL     1     152.985 167.347 186.519  0.00  0.00    +0.033 HD
BRANCH  66  69
ATOM     69  C   UNL     1     154.585 166.168 185.732  0.00  0.00    +0.064 C 
ATOM     70  H   UNL     1     153.982 166.213 184.820  0.00  0.00    +0.060 HD
BRANCH  69  71
ATOM     71  C   UNL     1     155.826 167.090 185.563  0.00  0.00    -0.017 C 
ATOM     72  H   UNL     1     155.757 167.893 186.303  0.00  0.00    +0.032 HD
BRANCH  71  73
ATOM     73  C   UNL     1     157.152 166.359 185.829  0.00  0.00    -0.060 C 
ATOM     74  H   UNL     1     157.608 166.687 186.764  0.00  0.00    +0.023 HD
ATOM     75  H   UNL     1     157.019 165.275 185.868  0.00  0.00    +0.023 HD
ATOM     76  H   UNL     1     157.867 166.579 185.029  0.00  0.00    +0.023 HD
ENDBRANCH  71  73
BRANCH  71  77
ATOM     77  C   UNL     1     155.900 167.739 184.157  0.00  0.00    -0.041 C 
ATOM     78  H   UNL     1     154.888 167.828 183.743  0.00  0.00    +0.027 HD
ATOM     79  H   UNL     1     156.449 167.061 183.489  0.00  0.00    +0.027 HD
BRANCH  77  80
ATOM     80  C   UNL     1     156.573 169.110 184.093  0.00  0.00    +0.007 C 
ATOM     81  H   UNL     1     156.065 169.783 184.795  0.00  0.00    +0.034 HD
ATOM     82  H   UNL     1     157.618 169.087 184.412  0.00  0.00    +0.034 HD
BRANCH  80  83
ATOM     83  C   UNL     1     156.512 169.719 182.703  0.00  0.00    +0.139 C 
ATOM     84  O   UNL     1     157.324 169.386 181.840  0.00  0.00    -0.297 OA
BRANCH  83  85
ATOM     85  C   UNL     1     155.467 170.798 182.451  0.00  0.00    +0.041 C 
ATOM     86  H   UNL     1     154.831 170.830 183.345  0.00  0.00    +0.040 HD
BRANCH  85  87
ATOM     87  C   UNL     1     154.518 170.404 181.320  0.00  0.00    -0.053 C 
ATOM     88  H   UNL     1     154.572 171.073 180.459  0.00  0.00    +0.024 HD
ATOM     89  H   UNL     1     154.776 169.406 180.949  0.00  0.00    +0.024 HD
ATOM     90  H   UNL     1     153.480 170.368 181.662  0.00  0.00    +0.024 HD
ENDBRANCH  85  87
BRANCH  85  91
ATOM     91  C   UNL     1     156.155 172.180 182.307  0.00  0.00    +0.074 C 
ATOM     92  H   UNL     1     155.356 172.930 182.207  0.00  0.00    +0.061 HD
BRANCH  91  93
ATOM     93  C   UNL     1     157.022 172.651 183.518  0.00  0.00    +0.003 C 
ATOM     94  H   UNL     1     156.843 171.959 184.352  0.00  0.00    +0.037 HD
BRANCH  93  95
ATOM     95  C   UNL     1     156.562 174.033 184.002  0.00  0.00    -0.057 C 
ATOM     96  H   UNL     1     155.469 174.111 183.984  0.00  0.00    +0.024 HD
ATOM     97  H   UNL     1     156.899 174.241 185.025  0.00  0.00    +0.024 HD
ATOM     98  H   UNL     1     156.959 174.820 183.349  0.00  0.00    +0.024 HD
ENDBRANCH  93  95
BRANCH  93  99
ATOM     99  C   UNL     1     158.509 172.720 183.232  0.00  0.00    -0.065 C 
ATOM    100  C   UNL     1     159.380 171.833 183.735  0.00  0.00    -0.005 C 
ATOM    101  H   UNL     1     158.816 173.541 182.591  0.00  0.00    +0.059 HD
ATOM    102  H   UNL     1     159.001 171.030 184.368  0.00  0.00    +0.078 HD
BRANCH 100 103
ATOM    103  N   UNL     1     160.752 171.793 183.538  0.00  0.00    -0.284 N 
ATOM    104  C   UNL     1     161.628 172.844 183.768  0.00  0.00    +0.206 C 
ATOM    105  O   UNL     1     162.844 172.827 183.611  0.00  0.00    -0.279 OA
ATOM    106  H   UNL     1     161.135 173.759 184.122  0.00  0.00    +0.126 HD
BRANCH 103 107
ATOM    107  C   UNL     1     161.303 170.541 183.021  0.00  0.00    +0.007 C 
ATOM    108  H   UNL     1     160.617 169.699 183.169  0.00  0.00    +0.043 HD
ATOM    109  H   UNL     1     161.490 170.654 181.948  0.00  0.00    +0.043 HD
ATOM    110  H   UNL     1     162.242 170.319 183.539  0.00  0.00    +0.043 HD
ENDBRANCH 103 107
ENDBRANCH 100 103
ENDBRANCH  93  99
ENDBRANCH  91  93
BRANCH  91 111
ATOM    111  O   UNL     1     156.965 172.232 181.118  0.00  0.00    -0.379 OA
BRANCH 111 112
ATOM    112  C   UNL     1     156.584 173.251 180.205  0.00  0.00    +0.037 C 
ATOM    113  H   UNL     1     155.784 173.839 180.666  0.00  0.00    +0.052 HD
ATOM    114  H   UNL     1     156.202 172.817 179.277  0.00  0.00    +0.052 HD
ATOM    115  H   UNL     1     157.420 173.924 179.992  0.00  0.00    +0.052 HD
ENDBRANCH 111 112
ENDBRANCH  91 111
ENDBRANCH  85  91
ENDBRANCH  83  85
ENDBRANCH  80  83
ENDBRANCH  77  80
ENDBRANCH  71  77
ENDBRANCH  69  71
BRANCH  69 116
ATOM    116  O   UNL     1     155.038 164.833 185.979  0.00  0.00    -0.379 OA
BRANCH 116 117
ATOM    117  C   UNL     1     154.708 163.916 184.947  0.00  0.00    +0.037 C 
ATOM    118  H   UNL     1     155.425 163.984 184.126  0.00  0.00    +0.052 HD
ATOM    119  H   UNL     1     154.752 162.905 185.362  0.00  0.00    +0.052 HD
ATOM    120  H   UNL     1     153.696 164.095 184.578  0.00  0.00    +0.052 HD
ENDBRANCH 116 117
ENDBRANCH  69 116
ENDBRANCH  66  69
ENDBRANCH   8  66
BRANCH  31 121
ATOM    121  O   UNL     1     143.895 166.431 186.941  0.00  0.00    -0.391 OA
ATOM    122  H   UNL     1     143.117 166.465 186.358  0.00  0.00    +0.210 HD
ENDBRANCH  31 121
BRANCH  29 123
ATOM    123  O   UNL     1     141.542 167.815 189.588  0.00  0.00    -0.373 OA
BRANCH 123 124
ATOM    124  C   UNL     1     141.894 169.192 189.685  0.00  0.00    +0.037 C 
ATOM    125  H   UNL     1     141.348 169.742 188.917  0.00  0.00    +0.052 HD
ATOM    126  H   UNL     1     142.966 169.319 189.506  0.00  0.00    +0.052 HD
ATOM    127  H   UNL     1     141.627 169.604 190.663  0.00  0.00    +0.052 HD
ENDBRANCH 123 124
ENDBRANCH  29 123
BRANCH  10 128
ATOM    128  O   UNL     1     155.162 166.849 189.394  0.00  0.00    -0.379 OA
BRANCH 128 129
ATOM    129  C   UNL     1     156.396 166.148 189.440  0.00  0.00    +0.037 C 
ATOM    130  H   UNL     1     156.567 165.570 188.529  0.00  0.00    +0.052 HD
ATOM    131  H   UNL     1     156.354 165.444 190.280  0.00  0.00    +0.052 HD
ATOM    132  H   UNL     1     157.224 166.844 189.613  0.00  0.00    +0.052 HD
ENDBRANCH 128 129
ENDBRANCH  10 128
BRANCH   3 133
ATOM    133  O   UNL     1     147.452 166.860 188.519  0.00  0.00    -0.447 OA
BRANCH 133 134
ATOM    134  C   UNL     1     147.544 167.756 189.515  0.00  0.00    +0.398 C 
ATOM    135  O   UNL     1     147.608 168.970 189.403  0.00  0.00    -0.227 OA
ATOM    136  N   UNL     1     147.524 167.105 190.698  0.00  0.00    -0.295 N 
ATOM    137  H   UNL     1     147.473 166.098 190.696  0.00  0.00    +0.148 HD
ATOM    138  H   UNL     1     147.574 167.625 191.558  0.00  0.00    +0.148 HD
ENDBRANCH 133 134
ENDBRANCH   3 133
TORSDOF 29
ENDMDL
MODEL 2
REMARK VINA RESULT:      -6.5      5.073      9.860
REMARK  Name = Kabiramide C_conf1
REMARK  29 active torsions:
REMARK  status: ('A' for Active; 'I' for Inactive)
REMARK    1  A    between atoms: C_1  and  C_2
REMARK    2  A    between atoms: C_4  and  O_64
REMARK    3  A    between atoms: C_9  and  C_41
REMARK    4  A    between atoms: C_10  and  C_40
REMARK    5  A    between atoms: C_11  and  O_38
REMARK    6  A    between atoms: C_30  and  O_36
REMARK    7  A    between atoms: C_31  and  C_35
REMARK    8  A    between atoms: C_32  and  O_34
REMARK    9  A    between atoms: O_36  and  C_37
REMARK   10  A    between atoms: O_38  and  C_39
REMARK   11  A    between atoms: C_41  and  C_42
REMARK   12  A    between atoms: C_42  and  C_43
REMARK   13  A    between atoms: C_42  and  O_62
REMARK   14  A    between atoms: C_43  and  C_44
REMARK   15  A    between atoms: C_43  and  C_45
REMARK   16  A    between atoms: C_45  and  C_46
REMARK   17  A    between atoms: C_46  and  C_47
REMARK   18  A    between atoms: C_47  and  C_49
REMARK   19  A    between atoms: C_49  and  C_50
REMARK   20  A    between atoms: C_49  and  C_51
REMARK   21  A    between atoms: C_51  and  C_52
REMARK   22  A    between atoms: C_51  and  O_60
REMARK   23  A    between atoms: C_52  and  C_53
REMARK   24  A    between atoms: C_52  and  C_54
REMARK   25  A    between atoms: C_55  and  N_56
REMARK   26  A    between atoms: N_56  and  C_57
REMARK   27  A    between atoms: O_60  and  C_61
REMARK   28  A    between atoms: O_62  and  C_63
REMARK   29  A    between atoms: O_64  and  C_65
REMARK                            x       y       z     vdW  Elec       q    Type
REMARK                         _______ _______ _______ _____ _____    ______ ____
ROOT
ATOM      1  C   UNL     1     149.372 170.623 192.121  0.00  0.00    -0.038 C 
ATOM      2  C   UNL     1     147.837 170.564 191.849  0.00  0.00    -0.012 C 
ATOM      3  C   UNL     1     147.317 170.082 190.467  0.00  0.00    +0.115 C 
ATOM      4  C   UNL     1     147.206 171.180 189.409  0.00  0.00    +0.082 C 
ATOM      5  C   UNL     1     145.953 172.007 189.526  0.00  0.00    +0.311 C 
ATOM      6  O   UNL     1     145.846 172.966 190.280  0.00  0.00    -0.251 OA
ATOM      7  O   UNL     1     145.018 171.594 188.625  0.00  0.00    -0.461 OA
ATOM      8  C   UNL     1     143.937 172.507 188.312  0.00  0.00    +0.110 C 
ATOM      9  C   UNL     1     142.601 172.094 189.003  0.00  0.00    +0.020 C 
ATOM     10  C   UNL     1     141.846 170.851 188.446  0.00  0.00    +0.068 C 
ATOM     11  C   UNL     1     142.663 169.549 188.327  0.00  0.00    -0.008 C 
ATOM     12  C   UNL     1     142.996 168.835 189.601  0.00  0.00    -0.077 C 
ATOM     13  C   UNL     1     142.112 168.443 190.536  0.00  0.00    -0.003 C 
ATOM     14  C   UNL     1     142.546 167.686 191.661  0.00  0.00    +0.220 A 
ATOM     15  N   UNL     1     143.801 167.387 191.959  0.00  0.00    -0.205 NA
ATOM     16  C   UNL     1     143.737 166.574 193.057  0.00  0.00    +0.164 A 
ATOM     17  C   UNL     1     142.436 166.421 193.444  0.00  0.00    +0.125 A 
ATOM     18  O   UNL     1     141.658 167.135 192.578  0.00  0.00    -0.443 OA
ATOM     19  C   UNL     1     144.989 165.937 193.721  0.00  0.00    +0.250 A 
ATOM     20  N   UNL     1     146.207 166.171 193.272  0.00  0.00    -0.203 NA
ATOM     21  C   UNL     1     147.023 165.441 194.092  0.00  0.00    +0.164 A 
ATOM     22  C   UNL     1     146.272 164.770 195.021  0.00  0.00    +0.125 A 
ATOM     23  O   UNL     1     144.958 165.079 194.799  0.00  0.00    -0.442 OA
ATOM     24  C   UNL     1     148.572 165.413 193.953  0.00  0.00    +0.249 A 
ATOM     25  N   UNL     1     149.207 166.104 193.024  0.00  0.00    -0.210 NA
ATOM     26  C   UNL     1     150.537 165.869 193.254  0.00  0.00    +0.109 A 
ATOM     27  C   UNL     1     150.662 165.001 194.313  0.00  0.00    +0.118 A 
ATOM     28  O   UNL     1     149.415 164.702 194.772  0.00  0.00    -0.442 OA
ATOM     29  C   UNL     1     151.596 166.528 192.418  0.00  0.00    +0.108 C 
ATOM     30  C   UNL     1     152.086 167.847 193.106  0.00  0.00    +0.014 C 
ATOM     31  C   UNL     1     151.518 169.129 192.422  0.00  0.00    +0.061 C 
ATOM     32  C   UNL     1     149.981 169.217 192.424  0.00  0.00    -0.024 C 
ATOM     33  H   UNL     1     149.477 171.180 193.067  0.00  0.00    +0.030 HD
ATOM     34  H   UNL     1     147.399 171.547 192.068  0.00  0.00    +0.030 HD
ATOM     35  H   UNL     1     147.410 169.886 192.605  0.00  0.00    +0.030 HD
ATOM     36  H   UNL     1     146.326 169.636 190.629  0.00  0.00    +0.074 HD
ATOM     37  H   UNL     1     147.237 170.752 188.395  0.00  0.00    +0.041 HD
ATOM     38  H   UNL     1     148.062 171.864 189.420  0.00  0.00    +0.041 HD
ATOM     39  H   UNL     1     144.186 173.516 188.665  0.00  0.00    +0.074 HD
ATOM     40  H   UNL     1     141.923 172.945 188.823  0.00  0.00    +0.036 HD
ATOM     41  H   UNL     1     140.980 170.678 189.100  0.00  0.00    +0.060 HD
ATOM     42  H   UNL     1     142.136 168.828 187.690  0.00  0.00    +0.033 HD
ATOM     43  H   UNL     1     143.591 169.732 187.777  0.00  0.00    +0.033 HD
ATOM     44  H   UNL     1     144.051 168.568 189.714  0.00  0.00    +0.057 HD
ATOM     45  H   UNL     1     141.052 168.632 190.438  0.00  0.00    +0.067 HD
ATOM     46  H   UNL     1     141.925 165.889 194.233  0.00  0.00    +0.105 HD
ATOM     47  H   UNL     1     146.478 164.097 195.840  0.00  0.00    +0.105 HD
ATOM     48  H   UNL     1     151.491 164.540 194.826  0.00  0.00    +0.105 HD
ATOM     49  H   UNL     1     151.167 166.769 191.437  0.00  0.00    +0.067 HD
ATOM     50  H   UNL     1     151.725 167.868 194.148  0.00  0.00    +0.035 HD
ATOM     51  H   UNL     1     151.912 170.008 192.950  0.00  0.00    +0.060 HD
ATOM     52  H   UNL     1     149.605 168.920 193.414  0.00  0.00    +0.029 HD
ATOM     53  H   UNL     1     149.591 168.487 191.714  0.00  0.00    +0.029 HD
ENDROOT
BRANCH   1  54
ATOM     54  C   UNL     1     150.120 171.452 191.078  0.00  0.00    -0.062 C 
ATOM     55  H   UNL     1     149.719 171.305 190.068  0.00  0.00    +0.023 HD
ATOM     56  H   UNL     1     151.188 171.196 191.057  0.00  0.00    +0.023 HD
ATOM     57  H   UNL     1     150.070 172.518 191.324  0.00  0.00    +0.023 HD
ENDBRANCH   1  54
BRANCH  30  58
ATOM     58  C   UNL     1     153.620 167.933 193.189  0.00  0.00    -0.057 C 
ATOM     59  H   UNL     1     153.953 168.973 193.156  0.00  0.00    +0.023 HD
ATOM     60  H   UNL     1     154.101 167.394 192.366  0.00  0.00    +0.023 HD
ATOM     61  H   UNL     1     153.976 167.507 194.131  0.00  0.00    +0.023 HD
ENDBRANCH  30  58
BRANCH   9  62
ATOM     62  C   UNL     1     142.766 172.014 190.527  0.00  0.00    -0.057 C 
ATOM     63  H   UNL     1     141.954 171.423 190.970  0.00  0.00    +0.023 HD
ATOM     64  H   UNL     1     143.703 171.516 190.794  0.00  0.00    +0.023 HD
ATOM     65  H   UNL     1     142.758 172.997 191.004  0.00  0.00    +0.023 HD
ENDBRANCH   9  62
BRANCH   8  66
ATOM     66  C   UNL     1     143.828 172.584 186.774  0.00  0.00    +0.011 C 
ATOM     67  H   UNL     1     143.224 173.463 186.514  0.00  0.00    +0.033 HD
ATOM     68  H   UNL     1     143.314 171.684 186.417  0.00  0.00    +0.033 HD
BRANCH  66  69
ATOM     69  C   UNL     1     145.184 172.649 186.044  0.00  0.00    +0.064 C 
ATOM     70  H   UNL     1     145.982 172.641 186.793  0.00  0.00    +0.060 HD
BRANCH  69  71
ATOM     71  C   UNL     1     145.361 171.425 185.103  0.00  0.00    -0.017 C 
ATOM     72  H   UNL     1     145.047 170.529 185.646  0.00  0.00    +0.032 HD
BRANCH  71  73
ATOM     73  C   UNL     1     144.482 171.509 183.845  0.00  0.00    -0.060 C 
ATOM     74  H   UNL     1     143.777 172.340 183.904  0.00  0.00    +0.023 HD
ATOM     75  H   UNL     1     145.079 171.623 182.936  0.00  0.00    +0.023 HD
ATOM     76  H   UNL     1     143.890 170.594 183.741  0.00  0.00    +0.023 HD
ENDBRANCH  71  73
BRANCH  71  77
ATOM     77  C   UNL     1     146.832 171.224 184.657  0.00  0.00    -0.041 C 
ATOM     78  H   UNL     1     147.427 172.096 184.957  0.00  0.00    +0.027 HD
ATOM     79  H   UNL     1     146.863 171.192 183.559  0.00  0.00    +0.027 HD
BRANCH  77  80
ATOM     80  C   UNL     1     147.519 169.964 185.184  0.00  0.00    +0.007 C 
ATOM     81  H   UNL     1     148.577 169.995 184.895  0.00  0.00    +0.034 HD
ATOM     82  H   UNL     1     147.515 169.901 186.275  0.00  0.00    +0.034 HD
BRANCH  80  83
ATOM     83  C   UNL     1     146.900 168.693 184.629  0.00  0.00    +0.139 C 
ATOM     84  O   UNL     1     146.832 168.511 183.413  0.00  0.00    -0.297 OA
BRANCH  83  85
ATOM     85  C   UNL     1     146.310 167.703 185.625  0.00  0.00    +0.041 C 
ATOM     86  H   UNL     1     145.342 167.388 185.214  0.00  0.00    +0.040 HD
BRANCH  85  87
ATOM     87  C   UNL     1     145.961 168.382 186.949  0.00  0.00    -0.053 C 
ATOM     88  H   UNL     1     145.915 167.687 187.789  0.00  0.00    +0.024 HD
ATOM     89  H   UNL     1     146.731 169.119 187.203  0.00  0.00    +0.024 HD
ATOM     90  H   UNL     1     145.006 168.912 186.888  0.00  0.00    +0.024 HD
ENDBRANCH  85  87
BRANCH  85  91
ATOM     91  C   UNL     1     147.214 166.448 185.725  0.00  0.00    +0.074 C 
ATOM     92  H   UNL     1     146.755 165.668 185.098  0.00  0.00    +0.061 HD
BRANCH  91  93
ATOM     93  C   UNL     1     148.675 166.603 185.194  0.00  0.00    +0.003 C 
ATOM     94  H   UNL     1     148.694 167.455 184.501  0.00  0.00    +0.037 HD
BRANCH  93  95
ATOM     95  C   UNL     1     149.082 165.373 184.372  0.00  0.00    -0.057 C 
ATOM     96  H   UNL     1     148.889 164.449 184.929  0.00  0.00    +0.024 HD
ATOM     97  H   UNL     1     148.535 165.316 183.423  0.00  0.00    +0.024 HD
ATOM     98  H   UNL     1     150.154 165.401 184.143  0.00  0.00    +0.024 HD
ENDBRANCH  93  95
BRANCH  93  99
ATOM     99  C   UNL     1     149.714 166.813 186.278  0.00  0.00    -0.065 C 
ATOM    100  C   UNL     1     150.861 166.119 186.318  0.00  0.00    -0.005 C 
ATOM    101  H   UNL     1     149.461 167.565 187.018  0.00  0.00    +0.059 HD
ATOM    102  H   UNL     1     151.054 165.382 185.538  0.00  0.00    +0.078 HD
BRANCH 100 103
ATOM    103  N   UNL     1     151.882 166.229 187.250  0.00  0.00    -0.284 N 
ATOM    104  C   UNL     1     152.092 167.316 188.088  0.00  0.00    +0.206 C 
ATOM    105  O   UNL     1     152.980 167.430 188.925  0.00  0.00    -0.279 OA
ATOM    106  H   UNL     1     151.366 168.128 187.946  0.00  0.00    +0.126 HD
BRANCH 103 107
ATOM    107  C   UNL     1     152.821 165.112 187.327  0.00  0.00    +0.007 C 
ATOM    108  H   UNL     1     152.364 164.169 187.010  0.00  0.00    +0.043 HD
ATOM    109  H   UNL     1     153.675 165.323 186.674  0.00  0.00    +0.043 HD
ATOM    110  H   UNL     1     153.166 165.001 188.360  0.00  0.00    +0.043 HD
ENDBRANCH 103 107
ENDBRANCH 100 103
ENDBRANCH  93  99
ENDBRANCH  91  93
BRANCH  91 111
ATOM    111  O   UNL     1     147.269 165.957 187.076  0.00  0.00    -0.379 OA
BRANCH 111 112
ATOM    112  C   UNL     1     146.763 164.639 187.232  0.00  0.00    +0.037 C 
ATOM    113  H   UNL     1     146.345 164.319 186.273  0.00  0.00    +0.052 HD
ATOM    114  H   UNL     1     145.965 164.616 187.981  0.00  0.00    +0.052 HD
ATOM    115  H   UNL     1     147.558 163.940 187.506  0.00  0.00    +0.052 HD
ENDBRANCH 111 112
ENDBRANCH  91 111
ENDBRANCH  85  91
ENDBRANCH  83  85
ENDBRANCH  80  83
ENDBRANCH  77  80
ENDBRANCH  71  77
ENDBRANCH  69  71
BRANCH  69 116
ATOM    116  O   UNL     1     145.235 173.844 185.257  0.00  0.00    -0.379 OA
BRANCH 116 117
ATOM    117  C   UNL     1     146.082 174.849 185.793  0.00  0.00    +0.037 C 
ATOM    118  H   UNL     1     145.497 175.608 186.317  0.00  0.00    +0.052 HD
ATOM    119  H   UNL     1     146.758 174.376 186.511  0.00  0.00    +0.052 HD
ATOM    120  H   UNL     1     146.680 175.311 185.006  0.00  0.00    +0.052 HD
ENDBRANCH 116 117
ENDBRANCH  69 116
ENDBRANCH  66  69
ENDBRANCH   8  66
BRANCH  31 121
ATOM    121  O   UNL     1     151.979 169.174 191.069  0.00  0.00    -0.391 OA
ATOM    122  H   UNL     1     152.738 168.568 191.004  0.00  0.00    +0.210 HD
ENDBRANCH  31 121
BRANCH  29 123
ATOM    123  O   UNL     1     152.698 165.619 192.213  0.00  0.00    -0.373 OA
BRANCH 123 124
ATOM    124  C   UNL     1     152.579 164.904 190.987  0.00  0.00    +0.037 C 
ATOM    125  H   UNL     1     153.084 163.942 191.099  0.00  0.00    +0.052 HD
ATOM    126  H   UNL     1     153.068 165.459 190.179  0.00  0.00    +0.052 HD
ATOM    127  H   UNL     1     151.532 164.719 190.733  0.00  0.00    +0.052 HD
ENDBRANCH 123 124
ENDBRANCH  29 123
BRANCH  10 128
ATOM    128  O   UNL     1     141.321 171.227 187.153  0.00  0.00    -0.379 OA
BRANCH 128 129
ATOM    129  C   UNL     1     140.893 170.136 186.351  0.00  0.00    +0.037 C 
ATOM    130  H   UNL     1     141.574 169.285 186.428  0.00  0.00    +0.052 HD
ATOM    131  H   UNL     1     140.887 170.467 185.305  0.00  0.00    +0.052 HD
ATOM    132  H   UNL     1     139.875 169.838 186.625  0.00  0.00    +0.052 HD
ENDBRANCH 128 129
ENDBRANCH  10 128
BRANCH   3 133
ATOM    133  O   UNL     1     148.221 169.075 189.976  0.00  0.00    -0.447 OA
BRANCH 133 134
ATOM    134  C   UNL     1     147.851 167.787 190.077  0.00  0.00    +0.398 C 
ATOM    135  O   UNL     1     148.546 166.808 189.862  0.00  0.00    -0.227 OA
ATOM    136  N   UNL     1     146.567 167.728 190.493  0.00  0.00    -0.295 N 
ATOM    137  H   UNL     1     146.067 168.591 190.642  0.00  0.00    +0.148 HD
ATOM    138  H   UNL     1     146.127 166.835 190.633  0.00  0.00    +0.148 HD
ENDBRANCH 133 134
ENDBRANCH   3 133
TORSDOF 29
ENDMDL
MODEL 3
REMARK VINA RESULT:      -6.5      1.324      2.232
REMARK  Name = Kabiramide C_conf1
REMARK  29 active torsions:
REMARK  status: ('A' for Active; 'I' for Inactive)
REMARK    1  A    between atoms: C_1  and  C_2
REMARK    2  A    between atoms: C_4  and  O_64
REMARK    3  A    between atoms: C_9  and  C_41
REMARK    4  A    between atoms: C_10  and  C_40
REMARK    5  A    between atoms: C_11  and  O_38
REMARK    6  A    between atoms: C_30  and  O_36
REMARK    7  A    between atoms: C_31  and  C_35
REMARK    8  A    between atoms: C_32  and  O_34
REMARK    9  A    between atoms: O_36  and  C_37
REMARK   10  A    between atoms: O_38  and  C_39
REMARK   11  A    between atoms: C_41  and  C_42
REMARK   12  A    between atoms: C_42  and  C_43
REMARK   13  A    between atoms: C_42  and  O_62
REMARK   14  A    between atoms: C_43  and  C_44
REMARK   15  A    between atoms: C_43  and  C_45
REMARK   16  A    between atoms: C_45  and  C_46
REMARK   17  A    between atoms: C_46  and  C_47
REMARK   18  A    between atoms: C_47  and  C_49
REMARK   19  A    between atoms: C_49  and  C_50
REMARK   20  A    between atoms: C_49  and  C_51
REMARK   21  A    between atoms: C_51  and  C_52
REMARK   22  A    between atoms: C_51  and  O_60
REMARK   23  A    between atoms: C_52  and  C_53
REMARK   24  A    between atoms: C_52  and  C_54
REMARK   25  A    between atoms: C_55  and  N_56
REMARK   26  A    between atoms: N_56  and  C_57
REMARK   27  A    between atoms: O_60  and  C_61
REMARK   28  A    between atoms: O_62  and  C_63
REMARK   29  A    between atoms: O_64  and  C_65
REMARK                            x       y       z     vdW  Elec       q    Type
REMARK                         _______ _______ _______ _____ _____    ______ ____
ROOT
ATOM      1  C   UNL     1     146.138 164.549 187.769  0.00  0.00    -0.038 C 
ATOM      2  C   UNL     1     147.508 164.557 188.516  0.00  0.00    -0.012 C 
ATOM      3  C   UNL     1     148.374 165.846 188.523  0.00  0.00    +0.115 C 
ATOM      4  C   UNL     1     149.313 165.989 187.325  0.00  0.00    +0.082 C 
ATOM      5  C   UNL     1     150.589 165.201 187.461  0.00  0.00    +0.311 C 
ATOM      6  O   UNL     1     150.684 164.015 187.170  0.00  0.00    -0.251 OA
ATOM      7  O   UNL     1     151.613 166.008 187.856  0.00  0.00    -0.461 OA
ATOM      8  C   UNL     1     152.966 165.531 187.646  0.00  0.00    +0.110 C 
ATOM      9  C   UNL     1     153.625 165.033 188.968  0.00  0.00    +0.020 C 
ATOM     10  C   UNL     1     154.060 166.102 190.014  0.00  0.00    +0.068 C 
ATOM     11  C   UNL     1     152.979 167.111 190.451  0.00  0.00    -0.008 C 
ATOM     12  C   UNL     1     151.896 166.602 191.352  0.00  0.00    -0.077 C 
ATOM     13  C   UNL     1     152.081 165.971 192.526  0.00  0.00    -0.003 C 
ATOM     14  C   UNL     1     150.965 165.620 193.336  0.00  0.00    +0.220 A 
ATOM     15  N   UNL     1     149.691 165.765 193.008  0.00  0.00    -0.205 NA
ATOM     16  C   UNL     1     148.978 165.390 194.114  0.00  0.00    +0.164 A 
ATOM     17  C   UNL     1     149.833 164.978 195.096  0.00  0.00    +0.125 A 
ATOM     18  O   UNL     1     151.106 165.099 194.618  0.00  0.00    -0.443 OA
ATOM     19  C   UNL     1     147.428 165.454 194.192  0.00  0.00    +0.250 A 
ATOM     20  N   UNL     1     146.698 165.852 193.169  0.00  0.00    -0.203 NA
ATOM     21  C   UNL     1     145.408 165.782 193.618  0.00  0.00    +0.164 A 
ATOM     22  C   UNL     1     145.388 165.347 194.917  0.00  0.00    +0.125 A 
ATOM     23  O   UNL     1     146.681 165.128 195.304  0.00  0.00    -0.442 OA
ATOM     24  C   UNL     1     144.175 166.149 192.742  0.00  0.00    +0.249 A 
ATOM     25  N   UNL     1     144.298 166.555 191.492  0.00  0.00    -0.210 NA
ATOM     26  C   UNL     1     143.013 166.725 191.047  0.00  0.00    +0.109 A 
ATOM     27  C   UNL     1     142.142 166.445 192.073  0.00  0.00    +0.118 A 
ATOM     28  O   UNL     1     142.870 166.073 193.163  0.00  0.00    -0.442 OA
ATOM     29  C   UNL     1     142.733 167.145 189.632  0.00  0.00    +0.108 C 
ATOM     30  C   UNL     1     142.487 165.885 188.734  0.00  0.00    +0.014 C 
ATOM     31  C   UNL     1     143.706 165.554 187.817  0.00  0.00    +0.061 C 
ATOM     32  C   UNL     1     145.008 165.259 188.582  0.00  0.00    -0.024 C 
ATOM     33  H   UNL     1     145.832 163.489 187.738  0.00  0.00    +0.030 HD
ATOM     34  H   UNL     1     148.119 163.722 188.148  0.00  0.00    +0.030 HD
ATOM     35  H   UNL     1     147.293 164.311 189.568  0.00  0.00    +0.030 HD
ATOM     36  H   UNL     1     148.968 165.834 189.448  0.00  0.00    +0.074 HD
ATOM     37  H   UNL     1     149.581 167.044 187.161  0.00  0.00    +0.041 HD
ATOM     38  H   UNL     1     148.839 165.700 186.381  0.00  0.00    +0.041 HD
ATOM     39  H   UNL     1     152.958 164.683 186.948  0.00  0.00    +0.074 HD
ATOM     40  H   UNL     1     154.564 164.552 188.645  0.00  0.00    +0.036 HD
ATOM     41  H   UNL     1     154.430 165.562 190.896  0.00  0.00    +0.060 HD
ATOM     42  H   UNL     1     153.441 167.962 190.966  0.00  0.00    +0.033 HD
ATOM     43  H   UNL     1     152.515 167.575 189.576  0.00  0.00    +0.033 HD
ATOM     44  H   UNL     1     150.879 166.840 191.026  0.00  0.00    +0.057 HD
ATOM     45  H   UNL     1     153.069 165.768 192.918  0.00  0.00    +0.067 HD
ATOM     46  H   UNL     1     149.725 164.605 196.104  0.00  0.00    +0.105 HD
ATOM     47  H   UNL     1     144.623 165.147 195.653  0.00  0.00    +0.105 HD
ATOM     48  H   UNL     1     141.070 166.453 192.186  0.00  0.00    +0.105 HD
ATOM     49  H   UNL     1     143.601 167.697 189.253  0.00  0.00    +0.067 HD
ATOM     50  H   UNL     1     142.338 165.003 189.379  0.00  0.00    +0.035 HD
ATOM     51  H   UNL     1     143.456 164.671 187.213  0.00  0.00    +0.060 HD
ATOM     52  H   UNL     1     144.783 164.608 189.439  0.00  0.00    +0.029 HD
ATOM     53  H   UNL     1     145.386 166.194 188.997  0.00  0.00    +0.029 HD
ENDROOT
BRANCH   1  54
ATOM     54  C   UNL     1     146.264 164.978 186.309  0.00  0.00    -0.062 C 
ATOM     55  H   UNL     1     146.710 165.974 186.208  0.00  0.00    +0.023 HD
ATOM     56  H   UNL     1     145.286 164.994 185.812  0.00  0.00    +0.023 HD
ATOM     57  H   UNL     1     146.875 164.262 185.748  0.00  0.00    +0.023 HD
ENDBRANCH   1  54
BRANCH  30  58
ATOM     58  C   UNL     1     141.210 166.008 187.884  0.00  0.00    -0.057 C 
ATOM     59  H   UNL     1     140.644 166.900 188.161  0.00  0.00    +0.023 HD
ATOM     60  H   UNL     1     140.557 165.138 188.007  0.00  0.00    +0.023 HD
ATOM     61  H   UNL     1     141.464 166.098 186.825  0.00  0.00    +0.023 HD
ENDBRANCH  30  58
BRANCH   9  62
ATOM     62  C   UNL     1     152.794 163.918 189.618  0.00  0.00    -0.057 C 
ATOM     63  H   UNL     1     153.398 163.367 190.350  0.00  0.00    +0.023 HD
ATOM     64  H   UNL     1     151.938 164.332 190.160  0.00  0.00    +0.023 HD
ATOM     65  H   UNL     1     152.416 163.196 188.890  0.00  0.00    +0.023 HD
ENDBRANCH   9  62
BRANCH   8  66
ATOM     66  C   UNL     1     153.755 166.667 186.961  0.00  0.00    +0.011 C 
ATOM     67  H   UNL     1     154.463 167.084 187.689  0.00  0.00    +0.033 HD
ATOM     68  H   UNL     1     153.048 167.452 186.667  0.00  0.00    +0.033 HD
BRANCH  66  69
ATOM     69  C   UNL     1     154.510 166.237 185.688  0.00  0.00    +0.064 C 
ATOM     70  H   UNL     1     154.212 166.897 184.868  0.00  0.00    +0.060 HD
BRANCH  69  71
ATOM     71  C   UNL     1     156.047 166.351 185.895  0.00  0.00    -0.017 C 
ATOM     72  H   UNL     1     156.226 166.849 186.852  0.00  0.00    +0.032 HD
BRANCH  71  73
ATOM     73  C   UNL     1     156.740 164.981 185.974  0.00  0.00    -0.060 C 
ATOM     74  H   UNL     1     157.825 165.083 186.015  0.00  0.00    +0.023 HD
ATOM     75  H   UNL     1     156.412 164.408 186.845  0.00  0.00    +0.023 HD
ATOM     76  H   UNL     1     156.507 164.392 185.081  0.00  0.00    +0.023 HD
ENDBRANCH  71  73
BRANCH  71  77
ATOM     77  C   UNL     1     156.738 167.183 184.785  0.00  0.00    -0.041 C 
ATOM     78  H   UNL     1     156.489 166.760 183.804  0.00  0.00    +0.027 HD
ATOM     79  H   UNL     1     157.826 167.081 184.899  0.00  0.00    +0.027 HD
BRANCH  77  80
ATOM     80  C   UNL     1     156.405 168.675 184.769  0.00  0.00    +0.007 C 
ATOM     81  H   UNL     1     155.328 168.795 184.943  0.00  0.00    +0.034 HD
ATOM     82  H   UNL     1     156.896 169.230 185.572  0.00  0.00    +0.034 HD
BRANCH  80  83
ATOM     83  C   UNL     1     156.761 169.332 183.447  0.00  0.00    +0.139 C 
ATOM     84  O   UNL     1     157.445 168.733 182.617  0.00  0.00    -0.297 OA
BRANCH  83  85
ATOM     85  C   UNL     1     156.305 170.768 183.228  0.00  0.00    +0.041 C 
ATOM     86  H   UNL     1     155.616 171.005 184.049  0.00  0.00    +0.040 HD
BRANCH  85  87
ATOM     87  C   UNL     1     155.454 170.899 181.965  0.00  0.00    -0.053 C 
ATOM     88  H   UNL     1     154.426 170.558 182.102  0.00  0.00    +0.024 HD
ATOM     89  H   UNL     1     155.390 171.951 181.667  0.00  0.00    +0.024 HD
ATOM     90  H   UNL     1     155.891 170.347 181.129  0.00  0.00    +0.024 HD
ENDBRANCH  85  87
BRANCH  85  91
ATOM     91  C   UNL     1     157.516 171.731 183.331  0.00  0.00    +0.074 C 
ATOM     92  H   UNL     1     157.943 171.822 182.320  0.00  0.00    +0.061 HD
BRANCH  91  93
ATOM     93  C   UNL     1     157.203 173.191 183.786  0.00  0.00    +0.003 C 
ATOM     94  H   UNL     1     157.913 173.458 184.581  0.00  0.00    +0.037 HD
BRANCH  93  95
ATOM     95  C   UNL     1     155.805 173.270 184.417  0.00  0.00    -0.057 C 
ATOM     96  H   UNL     1     155.667 172.478 185.162  0.00  0.00    +0.024 HD
ATOM     97  H   UNL     1     155.634 174.233 184.912  0.00  0.00    +0.024 HD
ATOM     98  H   UNL     1     155.031 173.141 183.651  0.00  0.00    +0.024 HD
ENDBRANCH  93  95
BRANCH  93  99
ATOM     99  C   UNL     1     157.280 174.222 182.677  0.00  0.00    -0.065 C 
ATOM    100  C   UNL     1     156.255 174.461 181.845  0.00  0.00    -0.005 C 
ATOM    101  H   UNL     1     158.224 174.751 182.605  0.00  0.00    +0.059 HD
ATOM    102  H   UNL     1     155.331 173.895 181.977  0.00  0.00    +0.078 HD
BRANCH 100 103
ATOM    103  N   UNL     1     156.208 175.377 180.806  0.00  0.00    -0.284 N 
ATOM    104  C   UNL     1     155.052 175.942 180.284  0.00  0.00    +0.206 C 
ATOM    105  O   UNL     1     154.988 176.761 179.374  0.00  0.00    -0.279 OA
ATOM    106  H   UNL     1     154.131 175.586 180.766  0.00  0.00    +0.126 HD
BRANCH 103 107
ATOM    107  C   UNL     1     157.486 175.750 180.203  0.00  0.00    +0.007 C 
ATOM    108  H   UNL     1     157.727 176.805 180.373  0.00  0.00    +0.043 HD
ATOM    109  H   UNL     1     158.278 175.136 180.646  0.00  0.00    +0.043 HD
ATOM    110  H   UNL     1     157.442 175.573 179.124  0.00  0.00    +0.043 HD
ENDBRANCH 103 107
ENDBRANCH 100 103
ENDBRANCH  93  99
ENDBRANCH  91  93
BRANCH  91 111
ATOM    111  O   UNL     1     158.533 171.191 184.195  0.00  0.00    -0.379 OA
BRANCH 111 112
ATOM    112  C   UNL     1     159.848 171.624 183.879  0.00  0.00    +0.037 C 
ATOM    113  H   UNL     1     160.493 171.406 184.735  0.00  0.00    +0.052 HD
ATOM    114  H   UNL     1     159.868 172.703 183.699  0.00  0.00    +0.052 HD
ATOM    115  H   UNL     1     160.243 171.089 183.011  0.00  0.00    +0.052 HD
ENDBRANCH 111 112
ENDBRANCH  91 111
ENDBRANCH  85  91
ENDBRANCH  83  85
ENDBRANCH  80  83
ENDBRANCH  77  80
ENDBRANCH  71  77
ENDBRANCH  69  71
BRANCH  69 116
ATOM    116  O   UNL     1     154.187 164.875 185.390  0.00  0.00    -0.379 OA
BRANCH 116 117
ATOM    117  C   UNL     1     153.544 164.699 184.137  0.00  0.00    +0.037 C 
ATOM    118  H   UNL     1     153.607 165.611 183.539  0.00  0.00    +0.052 HD
ATOM    119  H   UNL     1     154.058 163.898 183.599  0.00  0.00    +0.052 HD
ATOM    120  H   UNL     1     152.500 164.411 184.275  0.00  0.00    +0.052 HD
ENDBRANCH 116 117
ENDBRANCH  69 116
ENDBRANCH  66  69
ENDBRANCH   8  66
BRANCH  31 121
ATOM    121  O   UNL     1     143.932 166.654 186.933  0.00  0.00    -0.391 OA
ATOM    122  H   UNL     1     143.681 167.464 187.411  0.00  0.00    +0.210 HD
ENDBRANCH  31 121
BRANCH  29 123
ATOM    123  O   UNL     1     141.591 168.026 189.597  0.00  0.00    -0.373 OA
BRANCH 123 124
ATOM    124  C   UNL     1     141.967 169.393 189.749  0.00  0.00    +0.037 C 
ATOM    125  H   UNL     1     141.673 169.722 190.747  0.00  0.00    +0.052 HD
ATOM    126  H   UNL     1     141.444 170.010 189.012  0.00  0.00    +0.052 HD
ATOM    127  H   UNL     1     143.048 169.522 189.645  0.00  0.00    +0.052 HD
ENDBRANCH 123 124
ENDBRANCH  29 123
BRANCH  10 128
ATOM    128  O   UNL     1     155.191 166.801 189.450  0.00  0.00    -0.379 OA
BRANCH 128 129
ATOM    129  C   UNL     1     156.431 166.122 189.585  0.00  0.00    +0.037 C 
ATOM    130  H   UNL     1     156.296 165.108 189.969  0.00  0.00    +0.052 HD
ATOM    131  H   UNL     1     157.043 166.676 190.308  0.00  0.00    +0.052 HD
ATOM    132  H   UNL     1     156.961 166.102 188.627  0.00  0.00    +0.052 HD
ENDBRANCH 128 129
ENDBRANCH  10 128
BRANCH   3 133
ATOM    133  O   UNL     1     147.487 166.980 188.537  0.00  0.00    -0.447 OA
BRANCH 133 134
ATOM    134  C   UNL     1     147.586 167.850 189.557  0.00  0.00    +0.398 C 
ATOM    135  O   UNL     1     147.658 169.065 189.476  0.00  0.00    -0.227 OA
ATOM    136  N   UNL     1     147.565 167.167 190.722  0.00  0.00    -0.295 N 
ATOM    137  H   UNL     1     147.508 166.161 190.693  0.00  0.00    +0.148 HD
ATOM    138  H   UNL     1     147.620 167.665 191.595  0.00  0.00    +0.148 HD
ENDBRANCH 133 134
ENDBRANCH   3 133
TORSDOF 29
ENDMDL
MODEL 4
REMARK VINA RESULT:      -6.3      3.466      7.308
REMARK  Name = Kabiramide C_conf1
REMARK  29 active torsions:
REMARK  status: ('A' for Active; 'I' for Inactive)
REMARK    1  A    between atoms: C_1  and  C_2
REMARK    2  A    between atoms: C_4  and  O_64
REMARK    3  A    between atoms: C_9  and  C_41
REMARK    4  A    between atoms: C_10  and  C_40
REMARK    5  A    between atoms: C_11  and  O_38
REMARK    6  A    between atoms: C_30  and  O_36
REMARK    7  A    between atoms: C_31  and  C_35
REMARK    8  A    between atoms: C_32  and  O_34
REMARK    9  A    between atoms: O_36  and  C_37
REMARK   10  A    between atoms: O_38  and  C_39
REMARK   11  A    between atoms: C_41  and  C_42
REMARK   12  A    between atoms: C_42  and  C_43
REMARK   13  A    between atoms: C_42  and  O_62
REMARK   14  A    between atoms: C_43  and  C_44
REMARK   15  A    between atoms: C_43  and  C_45
REMARK   16  A    between atoms: C_45  and  C_46
REMARK   17  A    between atoms: C_46  and  C_47
REMARK   18  A    between atoms: C_47  and  C_49
REMARK   19  A    between atoms: C_49  and  C_50
REMARK   20  A    between atoms: C_49  and  C_51
REMARK   21  A    between atoms: C_51  and  C_52
REMARK   22  A    between atoms: C_51  and  O_60
REMARK   23  A    between atoms: C_52  and  C_53
REMARK   24  A    between atoms: C_52  and  C_54
REMARK   25  A    between atoms: C_55  and  N_56
REMARK   26  A    between atoms: N_56  and  C_57
REMARK   27  A    between atoms: O_60  and  C_61
REMARK   28  A    between atoms: O_62  and  C_63
REMARK   29  A    between atoms: O_64  and  C_65
REMARK                            x       y       z     vdW  Elec       q    Type
REMARK                         _______ _______ _______ _____ _____    ______ ____
ROOT
ATOM      1  C   UNL     1     146.139 164.498 187.716  0.00  0.00    -0.038 C 
ATOM      2  C   UNL     1     147.506 164.516 188.468  0.00  0.00    -0.012 C 
ATOM      3  C   UNL     1     148.366 165.810 188.471  0.00  0.00    +0.115 C 
ATOM      4  C   UNL     1     149.309 165.951 187.276  0.00  0.00    +0.082 C 
ATOM      5  C   UNL     1     150.588 165.170 187.421  0.00  0.00    +0.311 C 
ATOM      6  O   UNL     1     150.690 163.983 187.136  0.00  0.00    -0.251 OA
ATOM      7  O   UNL     1     151.607 165.984 187.816  0.00  0.00    -0.461 OA
ATOM      8  C   UNL     1     152.962 165.512 187.613  0.00  0.00    +0.110 C 
ATOM      9  C   UNL     1     153.619 165.025 188.941  0.00  0.00    +0.020 C 
ATOM     10  C   UNL     1     154.044 166.102 189.982  0.00  0.00    +0.068 C 
ATOM     11  C   UNL     1     152.958 167.108 190.410  0.00  0.00    -0.008 C 
ATOM     12  C   UNL     1     151.873 166.598 191.309  0.00  0.00    -0.077 C 
ATOM     13  C   UNL     1     152.057 165.975 192.487  0.00  0.00    -0.003 C 
ATOM     14  C   UNL     1     150.939 165.623 193.295  0.00  0.00    +0.220 A 
ATOM     15  N   UNL     1     149.666 165.759 192.961  0.00  0.00    -0.205 NA
ATOM     16  C   UNL     1     148.950 165.387 194.067  0.00  0.00    +0.164 A 
ATOM     17  C   UNL     1     149.804 164.984 195.054  0.00  0.00    +0.125 A 
ATOM     18  O   UNL     1     151.078 165.109 194.580  0.00  0.00    -0.443 OA
ATOM     19  C   UNL     1     147.399 165.443 194.138  0.00  0.00    +0.250 A 
ATOM     20  N   UNL     1     146.671 165.833 193.110  0.00  0.00    -0.203 NA
ATOM     21  C   UNL     1     145.380 165.759 193.555  0.00  0.00    +0.164 A 
ATOM     22  C   UNL     1     145.358 165.331 194.856  0.00  0.00    +0.125 A 
ATOM     23  O   UNL     1     146.650 165.120 195.249  0.00  0.00    -0.442 OA
ATOM     24  C   UNL     1     144.149 166.115 192.672  0.00  0.00    +0.249 A 
ATOM     25  N   UNL     1     144.275 166.515 191.420  0.00  0.00    -0.210 NA
ATOM     26  C   UNL     1     142.991 166.677 190.969  0.00  0.00    +0.109 A 
ATOM     27  C   UNL     1     142.117 166.397 191.993  0.00  0.00    +0.118 A 
ATOM     28  O   UNL     1     142.843 166.035 193.088  0.00  0.00    -0.442 OA
ATOM     29  C   UNL     1     142.714 167.087 189.551  0.00  0.00    +0.108 C 
ATOM     30  C   UNL     1     142.478 165.822 188.658  0.00  0.00    +0.014 C 
ATOM     31  C   UNL     1     143.702 165.491 187.749  0.00  0.00    +0.061 C 
ATOM     32  C   UNL     1     145.003 165.207 188.520  0.00  0.00    -0.024 C 
ATOM     33  H   UNL     1     145.839 163.436 187.689  0.00  0.00    +0.030 HD
ATOM     34  H   UNL     1     148.123 163.682 188.106  0.00  0.00    +0.030 HD
ATOM     35  H   UNL     1     147.288 164.276 189.520  0.00  0.00    +0.030 HD
ATOM     36  H   UNL     1     148.956 165.806 189.398  0.00  0.00    +0.074 HD
ATOM     37  H   UNL     1     149.573 167.006 187.107  0.00  0.00    +0.041 HD
ATOM     38  H   UNL     1     148.840 165.654 186.331  0.00  0.00    +0.041 HD
ATOM     39  H   UNL     1     152.962 164.661 186.920  0.00  0.00    +0.074 HD
ATOM     40  H   UNL     1     154.561 164.546 188.624  0.00  0.00    +0.036 HD
ATOM     41  H   UNL     1     154.414 165.568 190.869  0.00  0.00    +0.060 HD
ATOM     42  H   UNL     1     153.414 167.964 190.922  0.00  0.00    +0.033 HD
ATOM     43  H   UNL     1     152.494 167.564 189.530  0.00  0.00    +0.033 HD
ATOM     44  H   UNL     1     150.856 166.829 190.978  0.00  0.00    +0.057 HD
ATOM     45  H   UNL     1     153.044 165.778 192.884  0.00  0.00    +0.067 HD
ATOM     46  H   UNL     1     149.693 164.616 196.064  0.00  0.00    +0.105 HD
ATOM     47  H   UNL     1     144.591 165.132 195.590  0.00  0.00    +0.105 HD
ATOM     48  H   UNL     1     141.045 166.401 192.102  0.00  0.00    +0.105 HD
ATOM     49  H   UNL     1     143.582 167.641 189.172  0.00  0.00    +0.067 HD
ATOM     50  H   UNL     1     142.331 164.942 189.308  0.00  0.00    +0.035 HD
ATOM     51  H   UNL     1     143.459 164.604 187.149  0.00  0.00    +0.060 HD
ATOM     52  H   UNL     1     144.777 164.559 189.380  0.00  0.00    +0.029 HD
ATOM     53  H   UNL     1     145.375 166.146 188.931  0.00  0.00    +0.029 HD
ENDROOT
BRANCH   1  54
ATOM     54  C   UNL     1     146.269 164.920 186.253  0.00  0.00    -0.062 C 
ATOM     55  H   UNL     1     145.972 165.962 186.095  0.00  0.00    +0.023 HD
ATOM     56  H   UNL     1     145.651 164.290 185.601  0.00  0.00    +0.023 HD
ATOM     57  H   UNL     1     147.301 164.793 185.905  0.00  0.00    +0.023 HD
ENDBRANCH   1  54
BRANCH  30  58
ATOM     58  C   UNL     1     141.204 165.933 187.803  0.00  0.00    -0.057 C 
ATOM     59  H   UNL     1     140.375 166.332 188.392  0.00  0.00    +0.023 HD
ATOM     60  H   UNL     1     140.900 164.962 187.400  0.00  0.00    +0.023 HD
ATOM     61  H   UNL     1     141.366 166.617 186.965  0.00  0.00    +0.023 HD
ENDBRANCH  30  58
BRANCH   9  62
ATOM     62  C   UNL     1     152.791 163.909 189.593  0.00  0.00    -0.057 C 
ATOM     63  H   UNL     1     153.367 163.418 190.388  0.00  0.00    +0.023 HD
ATOM     64  H   UNL     1     151.887 164.314 190.060  0.00  0.00    +0.023 HD
ATOM     65  H   UNL     1     152.487 163.139 188.881  0.00  0.00    +0.023 HD
ENDBRANCH   9  62
BRANCH   8  66
ATOM     66  C   UNL     1     153.749 166.648 186.926  0.00  0.00    +0.011 C 
ATOM     67  H   UNL     1     154.091 167.349 187.698  0.00  0.00    +0.033 HD
ATOM     68  H   UNL     1     153.071 167.177 186.244  0.00  0.00    +0.033 HD
BRANCH  66  69
ATOM     69  C   UNL     1     154.951 166.171 186.087  0.00  0.00    +0.064 C 
ATOM     70  H   UNL     1     155.766 165.905 186.767  0.00  0.00    +0.060 HD
BRANCH  69  71
ATOM     71  C   UNL     1     154.570 164.922 185.242  0.00  0.00    -0.017 C 
ATOM     72  H   UNL     1     153.657 164.492 185.662  0.00  0.00    +0.032 HD
BRANCH  71  73
ATOM     73  C   UNL     1     154.261 165.266 183.776  0.00  0.00    -0.060 C 
ATOM     74  H   UNL     1     154.673 166.238 183.498  0.00  0.00    +0.023 HD
ATOM     75  H   UNL     1     154.654 164.513 183.088  0.00  0.00    +0.023 HD
ATOM     76  H   UNL     1     153.179 165.323 183.625  0.00  0.00    +0.023 HD
ENDBRANCH  71  73
BRANCH  71  77
ATOM     77  C   UNL     1     155.670 163.829 185.264  0.00  0.00    -0.041 C 
ATOM     78  H   UNL     1     156.496 164.130 184.608  0.00  0.00    +0.027 HD
ATOM     79  H   UNL     1     155.253 162.907 184.836  0.00  0.00    +0.027 HD
BRANCH  77  80
ATOM     80  C   UNL     1     156.242 163.492 186.641  0.00  0.00    +0.007 C 
ATOM     81  H   UNL     1     157.336 163.457 186.566  0.00  0.00    +0.034 HD
ATOM     82  H   UNL     1     156.024 164.256 187.392  0.00  0.00    +0.034 HD
BRANCH  80  83
ATOM     83  C   UNL     1     155.747 162.154 187.162  0.00  0.00    +0.139 C 
ATOM     84  O   UNL     1     155.246 161.333 186.393  0.00  0.00    -0.297 OA
BRANCH  83  85
ATOM     85  C   UNL     1     155.826 161.908 188.662  0.00  0.00    +0.041 C 
ATOM     86  H   UNL     1     154.935 162.374 189.102  0.00  0.00    +0.040 HD
BRANCH  85  87
ATOM     87  C   UNL     1     157.000 162.658 189.291  0.00  0.00    -0.053 C 
ATOM     88  H   UNL     1     157.834 162.807 188.603  0.00  0.00    +0.024 HD
ATOM     89  H   UNL     1     156.679 163.657 189.604  0.00  0.00    +0.024 HD
ATOM     90  H   UNL     1     157.376 162.141 190.178  0.00  0.00    +0.024 HD
ENDBRANCH  85  87
BRANCH  85  91
ATOM     91  C   UNL     1     155.759 160.387 188.954  0.00  0.00    +0.074 C 
ATOM     92  H   UNL     1     155.605 159.880 187.989  0.00  0.00    +0.061 HD
BRANCH  91  93
ATOM     93  C   UNL     1     157.044 159.742 189.564  0.00  0.00    +0.003 C 
ATOM     94  H   UNL     1     157.621 160.537 190.056  0.00  0.00    +0.037 HD
BRANCH  93  95
ATOM     95  C   UNL     1     157.945 159.183 188.454  0.00  0.00    -0.057 C 
ATOM     96  H   UNL     1     158.886 158.805 188.867  0.00  0.00    +0.024 HD
ATOM     97  H   UNL     1     157.461 158.363 187.909  0.00  0.00    +0.024 HD
ATOM     98  H   UNL     1     158.194 159.969 187.730  0.00  0.00    +0.024 HD
ENDBRANCH  93  95
BRANCH  93  99
ATOM     99  C   UNL     1     156.773 158.629 190.558  0.00  0.00    -0.065 C 
ATOM    100  C   UNL     1     157.735 157.801 190.991  0.00  0.00    -0.005 C 
ATOM    101  H   UNL     1     155.743 158.552 190.892  0.00  0.00    +0.059 HD
ATOM    102  H   UNL     1     158.751 157.939 190.617  0.00  0.00    +0.078 HD
BRANCH 100 103
ATOM    103  N   UNL     1     157.608 156.760 191.897  0.00  0.00    -0.284 N 
ATOM    104  C   UNL     1     156.861 155.607 191.697  0.00  0.00    +0.206 C 
ATOM    105  O   UNL     1     156.743 154.670 192.479  0.00  0.00    -0.279 OA
ATOM    106  H   UNL     1     156.342 155.581 190.729  0.00  0.00    +0.126 HD
BRANCH 103 107
ATOM    107  C   UNL     1     158.302 156.914 193.174  0.00  0.00    +0.007 C 
ATOM    108  H   UNL     1     157.683 156.593 194.019  0.00  0.00    +0.043 HD
ATOM    109  H   UNL     1     159.212 156.306 193.157  0.00  0.00    +0.043 HD
ATOM    110  H   UNL     1     158.565 157.968 193.317  0.00  0.00    +0.043 HD
ENDBRANCH 103 107
ENDBRANCH 100 103
ENDBRANCH  93  99
ENDBRANCH  91  93
BRANCH  91 111
ATOM    111  O   UNL     1     154.642 160.073 189.805  0.00  0.00    -0.379 OA
BRANCH 111 112
ATOM    112  C   UNL     1     153.415 159.908 189.109  0.00  0.00    +0.037 C 
ATOM    113  H   UNL     1     153.542 159.099 188.382  0.00  0.00    +0.052 HD
ATOM    114  H   UNL     1     153.151 160.820 188.566  0.00  0.00    +0.052 HD
ATOM    115  H   UNL     1     152.607 159.627 189.791  0.00  0.00    +0.052 HD
ENDBRANCH 111 112
ENDBRANCH  91 111
ENDBRANCH  85  91
ENDBRANCH  83  85
ENDBRANCH  80  83
ENDBRANCH  77  80
ENDBRANCH  71  77
ENDBRANCH  69  71
BRANCH  69 116
ATOM    116  O   UNL     1     155.348 167.221 185.199  0.00  0.00    -0.379 OA
BRANCH 116 117
ATOM    117  C   UNL     1     156.745 167.477 185.203  0.00  0.00    +0.037 C 
ATOM    118  H   UNL     1     157.111 167.636 184.187  0.00  0.00    +0.052 HD
ATOM    119  H   UNL     1     156.922 168.388 185.781  0.00  0.00    +0.052 HD
ATOM    120  H   UNL     1     157.287 166.655 185.674  0.00  0.00    +0.052 HD
ENDBRANCH 116 117
ENDBRANCH  69 116
ENDBRANCH  66  69
ENDBRANCH   8  66
BRANCH  31 121
ATOM    121  O   UNL     1     143.926 166.588 186.859  0.00  0.00    -0.391 OA
ATOM    122  H   UNL     1     144.209 167.345 187.401  0.00  0.00    +0.210 HD
ENDBRANCH  31 121
BRANCH  29 123
ATOM    123  O   UNL     1     141.568 167.963 189.507  0.00  0.00    -0.373 OA
BRANCH 123 124
ATOM    124  C   UNL     1     141.938 169.333 189.644  0.00  0.00    +0.037 C 
ATOM    125  H   UNL     1     141.046 169.945 189.505  0.00  0.00    +0.052 HD
ATOM    126  H   UNL     1     142.667 169.603 188.873  0.00  0.00    +0.052 HD
ATOM    127  H   UNL     1     142.350 169.537 190.636  0.00  0.00    +0.052 HD
ENDBRANCH 123 124
ENDBRANCH  29 123
BRANCH  10 128
ATOM    128  O   UNL     1     155.174 166.803 189.419  0.00  0.00    -0.379 OA
BRANCH 128 129
ATOM    129  C   UNL     1     156.418 166.133 189.566  0.00  0.00    +0.037 C 
ATOM    130  H   UNL     1     156.314 165.212 190.145  0.00  0.00    +0.052 HD
ATOM    131  H   UNL     1     157.098 166.797 190.113  0.00  0.00    +0.052 HD
ATOM    132  H   UNL     1     156.856 165.921 188.584  0.00  0.00    +0.052 HD
ENDBRANCH 128 129
ENDBRANCH  10 128
BRANCH   3 133
ATOM    133  O   UNL     1     147.474 166.940 188.475  0.00  0.00    -0.447 OA
BRANCH 133 134
ATOM    134  C   UNL     1     147.648 167.881 189.418  0.00  0.00    +0.398 C 
ATOM    135  O   UNL     1     147.568 169.089 189.268  0.00  0.00    -0.227 OA
ATOM    136  N   UNL     1     147.902 167.279 190.600  0.00  0.00    -0.295 N 
ATOM    137  H   UNL     1     147.955 166.273 190.630  0.00  0.00    +0.148 HD
ATOM    138  H   UNL     1     148.050 167.837 191.425  0.00  0.00    +0.148 HD
ENDBRANCH 133 134
ENDBRANCH   3 133
TORSDOF 29
ENDMDL
MODEL 5
REMARK VINA RESULT:      -6.3      5.638     11.772
REMARK  Name = Kabiramide C_conf1
REMARK  29 active torsions:
REMARK  status: ('A' for Active; 'I' for Inactive)
REMARK    1  A    between atoms: C_1  and  C_2
REMARK    2  A    between atoms: C_4  and  O_64
REMARK    3  A    between atoms: C_9  and  C_41
REMARK    4  A    between atoms: C_10  and  C_40
REMARK    5  A    between atoms: C_11  and  O_38
REMARK    6  A    between atoms: C_30  and  O_36
REMARK    7  A    between atoms: C_31  and  C_35
REMARK    8  A    between atoms: C_32  and  O_34
REMARK    9  A    between atoms: O_36  and  C_37
REMARK   10  A    between atoms: O_38  and  C_39
REMARK   11  A    between atoms: C_41  and  C_42
REMARK   12  A    between atoms: C_42  and  C_43
REMARK   13  A    between atoms: C_42  and  O_62
REMARK   14  A    between atoms: C_43  and  C_44
REMARK   15  A    between atoms: C_43  and  C_45
REMARK   16  A    between atoms: C_45  and  C_46
REMARK   17  A    between atoms: C_46  and  C_47
REMARK   18  A    between atoms: C_47  and  C_49
REMARK   19  A    between atoms: C_49  and  C_50
REMARK   20  A    between atoms: C_49  and  C_51
REMARK   21  A    between atoms: C_51  and  C_52
REMARK   22  A    between atoms: C_51  and  O_60
REMARK   23  A    between atoms: C_52  and  C_53
REMARK   24  A    between atoms: C_52  and  C_54
REMARK   25  A    between atoms: C_55  and  N_56
REMARK   26  A    between atoms: N_56  and  C_57
REMARK   27  A    between atoms: O_60  and  C_61
REMARK   28  A    between atoms: O_62  and  C_63
REMARK   29  A    between atoms: O_64  and  C_65
REMARK                            x       y       z     vdW  Elec       q    Type
REMARK                         _______ _______ _______ _____ _____    ______ ____
ROOT
ATOM      1  C   UNL     1     150.603 166.847 187.002  0.00  0.00    -0.038 C 
ATOM      2  C   UNL     1     149.260 167.479 186.523  0.00  0.00    -0.012 C 
ATOM      3  C   UNL     1     147.920 166.741 186.797  0.00  0.00    +0.115 C 
ATOM      4  C   UNL     1     147.527 165.718 185.732  0.00  0.00    +0.082 C 
ATOM      5  C   UNL     1     146.874 166.329 184.520  0.00  0.00    +0.311 C 
ATOM      6  O   UNL     1     147.503 166.801 183.582  0.00  0.00    -0.251 OA
ATOM      7  O   UNL     1     145.520 166.194 184.584  0.00  0.00    -0.461 OA
ATOM      8  C   UNL     1     144.770 166.344 183.352  0.00  0.00    +0.110 C 
ATOM      9  C   UNL     1     144.042 167.721 183.271  0.00  0.00    +0.020 C 
ATOM     10  C   UNL     1     142.792 167.938 184.175  0.00  0.00    +0.068 C 
ATOM     11  C   UNL     1     142.977 167.662 185.680  0.00  0.00    -0.008 C 
ATOM     12  C   UNL     1     143.775 168.660 186.462  0.00  0.00    -0.077 C 
ATOM     13  C   UNL     1     143.539 169.983 186.519  0.00  0.00    -0.003 C 
ATOM     14  C   UNL     1     144.314 170.814 187.378  0.00  0.00    +0.220 A 
ATOM     15  N   UNL     1     145.359 170.430 188.094  0.00  0.00    -0.205 NA
ATOM     16  C   UNL     1     145.724 171.524 188.831  0.00  0.00    +0.164 A 
ATOM     17  C   UNL     1     144.917 172.581 188.520  0.00  0.00    +0.125 A 
ATOM     18  O   UNL     1     144.019 172.158 187.581  0.00  0.00    -0.443 OA
ATOM     19  C   UNL     1     146.885 171.508 189.863  0.00  0.00    +0.250 A 
ATOM     20  N   UNL     1     147.615 170.429 190.069  0.00  0.00    -0.203 NA
ATOM     21  C   UNL     1     148.510 170.798 191.035  0.00  0.00    +0.164 A 
ATOM     22  C   UNL     1     148.293 172.100 191.401  0.00  0.00    +0.125 A 
ATOM     23  O   UNL     1     147.251 172.576 190.654  0.00  0.00    -0.442 OA
ATOM     24  C   UNL     1     149.600 169.843 191.602  0.00  0.00    +0.249 A 
ATOM     25  N   UNL     1     149.734 168.600 191.178  0.00  0.00    -0.210 NA
ATOM     26  C   UNL     1     150.815 168.107 191.861  0.00  0.00    +0.109 A 
ATOM     27  C   UNL     1     151.285 169.076 192.716  0.00  0.00    +0.118 A 
ATOM     28  O   UNL     1     150.519 170.192 192.561  0.00  0.00    -0.442 OA
ATOM     29  C   UNL     1     151.316 166.713 191.615  0.00  0.00    +0.108 C 
ATOM     30  C   UNL     1     152.463 166.732 190.548  0.00  0.00    +0.014 C 
ATOM     31  C   UNL     1     151.991 166.224 189.149  0.00  0.00    +0.061 C 
ATOM     32  C   UNL     1     150.848 167.049 188.532  0.00  0.00    -0.024 C 
ATOM     33  H   UNL     1     151.393 167.443 186.514  0.00  0.00    +0.030 HD
ATOM     34  H   UNL     1     149.331 167.695 185.448  0.00  0.00    +0.030 HD
ATOM     35  H   UNL     1     149.186 168.465 187.008  0.00  0.00    +0.030 HD
ATOM     36  H   UNL     1     147.136 167.507 186.870  0.00  0.00    +0.074 HD
ATOM     37  H   UNL     1     146.837 164.967 186.147  0.00  0.00    +0.041 HD
ATOM     38  H   UNL     1     148.377 165.118 185.389  0.00  0.00    +0.041 HD
ATOM     39  H   UNL     1     145.451 166.286 182.492  0.00  0.00    +0.074 HD
ATOM     40  H   UNL     1     143.660 167.772 182.238  0.00  0.00    +0.036 HD
ATOM     41  H   UNL     1     142.467 168.978 184.034  0.00  0.00    +0.060 HD
ATOM     42  H   UNL     1     142.002 167.582 186.174  0.00  0.00    +0.033 HD
ATOM     43  H   UNL     1     143.414 166.670 185.834  0.00  0.00    +0.033 HD
ATOM     44  H   UNL     1     144.569 168.230 187.080  0.00  0.00    +0.057 HD
ATOM     45  H   UNL     1     142.728 170.445 185.973  0.00  0.00    +0.067 HD
ATOM     46  H   UNL     1     144.839 173.610 188.839  0.00  0.00    +0.105 HD
ATOM     47  H   UNL     1     148.739 172.790 192.101  0.00  0.00    +0.105 HD
ATOM     48  H   UNL     1     152.086 169.134 193.436  0.00  0.00    +0.105 HD
ATOM     49  H   UNL     1     150.485 166.103 191.242  0.00  0.00    +0.067 HD
ATOM     50  H   UNL     1     152.803 167.771 190.400  0.00  0.00    +0.035 HD
ATOM     51  H   UNL     1     152.847 166.256 188.462  0.00  0.00    +0.060 HD
ATOM     52  H   UNL     1     151.057 168.119 188.677  0.00  0.00    +0.029 HD
ATOM     53  H   UNL     1     149.931 166.837 189.082  0.00  0.00    +0.029 HD
ENDROOT
BRANCH   1  54
ATOM     54  C   UNL     1     150.796 165.421 186.489  0.00  0.00    -0.062 C 
ATOM     55  H   UNL     1     151.498 165.375 185.649  0.00  0.00    +0.023 HD
ATOM     56  H   UNL     1     149.844 164.986 186.158  0.00  0.00    +0.023 HD
ATOM     57  H   UNL     1     151.163 164.769 187.290  0.00  0.00    +0.023 HD
ENDBRANCH   1  54
BRANCH  30  58
ATOM     58  C   UNL     1     153.703 165.943 191.002  0.00  0.00    -0.057 C 
ATOM     59  H   UNL     1     154.618 166.413 190.636  0.00  0.00    +0.023 HD
ATOM     60  H   UNL     1     153.682 164.910 190.638  0.00  0.00    +0.023 HD
ATOM     61  H   UNL     1     153.763 165.919 192.093  0.00  0.00    +0.023 HD
ENDBRANCH  30  58
BRANCH   9  62
ATOM     62  C   UNL     1     145.036 168.883 183.400  0.00  0.00    -0.057 C 
ATOM     63  H   UNL     1     145.829 168.632 184.116  0.00  0.00    +0.023 HD
ATOM     64  H   UNL     1     145.526 169.088 182.443  0.00  0.00    +0.023 HD
ATOM     65  H   UNL     1     144.562 169.807 183.742  0.00  0.00    +0.023 HD
ENDBRANCH   9  62
BRANCH   8  66
ATOM     66  C   UNL     1     143.811 165.140 183.245  0.00  0.00    +0.011 C 
ATOM     67  H   UNL     1     143.868 164.742 182.225  0.00  0.00    +0.033 HD
ATOM     68  H   UNL     1     142.789 165.494 183.429  0.00  0.00    +0.033 HD
BRANCH  66  69
ATOM     69  C   UNL     1     144.089 164.015 184.260  0.00  0.00    +0.064 C 
ATOM     70  H   UNL     1     145.040 164.224 184.759  0.00  0.00    +0.060 HD
BRANCH  69  71
ATOM     71  C   UNL     1     142.961 163.947 185.329  0.00  0.00    -0.017 C 
ATOM     72  H   UNL     1     142.187 164.670 185.054  0.00  0.00    +0.032 HD
BRANCH  71  73
ATOM     73  C   UNL     1     142.278 162.571 185.387  0.00  0.00    -0.060 C 
ATOM     74  H   UNL     1     141.237 162.654 185.704  0.00  0.00    +0.023 HD
ATOM     75  H   UNL     1     142.307 162.060 184.422  0.00  0.00    +0.023 HD
ATOM     76  H   UNL     1     142.785 161.932 186.117  0.00  0.00    +0.023 HD
ENDBRANCH  71  73
BRANCH  71  77
ATOM     77  C   UNL     1     143.465 164.302 186.751  0.00  0.00    -0.041 C 
ATOM     78  H   UNL     1     143.913 165.303 186.740  0.00  0.00    +0.027 HD
ATOM     79  H   UNL     1     144.271 163.605 187.019  0.00  0.00    +0.027 HD
BRANCH  77  80
ATOM     80  C   UNL     1     142.414 164.254 187.860  0.00  0.00    +0.007 C 
ATOM     81  H   UNL     1     141.422 164.167 187.399  0.00  0.00    +0.034 HD
ATOM     82  H   UNL     1     142.515 163.378 188.506  0.00  0.00    +0.034 HD
BRANCH  80  83
ATOM     83  C   UNL     1     142.437 165.496 188.733  0.00  0.00    +0.139 C 
ATOM     84  O   UNL     1     141.515 166.311 188.682  0.00  0.00    -0.297 OA
BRANCH  83  85
ATOM     85  C   UNL     1     143.666 165.724 189.603  0.00  0.00    +0.041 C 
ATOM     86  H   UNL     1     144.404 166.235 188.972  0.00  0.00    +0.040 HD
BRANCH  85  87
ATOM     87  C   UNL     1     144.334 164.403 189.984  0.00  0.00    -0.053 C 
ATOM     88  H   UNL     1     144.949 163.986 189.184  0.00  0.00    +0.024 HD
ATOM     89  H   UNL     1     145.005 164.558 190.836  0.00  0.00    +0.024 HD
ATOM     90  H   UNL     1     143.597 163.652 190.278  0.00  0.00    +0.024 HD
ENDBRANCH  85  87
BRANCH  85  91
ATOM     91  C   UNL     1     143.313 166.669 190.781  0.00  0.00    +0.074 C 
ATOM     92  H   UNL     1     142.294 167.043 190.600  0.00  0.00    +0.061 HD
BRANCH  91  93
ATOM     93  C   UNL     1     143.276 166.020 192.201  0.00  0.00    +0.003 C 
ATOM     94  H   UNL     1     143.312 164.930 192.076  0.00  0.00    +0.037 HD
BRANCH  93  95
ATOM     95  C   UNL     1     141.942 166.328 192.897  0.00  0.00    -0.057 C 
ATOM     96  H   UNL     1     142.056 167.149 193.614  0.00  0.00    +0.024 HD
ATOM     97  H   UNL     1     141.163 166.612 192.180  0.00  0.00    +0.024 HD
ATOM     98  H   UNL     1     141.588 165.451 193.453  0.00  0.00    +0.024 HD
ENDBRANCH  93  95
BRANCH  93  99
ATOM     99  C   UNL     1     144.400 166.459 193.118  0.00  0.00    -0.065 C 
ATOM    100  C   UNL     1     145.527 165.747 193.265  0.00  0.00    -0.005 C 
ATOM    101  H   UNL     1     144.226 167.391 193.647  0.00  0.00    +0.059 HD
ATOM    102  H   UNL     1     145.639 164.822 192.699  0.00  0.00    +0.078 HD
BRANCH 100 103
ATOM    103  N   UNL     1     146.619 166.051 194.064  0.00  0.00    -0.284 N 
ATOM    104  C   UNL     1     146.974 165.383 195.228  0.00  0.00    +0.206 C 
ATOM    105  O   UNL     1     147.940 165.628 195.943  0.00  0.00    -0.279 OA
ATOM    106  H   UNL     1     146.290 164.566 195.492  0.00  0.00    +0.126 HD
BRANCH 103 107
ATOM    107  C   UNL     1     147.439 167.187 193.647  0.00  0.00    +0.007 C 
ATOM    108  H   UNL     1     146.873 167.903 193.042  0.00  0.00    +0.043 HD
ATOM    109  H   UNL     1     147.810 167.702 194.540  0.00  0.00    +0.043 HD
ATOM    110  H   UNL     1     148.285 166.823 193.054  0.00  0.00    +0.043 HD
ENDBRANCH 103 107
ENDBRANCH 100 103
ENDBRANCH  93  99
ENDBRANCH  91  93
BRANCH  91 111
ATOM    111  O   UNL     1     144.202 167.801 190.819  0.00  0.00    -0.379 OA
BRANCH 111 112
ATOM    112  C   UNL     1     143.555 169.049 190.616  0.00  0.00    +0.037 C 
ATOM    113  H   UNL     1     144.034 169.790 191.263  0.00  0.00    +0.052 HD
ATOM    114  H   UNL     1     142.497 168.986 190.888  0.00  0.00    +0.052 HD
ATOM    115  H   UNL     1     143.659 169.385 189.580  0.00  0.00    +0.052 HD
ENDBRANCH 111 112
ENDBRANCH  91 111
ENDBRANCH  85  91
ENDBRANCH  83  85
ENDBRANCH  80  83
ENDBRANCH  77  80
ENDBRANCH  71  77
ENDBRANCH  69  71
BRANCH  69 116
ATOM    116  O   UNL     1     144.140 162.763 183.569  0.00  0.00    -0.379 OA
BRANCH 116 117
ATOM    117  C   UNL     1     145.430 162.430 183.080  0.00  0.00    +0.037 C 
ATOM    118  H   UNL     1     145.373 162.077 182.048  0.00  0.00    +0.052 HD
ATOM    119  H   UNL     1     146.046 163.333 183.103  0.00  0.00    +0.052 HD
ATOM    120  H   UNL     1     145.900 161.673 183.711  0.00  0.00    +0.052 HD
ENDBRANCH 116 117
ENDBRANCH  69 116
ENDBRANCH  66  69
ENDBRANCH   8  66
BRANCH  31 121
ATOM    121  O   UNL     1     151.564 164.866 189.272  0.00  0.00    -0.391 OA
ATOM    122  H   UNL     1     150.749 164.867 189.804  0.00  0.00    +0.210 HD
ENDBRANCH  31 121
BRANCH  29 123
ATOM    123  O   UNL     1     151.780 166.131 192.851  0.00  0.00    -0.373 OA
BRANCH 123 124
ATOM    124  C   UNL     1     150.712 165.570 193.610  0.00  0.00    +0.037 C 
ATOM    125  H   UNL     1     149.965 165.180 192.916  0.00  0.00    +0.052 HD
ATOM    126  H   UNL     1     150.243 166.344 194.226  0.00  0.00    +0.052 HD
ATOM    127  H   UNL     1     151.061 164.749 194.243  0.00  0.00    +0.052 HD
ENDBRANCH 123 124
ENDBRANCH  29 123
BRANCH  10 128
ATOM    128  O   UNL     1     141.743 167.099 183.643  0.00  0.00    -0.379 OA
BRANCH 128 129
ATOM    129  C   UNL     1     140.687 166.827 184.553  0.00  0.00    +0.037 C 
ATOM    130  H   UNL     1     140.834 165.874 185.068  0.00  0.00    +0.052 HD
ATOM    131  H   UNL     1     139.755 166.757 183.979  0.00  0.00    +0.052 HD
ATOM    132  H   UNL     1     140.588 167.643 185.277  0.00  0.00    +0.052 HD
ENDBRANCH 128 129
ENDBRANCH  10 128
BRANCH   3 133
ATOM    133  O   UNL     1     148.038 166.056 188.058  0.00  0.00    -0.447 OA
BRANCH 133 134
ATOM    134  C   UNL     1     147.373 166.552 189.114  0.00  0.00    +0.398 C 
ATOM    135  O   UNL     1     147.433 166.158 190.267  0.00  0.00    -0.227 OA
ATOM    136  N   UNL     1     146.626 167.603 188.711  0.00  0.00    -0.295 N 
ATOM    137  H   UNL     1     146.633 167.856 187.735  0.00  0.00    +0.148 HD
ATOM    138  H   UNL     1     146.066 168.105 189.379  0.00  0.00    +0.148 HD
ENDBRANCH 133 134
ENDBRANCH   3 133
TORSDOF 29
ENDMDL
MODEL 6
REMARK VINA RESULT:      -6.1      1.691      2.818
REMARK  Name = Kabiramide C_conf1
REMARK  29 active torsions:
REMARK  status: ('A' for Active; 'I' for Inactive)
REMARK    1  A    between atoms: C_1  and  C_2
REMARK    2  A    between atoms: C_4  and  O_64
REMARK    3  A    between atoms: C_9  and  C_41
REMARK    4  A    between atoms: C_10  and  C_40
REMARK    5  A    between atoms: C_11  and  O_38
REMARK    6  A    between atoms: C_30  and  O_36
REMARK    7  A    between atoms: C_31  and  C_35
REMARK    8  A    between atoms: C_32  and  O_34
REMARK    9  A    between atoms: O_36  and  C_37
REMARK   10  A    between atoms: O_38  and  C_39
REMARK   11  A    between atoms: C_41  and  C_42
REMARK   12  A    between atoms: C_42  and  C_43
REMARK   13  A    between atoms: C_42  and  O_62
REMARK   14  A    between atoms: C_43  and  C_44
REMARK   15  A    between atoms: C_43  and  C_45
REMARK   16  A    between atoms: C_45  and  C_46
REMARK   17  A    between atoms: C_46  and  C_47
REMARK   18  A    between atoms: C_47  and  C_49
REMARK   19  A    between atoms: C_49  and  C_50
REMARK   20  A    between atoms: C_49  and  C_51
REMARK   21  A    between atoms: C_51  and  C_52
REMARK   22  A    between atoms: C_51  and  O_60
REMARK   23  A    between atoms: C_52  and  C_53
REMARK   24  A    between atoms: C_52  and  C_54
REMARK   25  A    between atoms: C_55  and  N_56
REMARK   26  A    between atoms: N_56  and  C_57
REMARK   27  A    between atoms: O_60  and  C_61
REMARK   28  A    between atoms: O_62  and  C_63
REMARK   29  A    between atoms: O_64  and  C_65
REMARK                            x       y       z     vdW  Elec       q    Type
REMARK                         _______ _______ _______ _____ _____    ______ ____
ROOT
ATOM      1  C   UNL     1     146.080 164.267 187.795  0.00  0.00    -0.038 C 
ATOM      2  C   UNL     1     147.462 164.333 188.515  0.00  0.00    -0.012 C 
ATOM      3  C   UNL     1     148.292 165.645 188.471  0.00  0.00    +0.115 C 
ATOM      4  C   UNL     1     149.205 165.782 187.252  0.00  0.00    +0.082 C 
ATOM      5  C   UNL     1     150.505 165.033 187.385  0.00  0.00    +0.311 C 
ATOM      6  O   UNL     1     150.627 163.843 187.124  0.00  0.00    -0.251 OA
ATOM      7  O   UNL     1     151.513 165.879 187.739  0.00  0.00    -0.461 OA
ATOM      8  C   UNL     1     152.874 165.434 187.516  0.00  0.00    +0.110 C 
ATOM      9  C   UNL     1     153.571 164.990 188.839  0.00  0.00    +0.020 C 
ATOM     10  C   UNL     1     153.994 166.099 189.847  0.00  0.00    +0.068 C 
ATOM     11  C   UNL     1     152.894 167.089 190.278  0.00  0.00    -0.008 C 
ATOM     12  C   UNL     1     151.842 166.574 191.212  0.00  0.00    -0.077 C 
ATOM     13  C   UNL     1     152.067 165.981 192.398  0.00  0.00    -0.003 C 
ATOM     14  C   UNL     1     150.975 165.622 193.239  0.00  0.00    +0.220 A 
ATOM     15  N   UNL     1     149.692 165.722 192.931  0.00  0.00    -0.205 NA
ATOM     16  C   UNL     1     149.010 165.358 194.060  0.00  0.00    +0.164 A 
ATOM     17  C   UNL     1     149.894 164.996 195.036  0.00  0.00    +0.125 A 
ATOM     18  O   UNL     1     151.155 165.139 194.531  0.00  0.00    -0.443 OA
ATOM     19  C   UNL     1     147.460 165.381 194.165  0.00  0.00    +0.250 A 
ATOM     20  N   UNL     1     146.701 165.731 193.146  0.00  0.00    -0.203 NA
ATOM     21  C   UNL     1     145.422 165.638 193.622  0.00  0.00    +0.164 A 
ATOM     22  C   UNL     1     145.438 165.237 194.932  0.00  0.00    +0.125 A 
ATOM     23  O   UNL     1     146.744 165.064 195.299  0.00  0.00    -0.442 OA
ATOM     24  C   UNL     1     144.164 165.947 192.760  0.00  0.00    +0.249 A 
ATOM     25  N   UNL     1     144.252 166.321 191.497  0.00  0.00    -0.210 NA
ATOM     26  C   UNL     1     142.955 166.444 191.072  0.00  0.00    +0.109 A 
ATOM     27  C   UNL     1     142.111 166.168 192.122  0.00  0.00    +0.118 A 
ATOM     28  O   UNL     1     142.869 165.846 193.207  0.00  0.00    -0.442 OA
ATOM     29  C   UNL     1     142.637 166.817 189.653  0.00  0.00    +0.108 C 
ATOM     30  C   UNL     1     142.411 165.528 188.792  0.00  0.00    +0.014 C 
ATOM     31  C   UNL     1     143.622 165.205 187.862  0.00  0.00    +0.061 C 
ATOM     32  C   UNL     1     144.946 164.967 188.610  0.00  0.00    -0.024 C 
ATOM     33  H   UNL     1     145.804 163.199 187.798  0.00  0.00    +0.030 HD
ATOM     34  H   UNL     1     148.090 163.505 188.157  0.00  0.00    +0.030 HD
ATOM     35  H   UNL     1     147.274 164.110 189.577  0.00  0.00    +0.030 HD
ATOM     36  H   UNL     1     148.903 165.675 189.385  0.00  0.00    +0.074 HD
ATOM     37  H   UNL     1     149.440 166.839 187.056  0.00  0.00    +0.041 HD
ATOM     38  H   UNL     1     148.722 165.454 186.325  0.00  0.00    +0.041 HD
ATOM     39  H   UNL     1     152.878 164.567 186.841  0.00  0.00    +0.074 HD
ATOM     40  H   UNL     1     154.517 164.526 188.511  0.00  0.00    +0.036 HD
ATOM     41  H   UNL     1     154.395 165.593 190.736  0.00  0.00    +0.060 HD
ATOM     42  H   UNL     1     153.342 167.966 190.761  0.00  0.00    +0.033 HD
ATOM     43  H   UNL     1     152.401 167.516 189.399  0.00  0.00    +0.033 HD
ATOM     44  H   UNL     1     150.813 166.775 190.899  0.00  0.00    +0.057 HD
ATOM     45  H   UNL     1     153.066 165.816 192.777  0.00  0.00    +0.067 HD
ATOM     46  H   UNL     1     149.815 164.648 196.056  0.00  0.00    +0.105 HD
ATOM     47  H   UNL     1     144.693 165.037 195.687  0.00  0.00    +0.105 HD
ATOM     48  H   UNL     1     141.041 166.149 192.255  0.00  0.00    +0.105 HD
ATOM     49  H   UNL     1     143.483 167.383 189.242  0.00  0.00    +0.067 HD
ATOM     50  H   UNL     1     142.299 164.660 189.464  0.00  0.00    +0.035 HD
ATOM     51  H   UNL     1     143.386 164.300 187.287  0.00  0.00    +0.060 HD
ATOM     52  H   UNL     1     144.754 164.334 189.488  0.00  0.00    +0.029 HD
ATOM     53  H   UNL     1     145.305 165.924 188.992  0.00  0.00    +0.029 HD
ENDROOT
BRANCH   1  54
ATOM     54  C   UNL     1     146.168 164.660 186.321  0.00  0.00    -0.062 C 
ATOM     55  H   UNL     1     145.560 164.009 185.683  0.00  0.00    +0.023 HD
ATOM     56  H   UNL     1     147.203 164.616 185.959  0.00  0.00    +0.023 HD
ATOM     57  H   UNL     1     145.842 165.696 186.178  0.00  0.00    +0.023 HD
ENDBRANCH   1  54
BRANCH  30  58
ATOM     58  C   UNL     1     141.116 165.592 187.964  0.00  0.00    -0.057 C 
ATOM     59  H   UNL     1     140.423 166.324 188.385  0.00  0.00    +0.023 HD
ATOM     60  H   UNL     1     140.609 164.622 187.929  0.00  0.00    +0.023 HD
ATOM     61  H   UNL     1     141.334 165.902 186.939  0.00  0.00    +0.023 HD
ENDBRANCH  30  58
BRANCH   9  62
ATOM     62  C   UNL     1     152.783 163.871 189.533  0.00  0.00    -0.057 C 
ATOM     63  H   UNL     1     152.223 163.282 188.795  0.00  0.00    +0.023 HD
ATOM     64  H   UNL     1     153.457 163.178 190.047  0.00  0.00    +0.023 HD
ATOM     65  H   UNL     1     152.067 164.252 190.266  0.00  0.00    +0.023 HD
ENDBRANCH   9  62
BRANCH   8  66
ATOM     66  C   UNL     1     153.619 166.572 186.787  0.00  0.00    +0.011 C 
ATOM     67  H   UNL     1     154.374 166.984 187.468  0.00  0.00    +0.033 HD
ATOM     68  H   UNL     1     152.895 167.360 186.544  0.00  0.00    +0.033 HD
BRANCH  66  69
ATOM     69  C   UNL     1     154.286 166.148 185.464  0.00  0.00    +0.064 C 
ATOM     70  H   UNL     1     153.944 166.821 184.672  0.00  0.00    +0.060 HD
BRANCH  69  71
ATOM     71  C   UNL     1     155.835 166.242 185.574  0.00  0.00    -0.017 C 
ATOM     72  H   UNL     1     156.079 166.757 186.507  0.00  0.00    +0.032 HD
BRANCH  71  73
ATOM     73  C   UNL     1     156.511 164.864 185.640  0.00  0.00    -0.060 C 
ATOM     74  H   UNL     1     156.237 164.242 184.787  0.00  0.00    +0.023 HD
ATOM     75  H   UNL     1     157.601 164.945 185.674  0.00  0.00    +0.023 HD
ATOM     76  H   UNL     1     156.189 164.332 186.541  0.00  0.00    +0.023 HD
ENDBRANCH  71  73
BRANCH  71  77
ATOM     77  C   UNL     1     156.468 167.040 184.406  0.00  0.00    -0.041 C 
ATOM     78  H   UNL     1     155.705 167.682 183.947  0.00  0.00    +0.027 HD
ATOM     79  H   UNL     1     156.783 166.330 183.629  0.00  0.00    +0.027 HD
BRANCH  77  80
ATOM     80  C   UNL     1     157.674 167.906 184.770  0.00  0.00    +0.007 C 
ATOM     81  H   UNL     1     157.409 168.532 185.632  0.00  0.00    +0.034 HD
ATOM     82  H   UNL     1     158.539 167.319 185.088  0.00  0.00    +0.034 HD
BRANCH  80  83
ATOM     83  C   UNL     1     158.104 168.809 183.627  0.00  0.00    +0.139 C 
ATOM     84  O   UNL     1     158.740 168.352 182.677  0.00  0.00    -0.297 OA
BRANCH  83  85
ATOM     85  C   UNL     1     157.783 170.293 183.741  0.00  0.00    +0.041 C 
ATOM     86  H   UNL     1     158.746 170.819 183.769  0.00  0.00    +0.040 HD
BRANCH  85  87
ATOM     87  C   UNL     1     157.128 170.623 185.082  0.00  0.00    -0.053 C 
ATOM     88  H   UNL     1     156.120 171.029 184.980  0.00  0.00    +0.024 HD
ATOM     89  H   UNL     1     157.031 169.712 185.682  0.00  0.00    +0.024 HD
ATOM     90  H   UNL     1     157.728 171.333 185.657  0.00  0.00    +0.024 HD
ENDBRANCH  85  87
BRANCH  85  91
ATOM     91  C   UNL     1     157.019 170.769 182.478  0.00  0.00    +0.074 C 
ATOM     92  H   UNL     1     157.360 170.143 181.640  0.00  0.00    +0.061 HD
BRANCH  91  93
ATOM     93  C   UNL     1     155.465 170.617 182.511  0.00  0.00    +0.003 C 
ATOM     94  H   UNL     1     155.176 170.314 183.526  0.00  0.00    +0.037 HD
BRANCH  93  95
ATOM     95  C   UNL     1     155.018 169.480 181.581  0.00  0.00    -0.057 C 
ATOM     96  H   UNL     1     154.106 169.754 181.038  0.00  0.00    +0.024 HD
ATOM     97  H   UNL     1     155.788 169.228 180.843  0.00  0.00    +0.024 HD
ATOM     98  H   UNL     1     154.797 168.575 182.161  0.00  0.00    +0.024 HD
ENDBRANCH  93  95
BRANCH  93  99
ATOM     99  C   UNL     1     154.706 171.871 182.124  0.00  0.00    -0.065 C 
ATOM    100  C   UNL     1     153.714 171.861 181.222  0.00  0.00    -0.005 C 
ATOM    101  H   UNL     1     155.026 172.776 182.629  0.00  0.00    +0.059 HD
ATOM    102  H   UNL     1     153.440 170.913 180.755  0.00  0.00    +0.078 HD
BRANCH 100 103
ATOM    103  N   UNL     1     152.949 172.936 180.797  0.00  0.00    -0.284 N 
ATOM    104  C   UNL     1     153.221 174.271 181.062  0.00  0.00    +0.206 C 
ATOM    105  O   UNL     1     152.566 175.237 180.688  0.00  0.00    -0.279 OA
ATOM    106  H   UNL     1     154.121 174.424 181.673  0.00  0.00    +0.126 HD
BRANCH 103 107
ATOM    107  C   UNL     1     151.746 172.621 180.028  0.00  0.00    +0.007 C 
ATOM    108  H   UNL     1     151.985 172.226 179.035  0.00  0.00    +0.043 HD
ATOM    109  H   UNL     1     151.166 171.868 180.572  0.00  0.00    +0.043 HD
ATOM    110  H   UNL     1     151.148 173.530 179.905  0.00  0.00    +0.043 HD
ENDBRANCH 103 107
ENDBRANCH 100 103
ENDBRANCH  93  99
ENDBRANCH  91  93
BRANCH  91 111
ATOM    111  O   UNL     1     157.338 172.138 182.168  0.00  0.00    -0.379 OA
BRANCH 111 112
ATOM    112  C   UNL     1     158.451 172.288 181.299  0.00  0.00    +0.037 C 
ATOM    113  H   UNL     1     159.265 172.750 181.866  0.00  0.00    +0.052 HD
ATOM    114  H   UNL     1     158.202 172.943 180.459  0.00  0.00    +0.052 HD
ATOM    115  H   UNL     1     158.800 171.319 180.932  0.00  0.00    +0.052 HD
ENDBRANCH 111 112
ENDBRANCH  91 111
ENDBRANCH  85  91
ENDBRANCH  83  85
ENDBRANCH  80  83
ENDBRANCH  77  80
ENDBRANCH  71  77
ENDBRANCH  69  71
BRANCH  69 116
ATOM    116  O   UNL     1     153.929 164.793 185.173  0.00  0.00    -0.379 OA
BRANCH 116 117
ATOM    117  C   UNL     1     153.181 164.642 183.975  0.00  0.00    +0.037 C 
ATOM    118  H   UNL     1     152.978 163.587 183.777  0.00  0.00    +0.052 HD
ATOM    119  H   UNL     1     152.227 165.160 184.102  0.00  0.00    +0.052 HD
ATOM    120  H   UNL     1     153.709 165.089 183.130  0.00  0.00    +0.052 HD
ENDBRANCH 116 117
ENDBRANCH  69 116
ENDBRANCH  66  69
ENDBRANCH   8  66
BRANCH  31 121
ATOM    121  O   UNL     1     143.801 166.287 186.945  0.00  0.00    -0.391 OA
ATOM    122  H   UNL     1     144.728 166.573 187.014  0.00  0.00    +0.210 HD
ENDBRANCH  31 121
BRANCH  29 123
ATOM    123  O   UNL     1     141.471 167.666 189.616  0.00  0.00    -0.373 OA
BRANCH 123 124
ATOM    124  C   UNL     1     141.814 169.047 189.693  0.00  0.00    +0.037 C 
ATOM    125  H   UNL     1     142.901 169.134 189.656  0.00  0.00    +0.052 HD
ATOM    126  H   UNL     1     141.465 169.468 190.642  0.00  0.00    +0.052 HD
ATOM    127  H   UNL     1     141.391 169.610 188.857  0.00  0.00    +0.052 HD
ENDBRANCH 123 124
ENDBRANCH  29 123
BRANCH  10 128
ATOM    128  O   UNL     1     155.095 166.813 189.243  0.00  0.00    -0.379 OA
BRANCH 128 129
ATOM    129  C   UNL     1     156.328 166.108 189.245  0.00  0.00    +0.037 C 
ATOM    130  H   UNL     1     156.205 165.079 188.899  0.00  0.00    +0.052 HD
ATOM    131  H   UNL     1     156.696 166.073 190.278  0.00  0.00    +0.052 HD
ATOM    132  H   UNL     1     157.069 166.633 188.632  0.00  0.00    +0.052 HD
ENDBRANCH 128 129
ENDBRANCH  10 128
BRANCH   3 133
ATOM    133  O   UNL     1     147.374 166.755 188.472  0.00  0.00    -0.447 OA
BRANCH 133 134
ATOM    134  C   UNL     1     147.875 167.991 188.631  0.00  0.00    +0.398 C 
ATOM    135  O   UNL     1     147.606 168.979 187.968  0.00  0.00    -0.227 OA
ATOM    136  N   UNL     1     148.723 167.992 189.682  0.00  0.00    -0.295 N 
ATOM    137  H   UNL     1     148.890 167.126 190.171  0.00  0.00    +0.148 HD
ATOM    138  H   UNL     1     149.185 168.844 189.953  0.00  0.00    +0.148 HD
ENDBRANCH 133 134
ENDBRANCH   3 133
TORSDOF 29
ENDMDL
MODEL 7
REMARK VINA RESULT:      -6.1      6.021     10.994
REMARK  Name = Kabiramide C_conf1
REMARK  29 active torsions:
REMARK  status: ('A' for Active; 'I' for Inactive)
REMARK    1  A    between atoms: C_1  and  C_2
REMARK    2  A    between atoms: C_4  and  O_64
REMARK    3  A    between atoms: C_9  and  C_41
REMARK    4  A    between atoms: C_10  and  C_40
REMARK    5  A    between atoms: C_11  and  O_38
REMARK    6  A    between atoms: C_30  and  O_36
REMARK    7  A    between atoms: C_31  and  C_35
REMARK    8  A    between atoms: C_32  and  O_34
REMARK    9  A    between atoms: O_36  and  C_37
REMARK   10  A    between atoms: O_38  and  C_39
REMARK   11  A    between atoms: C_41  and  C_42
REMARK   12  A    between atoms: C_42  and  C_43
REMARK   13  A    between atoms: C_42  and  O_62
REMARK   14  A    between atoms: C_43  and  C_44
REMARK   15  A    between atoms: C_43  and  C_45
REMARK   16  A    between atoms: C_45  and  C_46
REMARK   17  A    between atoms: C_46  and  C_47
REMARK   18  A    between atoms: C_47  and  C_49
REMARK   19  A    between atoms: C_49  and  C_50
REMARK   20  A    between atoms: C_49  and  C_51
REMARK   21  A    between atoms: C_51  and  C_52
REMARK   22  A    between atoms: C_51  and  O_60
REMARK   23  A    between atoms: C_52  and  C_53
REMARK   24  A    between atoms: C_52  and  C_54
REMARK   25  A    between atoms: C_55  and  N_56
REMARK   26  A    between atoms: N_56  and  C_57
REMARK   27  A    between atoms: O_60  and  C_61
REMARK   28  A    between atoms: O_62  and  C_63
REMARK   29  A    between atoms: O_64  and  C_65
REMARK                            x       y       z     vdW  Elec       q    Type
REMARK                         _______ _______ _______ _____ _____    ______ ____
ROOT
ATOM      1  C   UNL     1     149.200 170.747 192.087  0.00  0.00    -0.038 C 
ATOM      2  C   UNL     1     147.659 170.687 191.852  0.00  0.00    -0.012 C 
ATOM      3  C   UNL     1     147.107 170.240 190.471  0.00  0.00    +0.115 C 
ATOM      4  C   UNL     1     146.965 171.366 189.447  0.00  0.00    +0.082 C 
ATOM      5  C   UNL     1     145.711 172.183 189.618  0.00  0.00    +0.311 C 
ATOM      6  O   UNL     1     145.619 173.120 190.399  0.00  0.00    -0.251 OA
ATOM      7  O   UNL     1     144.756 171.790 188.728  0.00  0.00    -0.461 OA
ATOM      8  C   UNL     1     143.663 172.705 188.467  0.00  0.00    +0.110 C 
ATOM      9  C   UNL     1     142.347 172.266 189.180  0.00  0.00    +0.020 C 
ATOM     10  C   UNL     1     141.584 171.035 188.607  0.00  0.00    +0.068 C 
ATOM     11  C   UNL     1     142.403 169.741 188.432  0.00  0.00    -0.008 C 
ATOM     12  C   UNL     1     142.771 168.994 189.678  0.00  0.00    -0.077 C 
ATOM     13  C   UNL     1     141.913 168.572 190.624  0.00  0.00    -0.003 C 
ATOM     14  C   UNL     1     142.379 167.786 191.716  0.00  0.00    +0.220 A 
ATOM     15  N   UNL     1     143.642 167.486 191.974  0.00  0.00    -0.205 NA
ATOM     16  C   UNL     1     143.609 166.643 193.051  0.00  0.00    +0.164 A 
ATOM     17  C   UNL     1     142.319 166.473 193.466  0.00  0.00    +0.125 A 
ATOM     18  O   UNL     1     141.516 167.206 192.640  0.00  0.00    -0.443 OA
ATOM     19  C   UNL     1     144.881 165.995 193.666  0.00  0.00    +0.250 A 
ATOM     20  N   UNL     1     146.085 166.248 193.193  0.00  0.00    -0.203 NA
ATOM     21  C   UNL     1     146.925 165.500 193.973  0.00  0.00    +0.164 A 
ATOM     22  C   UNL     1     146.201 164.799 194.901  0.00  0.00    +0.125 A 
ATOM     23  O   UNL     1     144.881 165.107 194.720  0.00  0.00    -0.442 OA
ATOM     24  C   UNL     1     148.471 165.484 193.795  0.00  0.00    +0.249 A 
ATOM     25  N   UNL     1     149.078 166.204 192.870  0.00  0.00    -0.210 NA
ATOM     26  C   UNL     1     150.415 165.970 193.060  0.00  0.00    +0.109 A 
ATOM     27  C   UNL     1     150.571 165.074 194.091  0.00  0.00    +0.118 A 
ATOM     28  O   UNL     1     149.336 164.755 194.572  0.00  0.00    -0.442 OA
ATOM     29  C   UNL     1     151.450 166.657 192.216  0.00  0.00    +0.108 C 
ATOM     30  C   UNL     1     151.951 167.959 192.929  0.00  0.00    +0.014 C 
ATOM     31  C   UNL     1     151.359 169.257 192.294  0.00  0.00    +0.061 C 
ATOM     32  C   UNL     1     149.823 169.336 192.337  0.00  0.00    -0.024 C 
ATOM     33  H   UNL     1     149.326 171.278 193.046  0.00  0.00    +0.030 HD
ATOM     34  H   UNL     1     147.222 171.661 192.109  0.00  0.00    +0.030 HD
ATOM     35  H   UNL     1     147.254 169.986 192.599  0.00  0.00    +0.030 HD
ATOM     36  H   UNL     1     146.123 169.784 190.645  0.00  0.00    +0.074 HD
ATOM     37  H   UNL     1     146.972 170.966 188.421  0.00  0.00    +0.041 HD
ATOM     38  H   UNL     1     147.817 172.054 189.455  0.00  0.00    +0.041 HD
ATOM     39  H   UNL     1     143.916 173.706 188.842  0.00  0.00    +0.074 HD
ATOM     40  H   UNL     1     141.660 173.118 189.041  0.00  0.00    +0.036 HD
ATOM     41  H   UNL     1     140.735 170.839 189.277  0.00  0.00    +0.060 HD
ATOM     42  H   UNL     1     141.865 169.035 187.790  0.00  0.00    +0.033 HD
ATOM     43  H   UNL     1     143.317 169.944 187.865  0.00  0.00    +0.033 HD
ATOM     44  H   UNL     1     143.830 168.730 189.758  0.00  0.00    +0.057 HD
ATOM     45  H   UNL     1     140.850 168.758 190.557  0.00  0.00    +0.067 HD
ATOM     46  H   UNL     1     141.830 165.916 194.252  0.00  0.00    +0.105 HD
ATOM     47  H   UNL     1     146.431 164.106 195.696  0.00  0.00    +0.105 HD
ATOM     48  H   UNL     1     151.414 164.603 194.571  0.00  0.00    +0.105 HD
ATOM     49  H   UNL     1     150.995 166.922 191.254  0.00  0.00    +0.067 HD
ATOM     50  H   UNL     1     151.615 167.950 193.979  0.00  0.00    +0.035 HD
ATOM     51  H   UNL     1     151.762 170.122 192.836  0.00  0.00    +0.060 HD
ATOM     52  H   UNL     1     149.473 169.010 193.327  0.00  0.00    +0.029 HD
ATOM     53  H   UNL     1     149.419 168.623 191.617  0.00  0.00    +0.029 HD
ENDROOT
BRANCH   1  54
ATOM     54  C   UNL     1     149.918 171.607 191.049  0.00  0.00    -0.062 C 
ATOM     55  H   UNL     1     150.999 171.429 191.040  0.00  0.00    +0.023 HD
ATOM     56  H   UNL     1     149.754 172.676 191.237  0.00  0.00    +0.023 HD
ATOM     57  H   UNL     1     149.522 171.413 190.046  0.00  0.00    +0.023 HD
ENDBRANCH   1  54
BRANCH  30  58
ATOM     58  C   UNL     1     153.486 168.051 192.976  0.00  0.00    -0.057 C 
ATOM     59  H   UNL     1     153.805 168.903 193.581  0.00  0.00    +0.023 HD
ATOM     60  H   UNL     1     153.916 168.162 191.976  0.00  0.00    +0.023 HD
ATOM     61  H   UNL     1     153.908 167.152 193.432  0.00  0.00    +0.023 HD
ENDBRANCH  30  58
BRANCH   9  62
ATOM     62  C   UNL     1     142.550 172.145 190.696  0.00  0.00    -0.057 C 
ATOM     63  H   UNL     1     142.818 173.119 191.126  0.00  0.00    +0.023 HD
ATOM     64  H   UNL     1     141.628 171.823 191.191  0.00  0.00    +0.023 HD
ATOM     65  H   UNL     1     143.340 171.438 190.960  0.00  0.00    +0.023 HD
ENDBRANCH   9  62
BRANCH   8  66
ATOM     66  C   UNL     1     143.516 172.824 186.936  0.00  0.00    +0.011 C 
ATOM     67  H   UNL     1     143.416 173.886 186.679  0.00  0.00    +0.033 HD
ATOM     68  H   UNL     1     142.600 172.301 186.634  0.00  0.00    +0.033 HD
BRANCH  66  69
ATOM     69  C   UNL     1     144.676 172.201 186.136  0.00  0.00    +0.064 C 
ATOM     70  H   UNL     1     145.341 171.683 186.834  0.00  0.00    +0.060 HD
BRANCH  69  71
ATOM     71  C   UNL     1     144.141 171.179 185.094  0.00  0.00    -0.017 C 
ATOM     72  H   UNL     1     143.048 171.191 185.136  0.00  0.00    +0.032 HD
BRANCH  71  73
ATOM     73  C   UNL     1     144.530 171.540 183.651  0.00  0.00    -0.060 C 
ATOM     74  H   UNL     1     143.817 172.237 183.207  0.00  0.00    +0.023 HD
ATOM     75  H   UNL     1     145.528 171.982 183.596  0.00  0.00    +0.023 HD
ATOM     76  H   UNL     1     144.529 170.641 183.027  0.00  0.00    +0.023 HD
ENDBRANCH  71  73
BRANCH  71  77
ATOM     77  C   UNL     1     144.616 169.732 185.379  0.00  0.00    -0.041 C 
ATOM     78  H   UNL     1     144.677 169.175 184.436  0.00  0.00    +0.027 HD
ATOM     79  H   UNL     1     143.853 169.228 185.988  0.00  0.00    +0.027 HD
BRANCH  77  80
ATOM     80  C   UNL     1     145.956 169.604 186.104  0.00  0.00    +0.007 C 
ATOM     81  H   UNL     1     146.763 169.813 185.391  0.00  0.00    +0.034 HD
ATOM     82  H   UNL     1     146.078 170.336 186.907  0.00  0.00    +0.034 HD
BRANCH  80  83
ATOM     83  C   UNL     1     146.168 168.217 186.686  0.00  0.00    +0.139 C 
ATOM     84  O   UNL     1     145.331 167.724 187.443  0.00  0.00    -0.297 OA
BRANCH  83  85
ATOM     85  C   UNL     1     147.475 167.507 186.359  0.00  0.00    +0.041 C 
ATOM     86  H   UNL     1     147.809 167.026 187.288  0.00  0.00    +0.040 HD
BRANCH  85  87
ATOM     87  C   UNL     1     148.584 168.503 186.023  0.00  0.00    -0.053 C 
ATOM     88  H   UNL     1     149.120 168.864 186.902  0.00  0.00    +0.024 HD
ATOM     89  H   UNL     1     149.333 168.023 185.384  0.00  0.00    +0.024 HD
ATOM     90  H   UNL     1     148.194 169.368 185.479  0.00  0.00    +0.024 HD
ENDBRANCH  85  87
BRANCH  85  91
ATOM     91  C   UNL     1     147.224 166.392 185.311  0.00  0.00    +0.074 C 
ATOM     92  H   UNL     1     147.986 166.511 184.525  0.00  0.00    +0.061 HD
BRANCH  91  93
ATOM     93  C   UNL     1     147.369 164.922 185.816  0.00  0.00    +0.003 C 
ATOM     94  H   UNL     1     148.441 164.691 185.885  0.00  0.00    +0.037 HD
BRANCH  93  95
ATOM     95  C   UNL     1     146.784 163.941 184.790  0.00  0.00    -0.057 C 
ATOM     96  H   UNL     1     146.697 162.935 185.215  0.00  0.00    +0.024 HD
ATOM     97  H   UNL     1     145.789 164.251 184.449  0.00  0.00    +0.024 HD
ATOM     98  H   UNL     1     147.436 163.872 183.910  0.00  0.00    +0.024 HD
ENDBRANCH  93  95
BRANCH  93  99
ATOM     99  C   UNL     1     146.710 164.653 187.155  0.00  0.00    -0.065 C 
ATOM    100  C   UNL     1     145.421 164.298 187.264  0.00  0.00    -0.005 C 
ATOM    101  H   UNL     1     147.357 164.771 188.018  0.00  0.00    +0.059 HD
ATOM    102  H   UNL     1     144.829 164.193 186.354  0.00  0.00    +0.078 HD
BRANCH 100 103
ATOM    103  N   UNL     1     144.717 164.022 188.426  0.00  0.00    -0.284 N 
ATOM    104  C   UNL     1     143.877 164.907 189.086  0.00  0.00    +0.206 C 
ATOM    105  O   UNL     1     143.237 164.681 190.108  0.00  0.00    -0.279 OA
ATOM    106  H   UNL     1     143.815 165.894 188.609  0.00  0.00    +0.126 HD
BRANCH 103 107
ATOM    107  C   UNL     1     144.906 162.693 189.006  0.00  0.00    +0.007 C 
ATOM    108  H   UNL     1     145.267 162.743 190.039  0.00  0.00    +0.043 HD
ATOM    109  H   UNL     1     143.947 162.164 188.997  0.00  0.00    +0.043 HD
ATOM    110  H   UNL     1     145.638 162.139 188.409  0.00  0.00    +0.043 HD
ENDBRANCH 103 107
ENDBRANCH 100 103
ENDBRANCH  93  99
ENDBRANCH  91  93
BRANCH  91 111
ATOM    111  O   UNL     1     145.930 166.540 184.699  0.00  0.00    -0.379 OA
BRANCH 111 112
ATOM    112  C   UNL     1     145.976 166.975 183.348  0.00  0.00    +0.037 C 
ATOM    113  H   UNL     1     145.179 167.710 183.199  0.00  0.00    +0.052 HD
ATOM    114  H   UNL     1     145.806 166.138 182.665  0.00  0.00    +0.052 HD
ATOM    115  H   UNL     1     146.930 167.459 183.121  0.00  0.00    +0.052 HD
ENDBRANCH 111 112
ENDBRANCH  91 111
ENDBRANCH  85  91
ENDBRANCH  83  85
ENDBRANCH  80  83
ENDBRANCH  77  80
ENDBRANCH  71  77
ENDBRANCH  69  71
BRANCH  69 116
ATOM    116  O   UNL     1     145.376 173.239 185.441  0.00  0.00    -0.379 OA
BRANCH 116 117
ATOM    117  C   UNL     1     146.126 174.094 186.292  0.00  0.00    +0.037 C 
ATOM    118  H   UNL     1     147.192 174.027 186.063  0.00  0.00    +0.052 HD
ATOM    119  H   UNL     1     145.798 175.122 186.116  0.00  0.00    +0.052 HD
ATOM    120  H   UNL     1     145.949 173.848 187.341  0.00  0.00    +0.052 HD
ENDBRANCH 116 117
ENDBRANCH  69 116
ENDBRANCH  66  69
ENDBRANCH   8  66
BRANCH  31 121
ATOM    121  O   UNL     1     151.786 169.341 190.932  0.00  0.00    -0.391 OA
ATOM    122  H   UNL     1     151.180 169.951 190.477  0.00  0.00    +0.210 HD
ENDBRANCH  31 121
BRANCH  29 123
ATOM    123  O   UNL     1     152.551 165.760 191.960  0.00  0.00    -0.373 OA
BRANCH 123 124
ATOM    124  C   UNL     1     152.359 165.008 190.764  0.00  0.00    +0.037 C 
ATOM    125  H   UNL     1     153.273 164.447 190.561  0.00  0.00    +0.052 HD
ATOM    126  H   UNL     1     152.172 165.683 189.923  0.00  0.00    +0.052 HD
ATOM    127  H   UNL     1     151.532 164.300 190.867  0.00  0.00    +0.052 HD
ENDBRANCH 123 124
ENDBRANCH  29 123
BRANCH  10 128
ATOM    128  O   UNL     1     141.026 171.443 187.339  0.00  0.00    -0.379 OA
BRANCH 128 129
ATOM    129  C   UNL     1     139.834 172.210 187.439  0.00  0.00    +0.037 C 
ATOM    130  H   UNL     1     138.946 171.605 187.240  0.00  0.00    +0.052 HD
ATOM    131  H   UNL     1     139.877 173.002 186.680  0.00  0.00    +0.052 HD
ATOM    132  H   UNL     1     139.765 172.681 188.426  0.00  0.00    +0.052 HD
ENDBRANCH 128 129
ENDBRANCH  10 128
BRANCH   3 133
ATOM    133  O   UNL     1     148.003 169.251 189.930  0.00  0.00    -0.447 OA
BRANCH 133 134
ATOM    134  C   UNL     1     147.633 167.961 189.987  0.00  0.00    +0.398 C 
ATOM    135  O   UNL     1     148.325 166.990 189.726  0.00  0.00    -0.227 OA
ATOM    136  N   UNL     1     146.355 167.888 190.417  0.00  0.00    -0.295 N 
ATOM    137  H   UNL     1     145.857 168.744 190.604  0.00  0.00    +0.148 HD
ATOM    138  H   UNL     1     145.915 166.990 190.529  0.00  0.00    +0.148 HD
ENDBRANCH 133 134
ENDBRANCH   3 133
TORSDOF 29
ENDMDL
MODEL 8
REMARK VINA RESULT:      -5.9      5.833     12.619
REMARK  Name = Kabiramide C_conf1
REMARK  29 active torsions:
REMARK  status: ('A' for Active; 'I' for Inactive)
REMARK    1  A    between atoms: C_1  and  C_2
REMARK    2  A    between atoms: C_4  and  O_64
REMARK    3  A    between atoms: C_9  and  C_41
REMARK    4  A    between atoms: C_10  and  C_40
REMARK    5  A    between atoms: C_11  and  O_38
REMARK    6  A    between atoms: C_30  and  O_36
REMARK    7  A    between atoms: C_31  and  C_35
REMARK    8  A    between atoms: C_32  and  O_34
REMARK    9  A    between atoms: O_36  and  C_37
REMARK   10  A    between atoms: O_38  and  C_39
REMARK   11  A    between atoms: C_41  and  C_42
REMARK   12  A    between atoms: C_42  and  C_43
REMARK   13  A    between atoms: C_42  and  O_62
REMARK   14  A    between atoms: C_43  and  C_44
REMARK   15  A    between atoms: C_43  and  C_45
REMARK   16  A    between atoms: C_45  and  C_46
REMARK   17  A    between atoms: C_46  and  C_47
REMARK   18  A    between atoms: C_47  and  C_49
REMARK   19  A    between atoms: C_49  and  C_50
REMARK   20  A    between atoms: C_49  and  C_51
REMARK   21  A    between atoms: C_51  and  C_52
REMARK   22  A    between atoms: C_51  and  O_60
REMARK   23  A    between atoms: C_52  and  C_53
REMARK   24  A    between atoms: C_52  and  C_54
REMARK   25  A    between atoms: C_55  and  N_56
REMARK   26  A    between atoms: N_56  and  C_57
REMARK   27  A    between atoms: O_60  and  C_61
REMARK   28  A    between atoms: O_62  and  C_63
REMARK   29  A    between atoms: O_64  and  C_65
REMARK                            x       y       z     vdW  Elec       q    Type
REMARK                         _______ _______ _______ _____ _____    ______ ____
ROOT
ATOM      1  C   UNL     1     145.863 165.849 191.686  0.00  0.00    -0.038 C 
ATOM      2  C   UNL     1     145.136 166.084 190.325  0.00  0.00    -0.012 C 
ATOM      3  C   UNL     1     144.729 167.524 189.909  0.00  0.00    +0.115 C 
ATOM      4  C   UNL     1     143.364 167.976 190.427  0.00  0.00    +0.082 C 
ATOM      5  C   UNL     1     142.208 167.473 189.602  0.00  0.00    +0.311 C 
ATOM      6  O   UNL     1     141.703 166.368 189.752  0.00  0.00    -0.251 OA
ATOM      7  O   UNL     1     141.765 168.443 188.754  0.00  0.00    -0.461 OA
ATOM      8  C   UNL     1     140.437 168.291 188.193  0.00  0.00    +0.110 C 
ATOM      9  C   UNL     1     140.477 167.828 186.705  0.00  0.00    +0.020 C 
ATOM     10  C   UNL     1     140.919 168.866 185.631  0.00  0.00    +0.068 C 
ATOM     11  C   UNL     1     142.267 169.573 185.875  0.00  0.00    -0.008 C 
ATOM     12  C   UNL     1     143.509 168.761 185.670  0.00  0.00    -0.077 C 
ATOM     13  C   UNL     1     143.829 168.081 184.555  0.00  0.00    -0.003 C 
ATOM     14  C   UNL     1     145.088 167.425 184.450  0.00  0.00    +0.220 A 
ATOM     15  N   UNL     1     145.991 167.320 185.412  0.00  0.00    -0.205 NA
ATOM     16  C   UNL     1     147.070 166.700 184.841  0.00  0.00    +0.164 A 
ATOM     17  C   UNL     1     146.791 166.395 183.540  0.00  0.00    +0.125 A 
ATOM     18  O   UNL     1     145.525 166.831 183.271  0.00  0.00    -0.443 OA
ATOM     19  C   UNL     1     148.394 166.420 185.604  0.00  0.00    +0.250 A 
ATOM     20  N   UNL     1     148.546 166.743 186.873  0.00  0.00    -0.203 NA
ATOM     21  C   UNL     1     149.822 166.355 187.177  0.00  0.00    +0.164 A 
ATOM     22  C   UNL     1     150.420 165.809 186.072  0.00  0.00    +0.125 A 
ATOM     23  O   UNL     1     149.514 165.840 185.048  0.00  0.00    -0.442 OA
ATOM     24  C   UNL     1     150.455 166.525 188.588  0.00  0.00    +0.249 A 
ATOM     25  N   UNL     1     149.791 167.060 189.596  0.00  0.00    -0.210 NA
ATOM     26  C   UNL     1     150.647 166.989 190.663  0.00  0.00    +0.109 A 
ATOM     27  C   UNL     1     151.835 166.434 190.248  0.00  0.00    +0.118 A 
ATOM     28  O   UNL     1     151.727 166.131 188.924  0.00  0.00    -0.442 OA
ATOM     29  C   UNL     1     150.230 167.466 192.024  0.00  0.00    +0.108 C 
ATOM     30  C   UNL     1     149.667 166.270 192.866  0.00  0.00    +0.014 C 
ATOM     31  C   UNL     1     148.110 166.296 192.979  0.00  0.00    +0.061 C 
ATOM     32  C   UNL     1     147.379 166.220 191.627  0.00  0.00    -0.024 C 
ATOM     33  H   UNL     1     145.851 164.755 191.834  0.00  0.00    +0.030 HD
ATOM     34  H   UNL     1     144.249 165.438 190.279  0.00  0.00    +0.030 HD
ATOM     35  H   UNL     1     145.808 165.703 189.540  0.00  0.00    +0.030 HD
ATOM     36  H   UNL     1     144.727 167.557 188.810  0.00  0.00    +0.074 HD
ATOM     37  H   UNL     1     143.302 169.074 190.464  0.00  0.00    +0.041 HD
ATOM     38  H   UNL     1     143.188 167.678 191.467  0.00  0.00    +0.041 HD
ATOM     39  H   UNL     1     139.880 167.529 188.755  0.00  0.00    +0.074 HD
ATOM     40  H   UNL     1     139.428 167.593 186.460  0.00  0.00    +0.036 HD
ATOM     41  H   UNL     1     140.955 168.340 184.667  0.00  0.00    +0.060 HD
ATOM     42  H   UNL     1     142.356 170.453 185.227  0.00  0.00    +0.033 HD
ATOM     43  H   UNL     1     142.294 170.003 186.881  0.00  0.00    +0.033 HD
ATOM     44  H   UNL     1     144.225 168.803 186.497  0.00  0.00    +0.057 HD
ATOM     45  H   UNL     1     143.180 168.061 183.690  0.00  0.00    +0.067 HD
ATOM     46  H   UNL     1     147.323 165.917 182.731  0.00  0.00    +0.105 HD
ATOM     47  H   UNL     1     151.387 165.382 185.849  0.00  0.00    +0.105 HD
ATOM     48  H   UNL     1     152.774 166.200 190.723  0.00  0.00    +0.105 HD
ATOM     49  H   UNL     1     149.447 168.225 191.904  0.00  0.00    +0.067 HD
ATOM     50  H   UNL     1     149.924 165.322 192.366  0.00  0.00    +0.035 HD
ATOM     51  H   UNL     1     147.793 165.439 193.589  0.00  0.00    +0.060 HD
ATOM     52  H   UNL     1     147.864 165.461 190.998  0.00  0.00    +0.029 HD
ATOM     53  H   UNL     1     147.504 167.173 191.112  0.00  0.00    +0.029 HD
ENDROOT
BRANCH   1  54
ATOM     54  C   UNL     1     145.090 166.427 192.870  0.00  0.00    -0.062 C 
ATOM     55  H   UNL     1     145.399 167.451 193.105  0.00  0.00    +0.023 HD
ATOM     56  H   UNL     1     145.229 165.817 193.772  0.00  0.00    +0.023 HD
ATOM     57  H   UNL     1     144.013 166.423 192.667  0.00  0.00    +0.023 HD
ENDBRANCH   1  54
BRANCH  30  58
ATOM     58  C   UNL     1     150.294 166.191 194.269  0.00  0.00    -0.057 C 
ATOM     59  H   UNL     1     150.510 165.155 194.540  0.00  0.00    +0.023 HD
ATOM     60  H   UNL     1     149.632 166.612 195.033  0.00  0.00    +0.023 HD
ATOM     61  H   UNL     1     151.239 166.739 194.296  0.00  0.00    +0.023 HD
ENDBRANCH  30  58
BRANCH   9  62
ATOM     62  C   UNL     1     141.241 166.505 186.555  0.00  0.00    -0.057 C 
ATOM     63  H   UNL     1     141.970 166.574 185.736  0.00  0.00    +0.023 HD
ATOM     64  H   UNL     1     141.806 166.273 187.463  0.00  0.00    +0.023 HD
ATOM     65  H   UNL     1     140.582 165.660 186.341  0.00  0.00    +0.023 HD
ENDBRANCH   9  62
BRANCH   8  66
ATOM     66  C   UNL     1     139.693 169.628 188.396  0.00  0.00    +0.011 C 
ATOM     67  H   UNL     1     138.745 169.584 187.845  0.00  0.00    +0.033 HD
ATOM     68  H   UNL     1     140.308 170.433 187.975  0.00  0.00    +0.033 HD
BRANCH  66  69
ATOM     69  C   UNL     1     139.424 169.988 189.870  0.00  0.00    +0.064 C 
ATOM     70  H   UNL     1     139.617 169.103 190.484  0.00  0.00    +0.060 HD
BRANCH  69  71
ATOM     71  C   UNL     1     140.359 171.140 190.335  0.00  0.00    -0.017 C 
ATOM     72  H   UNL     1     141.234 170.695 190.818  0.00  0.00    +0.032 HD
BRANCH  71  73
ATOM     73  C   UNL     1     140.886 171.988 189.166  0.00  0.00    -0.060 C 
ATOM     74  H   UNL     1     141.533 172.794 189.516  0.00  0.00    +0.023 HD
ATOM     75  H   UNL     1     141.443 171.385 188.443  0.00  0.00    +0.023 HD
ATOM     76  H   UNL     1     140.050 172.455 188.636  0.00  0.00    +0.023 HD
ENDBRANCH  71  73
BRANCH  71  77
ATOM     77  C   UNL     1     139.677 172.087 191.355  0.00  0.00    -0.041 C 
ATOM     78  H   UNL     1     138.952 171.519 191.951  0.00  0.00    +0.027 HD
ATOM     79  H   UNL     1     139.100 172.840 190.800  0.00  0.00    +0.027 HD
BRANCH  77  80
ATOM     80  C   UNL     1     140.617 172.823 192.309  0.00  0.00    +0.007 C 
ATOM     81  H   UNL     1     140.233 172.716 193.331  0.00  0.00    +0.034 HD
ATOM     82  H   UNL     1     141.624 172.398 192.328  0.00  0.00    +0.034 HD
BRANCH  80  83
ATOM     83  C   UNL     1     140.730 174.302 191.983  0.00  0.00    +0.139 C 
ATOM     84  O   UNL     1     139.720 175.004 191.912  0.00  0.00    -0.297 OA
BRANCH  83  85
ATOM     85  C   UNL     1     142.116 174.855 191.680  0.00  0.00    +0.041 C 
ATOM     86  H   UNL     1     142.139 175.875 192.083  0.00  0.00    +0.040 HD
BRANCH  85  87
ATOM     87  C   UNL     1     142.331 175.031 190.177  0.00  0.00    -0.053 C 
ATOM     88  H   UNL     1     141.817 174.279 189.577  0.00  0.00    +0.024 HD
ATOM     89  H   UNL     1     141.936 176.001 189.856  0.00  0.00    +0.024 HD
ATOM     90  H   UNL     1     143.393 175.009 189.920  0.00  0.00    +0.024 HD
ENDBRANCH  85  87
BRANCH  85  91
ATOM     91  C   UNL     1     143.192 174.024 192.425  0.00  0.00    +0.074 C 
ATOM     92  H   UNL     1     142.670 173.198 192.931  0.00  0.00    +0.061 HD
BRANCH  91  93
ATOM     93  C   UNL     1     144.284 173.348 191.536  0.00  0.00    +0.003 C 
ATOM     94  H   UNL     1     144.327 173.891 190.582  0.00  0.00    +0.037 HD
BRANCH  93  95
ATOM     95  C   UNL     1     143.880 171.908 191.192  0.00  0.00    -0.057 C 
ATOM     96  H   UNL     1     144.592 171.458 190.491  0.00  0.00    +0.024 HD
ATOM     97  H   UNL     1     143.836 171.271 192.084  0.00  0.00    +0.024 HD
ATOM     98  H   UNL     1     142.892 171.889 190.715  0.00  0.00    +0.024 HD
ENDBRANCH  93  95
BRANCH  93  99
ATOM     99  C   UNL     1     145.666 173.316 192.160  0.00  0.00    -0.065 C 
ATOM    100  C   UNL     1     146.704 172.701 191.575  0.00  0.00    -0.005 C 
ATOM    101  H   UNL     1     145.751 173.826 193.114  0.00  0.00    +0.059 HD
ATOM    102  H   UNL     1     146.548 172.212 190.613  0.00  0.00    +0.078 HD
BRANCH 100 103
ATOM    103  N   UNL     1     148.006 172.613 192.044  0.00  0.00    -0.284 N 
ATOM    104  C   UNL     1     148.377 172.566 193.381  0.00  0.00    +0.206 C 
ATOM    105  O   UNL     1     149.519 172.477 193.817  0.00  0.00    -0.279 OA
ATOM    106  H   UNL     1     147.528 172.619 194.076  0.00  0.00    +0.126 HD
BRANCH 103 107
ATOM    107  C   UNL     1     149.065 172.595 191.037  0.00  0.00    +0.007 C 
ATOM    108  H   UNL     1     150.062 172.575 191.490  0.00  0.00    +0.043 HD
ATOM    109  H   UNL     1     148.946 171.701 190.415  0.00  0.00    +0.043 HD
ATOM    110  H   UNL     1     148.985 173.492 190.413  0.00  0.00    +0.043 HD
ENDBRANCH 103 107
ENDBRANCH 100 103
ENDBRANCH  93  99
ENDBRANCH  91  93
BRANCH  91 111
ATOM    111  O   UNL     1     143.849 174.816 193.433  0.00  0.00    -0.379 OA
BRANCH 111 112
ATOM    112  C   UNL     1     142.969 175.639 194.184  0.00  0.00    +0.037 C 
ATOM    113  H   UNL     1     142.010 175.120 194.275  0.00  0.00    +0.052 HD
ATOM    114  H   UNL     1     142.798 176.591 193.673  0.00  0.00    +0.052 HD
ATOM    115  H   UNL     1     143.356 175.816 195.191  0.00  0.00    +0.052 HD
ENDBRANCH 111 112
ENDBRANCH  91 111
ENDBRANCH  85  91
ENDBRANCH  83  85
ENDBRANCH  80  83
ENDBRANCH  77  80
ENDBRANCH  71  77
ENDBRANCH  69  71
BRANCH  69 116
ATOM    116  O   UNL     1     138.066 170.418 190.006  0.00  0.00    -0.379 OA
BRANCH 116 117
ATOM    117  C   UNL     1     137.274 169.566 190.820  0.00  0.00    +0.037 C 
ATOM    118  H   UNL     1     136.226 169.874 190.797  0.00  0.00    +0.052 HD
ATOM    119  H   UNL     1     137.344 168.551 190.420  0.00  0.00    +0.052 HD
ATOM    120  H   UNL     1     137.642 169.561 191.848  0.00  0.00    +0.052 HD
ENDBRANCH 116 117
ENDBRANCH  69 116
ENDBRANCH  66  69
ENDBRANCH   8  66
BRANCH  31 121
ATOM    121  O   UNL     1     147.716 167.495 193.650  0.00  0.00    -0.391 OA
ATOM    122  H   UNL     1     147.704 168.206 192.985  0.00  0.00    +0.210 HD
ENDBRANCH  31 121
BRANCH  29 123
ATOM    123  O   UNL     1     151.350 168.079 192.696  0.00  0.00    -0.373 OA
BRANCH 123 124
ATOM    124  C   UNL     1     151.516 169.443 192.319  0.00  0.00    +0.037 C 
ATOM    125  H   UNL     1     152.523 169.568 191.915  0.00  0.00    +0.052 HD
ATOM    126  H   UNL     1     151.412 170.091 193.195  0.00  0.00    +0.052 HD
ATOM    127  H   UNL     1     150.795 169.735 191.550  0.00  0.00    +0.052 HD
ENDBRANCH 123 124
ENDBRANCH  29 123
BRANCH  10 128
ATOM    128  O   UNL     1     139.858 169.842 185.533  0.00  0.00    -0.379 OA
BRANCH 128 129
ATOM    129  C   UNL     1     140.262 171.102 185.016  0.00  0.00    +0.037 C 
ATOM    130  H   UNL     1     139.419 171.655 184.597  0.00  0.00    +0.052 HD
ATOM    131  H   UNL     1     140.980 170.922 184.207  0.00  0.00    +0.052 HD
ATOM    132  H   UNL     1     140.759 171.692 185.795  0.00  0.00    +0.052 HD
ENDBRANCH 128 129
ENDBRANCH  10 128
BRANCH   3 133
ATOM    133  O   UNL     1     145.724 168.434 190.413  0.00  0.00    -0.447 OA
BRANCH 133 134
ATOM    134  C   UNL     1     146.587 168.978 189.538  0.00  0.00    +0.398 C 
ATOM    135  O   UNL     1     147.537 169.698 189.800  0.00  0.00    -0.227 OA
ATOM    136  N   UNL     1     146.262 168.577 188.290  0.00  0.00    -0.295 N 
ATOM    137  H   UNL     1     145.455 167.984 188.166  0.00  0.00    +0.148 HD
ATOM    138  H   UNL     1     146.812 168.884 187.506  0.00  0.00    +0.148 HD
ENDBRANCH 133 134
ENDBRANCH   3 133
TORSDOF 29
ENDMDL
MODEL 9
REMARK VINA RESULT:      -5.9      3.479      6.959
REMARK  Name = Kabiramide C_conf1
REMARK  29 active torsions:
REMARK  status: ('A' for Active; 'I' for Inactive)
REMARK    1  A    between atoms: C_1  and  C_2
REMARK    2  A    between atoms: C_4  and  O_64
REMARK    3  A    between atoms: C_9  and  C_41
REMARK    4  A    between atoms: C_10  and  C_40
REMARK    5  A    between atoms: C_11  and  O_38
REMARK    6  A    between atoms: C_30  and  O_36
REMARK    7  A    between atoms: C_31  and  C_35
REMARK    8  A    between atoms: C_32  and  O_34
REMARK    9  A    between atoms: O_36  and  C_37
REMARK   10  A    between atoms: O_38  and  C_39
REMARK   11  A    between atoms: C_41  and  C_42
REMARK   12  A    between atoms: C_42  and  C_43
REMARK   13  A    between atoms: C_42  and  O_62
REMARK   14  A    between atoms: C_43  and  C_44
REMARK   15  A    between atoms: C_43  and  C_45
REMARK   16  A    between atoms: C_45  and  C_46
REMARK   17  A    between atoms: C_46  and  C_47
REMARK   18  A    between atoms: C_47  and  C_49
REMARK   19  A    between atoms: C_49  and  C_50
REMARK   20  A    between atoms: C_49  and  C_51
REMARK   21  A    between atoms: C_51  and  C_52
REMARK   22  A    between atoms: C_51  and  O_60
REMARK   23  A    between atoms: C_52  and  C_53
REMARK   24  A    between atoms: C_52  and  C_54
REMARK   25  A    between atoms: C_55  and  N_56
REMARK   26  A    between atoms: N_56  and  C_57
REMARK   27  A    between atoms: O_60  and  C_61
REMARK   28  A    between atoms: O_62  and  C_63
REMARK   29  A    between atoms: O_64  and  C_65
REMARK                            x       y       z     vdW  Elec       q    Type
REMARK                         _______ _______ _______ _____ _____    ______ ____
ROOT
ATOM      1  C   UNL     1     146.172 163.888 187.798  0.00  0.00    -0.038 C 
ATOM      2  C   UNL     1     147.552 164.024 188.512  0.00  0.00    -0.012 C 
ATOM      3  C   UNL     1     148.365 165.341 188.373  0.00  0.00    +0.115 C 
ATOM      4  C   UNL     1     149.277 165.401 187.148  0.00  0.00    +0.082 C 
ATOM      5  C   UNL     1     150.587 164.681 187.334  0.00  0.00    +0.311 C 
ATOM      6  O   UNL     1     150.725 163.477 187.160  0.00  0.00    -0.251 OA
ATOM      7  O   UNL     1     151.583 165.564 187.627  0.00  0.00    -0.461 OA
ATOM      8  C   UNL     1     152.950 165.122 187.437  0.00  0.00    +0.110 C 
ATOM      9  C   UNL     1     153.652 164.784 188.788  0.00  0.00    +0.020 C 
ATOM     10  C   UNL     1     154.059 165.969 189.714  0.00  0.00    +0.068 C 
ATOM     11  C   UNL     1     152.946 166.973 190.072  0.00  0.00    -0.008 C 
ATOM     12  C   UNL     1     151.899 166.513 191.040  0.00  0.00    -0.077 C 
ATOM     13  C   UNL     1     152.130 166.010 192.266  0.00  0.00    -0.003 C 
ATOM     14  C   UNL     1     151.042 165.698 193.131  0.00  0.00    +0.220 A 
ATOM     15  N   UNL     1     149.758 165.758 192.816  0.00  0.00    -0.205 NA
ATOM     16  C   UNL     1     149.080 165.468 193.968  0.00  0.00    +0.164 A 
ATOM     17  C   UNL     1     149.968 165.189 194.968  0.00  0.00    +0.125 A 
ATOM     18  O   UNL     1     151.227 165.312 194.454  0.00  0.00    -0.443 OA
ATOM     19  C   UNL     1     147.530 165.477 194.071  0.00  0.00    +0.250 A 
ATOM     20  N   UNL     1     146.767 165.743 193.029  0.00  0.00    -0.203 NA
ATOM     21  C   UNL     1     145.489 165.667 193.510  0.00  0.00    +0.164 A 
ATOM     22  C   UNL     1     145.509 165.362 194.846  0.00  0.00    +0.125 A 
ATOM     23  O   UNL     1     146.817 165.234 195.225  0.00  0.00    -0.442 OA
ATOM     24  C   UNL     1     144.228 165.896 192.628  0.00  0.00    +0.249 A 
ATOM     25  N   UNL     1     144.313 166.180 191.342  0.00  0.00    -0.210 NA
ATOM     26  C   UNL     1     143.015 166.254 190.909  0.00  0.00    +0.109 A 
ATOM     27  C   UNL     1     142.174 166.043 191.975  0.00  0.00    +0.118 A 
ATOM     28  O   UNL     1     142.934 165.811 193.081  0.00  0.00    -0.442 OA
ATOM     29  C   UNL     1     142.694 166.520 189.466  0.00  0.00    +0.108 C 
ATOM     30  C   UNL     1     142.486 165.168 188.701  0.00  0.00    +0.014 C 
ATOM     31  C   UNL     1     143.702 164.796 187.796  0.00  0.00    +0.061 C 
ATOM     32  C   UNL     1     145.028 164.630 188.560  0.00  0.00    -0.024 C 
ATOM     33  H   UNL     1     145.910 162.819 187.878  0.00  0.00    +0.030 HD
ATOM     34  H   UNL     1     148.191 163.181 188.215  0.00  0.00    +0.030 HD
ATOM     35  H   UNL     1     147.366 163.876 189.587  0.00  0.00    +0.030 HD
ATOM     36  H   UNL     1     148.974 165.445 189.282  0.00  0.00    +0.074 HD
ATOM     37  H   UNL     1     149.499 166.444 186.875  0.00  0.00    +0.041 HD
ATOM     38  H   UNL     1     148.799 165.001 186.247  0.00  0.00    +0.041 HD
ATOM     39  H   UNL     1     152.966 164.209 186.826  0.00  0.00    +0.074 HD
ATOM     40  H   UNL     1     154.604 164.311 188.494  0.00  0.00    +0.036 HD
ATOM     41  H   UNL     1     154.466 165.534 190.637  0.00  0.00    +0.060 HD
ATOM     42  H   UNL     1     153.380 167.888 190.490  0.00  0.00    +0.033 HD
ATOM     43  H   UNL     1     152.447 167.328 189.164  0.00  0.00    +0.033 HD
ATOM     44  H   UNL     1     150.868 166.677 190.713  0.00  0.00    +0.057 HD
ATOM     45  H   UNL     1     153.131 165.885 192.656  0.00  0.00    +0.067 HD
ATOM     46  H   UNL     1     149.892 164.914 196.010  0.00  0.00    +0.105 HD
ATOM     47  H   UNL     1     144.766 165.207 195.613  0.00  0.00    +0.105 HD
ATOM     48  H   UNL     1     141.104 166.020 192.109  0.00  0.00    +0.105 HD
ATOM     49  H   UNL     1     143.533 167.065 189.016  0.00  0.00    +0.067 HD
ATOM     50  H   UNL     1     142.384 164.350 189.433  0.00  0.00    +0.035 HD
ATOM     51  H   UNL     1     143.479 163.849 187.288  0.00  0.00    +0.060 HD
ATOM     52  H   UNL     1     144.844 164.059 189.481  0.00  0.00    +0.029 HD
ATOM     53  H   UNL     1     145.374 165.616 188.872  0.00  0.00    +0.029 HD
ENDROOT
BRANCH   1  54
ATOM     54  C   UNL     1     146.256 164.174 186.300  0.00  0.00    -0.062 C 
ATOM     55  H   UNL     1     146.098 165.234 186.072  0.00  0.00    +0.023 HD
ATOM     56  H   UNL     1     145.511 163.593 185.741  0.00  0.00    +0.023 HD
ATOM     57  H   UNL     1     147.233 163.873 185.904  0.00  0.00    +0.023 HD
ENDBRANCH   1  54
BRANCH  30  58
ATOM     58  C   UNL     1     141.191 165.155 187.870  0.00  0.00    -0.057 C 
ATOM     59  H   UNL     1     140.426 165.783 188.333  0.00  0.00    +0.023 HD
ATOM     60  H   UNL     1     140.786 164.144 187.767  0.00  0.00    +0.023 HD
ATOM     61  H   UNL     1     141.376 165.553 186.869  0.00  0.00    +0.023 HD
ENDBRANCH  30  58
BRANCH   9  62
ATOM     62  C   UNL     1     152.878 163.707 189.561  0.00  0.00    -0.057 C 
ATOM     63  H   UNL     1     152.177 164.172 190.267  0.00  0.00    +0.023 HD
ATOM     64  H   UNL     1     152.282 163.089 188.883  0.00  0.00    +0.023 HD
ATOM     65  H   UNL     1     153.534 163.046 190.133  0.00  0.00    +0.023 HD
ENDBRANCH   9  62
BRANCH   8  66
ATOM     66  C   UNL     1     153.681 166.214 186.627  0.00  0.00    +0.011 C 
ATOM     67  H   UNL     1     154.107 166.940 187.331  0.00  0.00    +0.033 HD
ATOM     68  H   UNL     1     152.946 166.727 185.994  0.00  0.00    +0.033 HD
BRANCH  66  69
ATOM     69  C   UNL     1     154.786 165.681 185.695  0.00  0.00    +0.064 C 
ATOM     70  H   UNL     1     155.688 165.506 186.289  0.00  0.00    +0.060 HD
BRANCH  69  71
ATOM     71  C   UNL     1     154.350 164.343 185.032  0.00  0.00    -0.017 C 
ATOM     72  H   UNL     1     153.409 164.027 185.493  0.00  0.00    +0.032 HD
BRANCH  71  73
ATOM     73  C   UNL     1     154.077 164.486 183.527  0.00  0.00    -0.060 C 
ATOM     74  H   UNL     1     153.217 165.129 183.335  0.00  0.00    +0.023 HD
ATOM     75  H   UNL     1     154.940 164.892 182.992  0.00  0.00    +0.023 HD
ATOM     76  H   UNL     1     153.848 163.507 183.094  0.00  0.00    +0.023 HD
ENDBRANCH  71  73
BRANCH  71  77
ATOM     77  C   UNL     1     155.388 163.211 185.235  0.00  0.00    -0.041 C 
ATOM     78  H   UNL     1     156.400 163.623 185.137  0.00  0.00    +0.027 HD
ATOM     79  H   UNL     1     155.271 162.481 184.423  0.00  0.00    +0.027 HD
BRANCH  77  80
ATOM     80  C   UNL     1     155.298 162.457 186.562  0.00  0.00    +0.007 C 
ATOM     81  H   UNL     1     154.574 162.969 187.208  0.00  0.00    +0.034 HD
ATOM     82  H   UNL     1     154.919 161.438 186.448  0.00  0.00    +0.034 HD
BRANCH  80  83
ATOM     83  C   UNL     1     156.633 162.392 187.282  0.00  0.00    +0.139 C 
ATOM     84  O   UNL     1     157.678 162.649 186.683  0.00  0.00    -0.297 OA
BRANCH  83  85
ATOM     85  C   UNL     1     156.631 161.932 188.734  0.00  0.00    +0.041 C 
ATOM     86  H   UNL     1     155.711 162.328 189.184  0.00  0.00    +0.040 HD
BRANCH  85  87
ATOM     87  C   UNL     1     157.760 162.585 189.530  0.00  0.00    -0.053 C 
ATOM     88  H   UNL     1     158.075 161.995 190.392  0.00  0.00    +0.024 HD
ATOM     89  H   UNL     1     158.645 162.699 188.896  0.00  0.00    +0.024 HD
ATOM     90  H   UNL     1     157.477 163.582 189.881  0.00  0.00    +0.024 HD
ENDBRANCH  85  87
BRANCH  85  91
ATOM     91  C   UNL     1     156.564 160.384 188.799  0.00  0.00    +0.074 C 
ATOM     92  H   UNL     1     157.465 160.044 189.331  0.00  0.00    +0.061 HD
BRANCH  91  93
ATOM     93  C   UNL     1     155.359 159.776 189.584  0.00  0.00    +0.003 C 
ATOM     94  H   UNL     1     155.010 160.528 190.305  0.00  0.00    +0.037 HD
BRANCH  93  95
ATOM     95  C   UNL     1     155.814 158.567 190.414  0.00  0.00    -0.057 C 
ATOM     96  H   UNL     1     156.732 158.133 190.002  0.00  0.00    +0.024 HD
ATOM     97  H   UNL     1     156.007 158.838 191.459  0.00  0.00    +0.024 HD
ATOM     98  H   UNL     1     155.045 157.784 190.404  0.00  0.00    +0.024 HD
ENDBRANCH  93  95
BRANCH  93  99
ATOM     99  C   UNL     1     154.199 159.341 188.710  0.00  0.00    -0.065 C 
ATOM    100  C   UNL     1     152.993 159.926 188.771  0.00  0.00    -0.005 C 
ATOM    101  H   UNL     1     154.416 158.521 188.033  0.00  0.00    +0.059 HD
ATOM    102  H   UNL     1     152.846 160.749 189.473  0.00  0.00    +0.078 HD
BRANCH 100 103
ATOM    103  N   UNL     1     151.868 159.620 188.022  0.00  0.00    -0.284 N 
ATOM    104  C   UNL     1     151.860 158.872 186.853  0.00  0.00    +0.206 C 
ATOM    105  O   UNL     1     150.876 158.581 186.181  0.00  0.00    -0.279 OA
ATOM    106  H   UNL     1     152.857 158.533 186.540  0.00  0.00    +0.126 HD
BRANCH 103 107
ATOM    107  C   UNL     1     150.596 160.158 188.501  0.00  0.00    +0.007 C 
ATOM    108  H   UNL     1     149.994 159.398 189.010  0.00  0.00    +0.043 HD
ATOM    109  H   UNL     1     150.800 160.971 189.206  0.00  0.00    +0.043 HD
ATOM    110  H   UNL     1     150.023 160.543 187.650  0.00  0.00    +0.043 HD
ENDBRANCH 103 107
ENDBRANCH 100 103
ENDBRANCH  93  99
ENDBRANCH  91  93
BRANCH  91 111
ATOM    111  O   UNL     1     156.585 159.811 187.479  0.00  0.00    -0.379 OA
BRANCH 111 112
ATOM    112  C   UNL     1     157.676 158.931 187.250  0.00  0.00    +0.037 C 
ATOM    113  H   UNL     1     158.448 159.481 186.702  0.00  0.00    +0.052 HD
ATOM    114  H   UNL     1     157.365 158.076 186.642  0.00  0.00    +0.052 HD
ATOM    115  H   UNL     1     158.111 158.586 188.192  0.00  0.00    +0.052 HD
ENDBRANCH 111 112
ENDBRANCH  91 111
ENDBRANCH  85  91
ENDBRANCH  83  85
ENDBRANCH  80  83
ENDBRANCH  77  80
ENDBRANCH  71  77
ENDBRANCH  69  71
BRANCH  69 116
ATOM    116  O   UNL     1     155.033 166.643 184.664  0.00  0.00    -0.379 OA
BRANCH 116 117
ATOM    117  C   UNL     1     155.913 167.687 185.053  0.00  0.00    +0.037 C 
ATOM    118  H   UNL     1     155.826 168.538 184.375  0.00  0.00    +0.052 HD
ATOM    119  H   UNL     1     155.630 168.014 186.057  0.00  0.00    +0.052 HD
ATOM    120  H   UNL     1     156.945 167.332 185.081  0.00  0.00    +0.052 HD
ENDBRANCH 116 117
ENDBRANCH  69 116
ENDBRANCH  66  69
ENDBRANCH   8  66
BRANCH  31 121
ATOM    121  O   UNL     1     143.867 165.811 186.803  0.00  0.00    -0.391 OA
ATOM    122  H   UNL     1     143.017 165.900 186.338  0.00  0.00    +0.210 HD
ENDBRANCH  31 121
BRANCH  29 123
ATOM    123  O   UNL     1     141.516 167.348 189.367  0.00  0.00    -0.373 OA
BRANCH 123 124
ATOM    124  C   UNL     1     141.840 168.735 189.343  0.00  0.00    +0.037 C 
ATOM    125  H   UNL     1     141.007 169.275 188.890  0.00  0.00    +0.052 HD
ATOM    126  H   UNL     1     142.733 168.902 188.732  0.00  0.00    +0.052 HD
ATOM    127  H   UNL     1     142.000 169.125 190.352  0.00  0.00    +0.052 HD
ENDBRANCH 123 124
ENDBRANCH  29 123
BRANCH  10 128
ATOM    128  O   UNL     1     155.151 166.652 189.060  0.00  0.00    -0.379 OA
BRANCH 128 129
ATOM    129  C   UNL     1     156.384 165.948 189.080  0.00  0.00    +0.037 C 
ATOM    130  H   UNL     1     156.244 164.895 189.340  0.00  0.00    +0.052 HD
ATOM    131  H   UNL     1     157.020 166.401 189.850  0.00  0.00    +0.052 HD
ATOM    132  H   UNL     1     156.891 166.039 188.113  0.00  0.00    +0.052 HD
ENDBRANCH 128 129
ENDBRANCH  10 128
BRANCH   3 133
ATOM    133  O   UNL     1     147.433 166.435 188.294  0.00  0.00    -0.447 OA
BRANCH 133 134
ATOM    134  C   UNL     1     147.445 167.351 189.277  0.00  0.00    +0.398 C 
ATOM    135  O   UNL     1     148.409 167.700 189.938  0.00  0.00    -0.227 OA
ATOM    136  N   UNL     1     146.205 167.868 189.413  0.00  0.00    -0.295 N 
ATOM    137  H   UNL     1     145.465 167.515 188.826  0.00  0.00    +0.148 HD
ATOM    138  H   UNL     1     146.032 168.580 190.102  0.00  0.00    +0.148 HD
ENDBRANCH 133 134
ENDBRANCH   3 133
TORSDOF 29
ENDMDL
MODEL 10
REMARK VINA RESULT:      -5.9      1.620      2.286
REMARK  Name = Kabiramide C_conf1
REMARK  29 active torsions:
REMARK  status: ('A' for Active; 'I' for Inactive)
REMARK    1  A    between atoms: C_1  and  C_2
REMARK    2  A    between atoms: C_4  and  O_64
REMARK    3  A    between atoms: C_9  and  C_41
REMARK    4  A    between atoms: C_10  and  C_40
REMARK    5  A    between atoms: C_11  and  O_38
REMARK    6  A    between atoms: C_30  and  O_36
REMARK    7  A    between atoms: C_31  and  C_35
REMARK    8  A    between atoms: C_32  and  O_34
REMARK    9  A    between atoms: O_36  and  C_37
REMARK   10  A    between atoms: O_38  and  C_39
REMARK   11  A    between atoms: C_41  and  C_42
REMARK   12  A    between atoms: C_42  and  C_43
REMARK   13  A    between atoms: C_42  and  O_62
REMARK   14  A    between atoms: C_43  and  C_44
REMARK   15  A    between atoms: C_43  and  C_45
REMARK   16  A    between atoms: C_45  and  C_46
REMARK   17  A    between atoms: C_46  and  C_47
REMARK   18  A    between atoms: C_47  and  C_49
REMARK   19  A    between atoms: C_49  and  C_50
REMARK   20  A    between atoms: C_49  and  C_51
REMARK   21  A    between atoms: C_51  and  C_52
REMARK   22  A    between atoms: C_51  and  O_60
REMARK   23  A    between atoms: C_52  and  C_53
REMARK   24  A    between atoms: C_52  and  C_54
REMARK   25  A    between atoms: C_55  and  N_56
REMARK   26  A    between atoms: N_56  and  C_57
REMARK   27  A    between atoms: O_60  and  C_61
REMARK   28  A    between atoms: O_62  and  C_63
REMARK   29  A    between atoms: O_64  and  C_65
REMARK                            x       y       z     vdW  Elec       q    Type
REMARK                         _______ _______ _______ _____ _____    ______ ____
ROOT
ATOM      1  C   UNL     1     146.790 164.439 187.687  0.00  0.00    -0.038 C 
ATOM      2  C   UNL     1     148.260 164.458 188.208  0.00  0.00    -0.012 C 
ATOM      3  C   UNL     1     149.175 165.673 187.892  0.00  0.00    +0.115 C 
ATOM      4  C   UNL     1     149.916 165.583 186.559  0.00  0.00    +0.082 C 
ATOM      5  C   UNL     1     151.160 164.737 186.615  0.00  0.00    +0.311 C 
ATOM      6  O   UNL     1     151.153 163.519 186.491  0.00  0.00    -0.251 OA
ATOM      7  O   UNL     1     152.270 165.520 186.727  0.00  0.00    -0.461 OA
ATOM      8  C   UNL     1     153.548 164.927 186.387  0.00  0.00    +0.110 C 
ATOM      9  C   UNL     1     154.387 164.573 187.654  0.00  0.00    +0.020 C 
ATOM     10  C   UNL     1     155.031 165.746 188.452  0.00  0.00    +0.068 C 
ATOM     11  C   UNL     1     154.082 166.877 188.893  0.00  0.00    -0.008 C 
ATOM     12  C   UNL     1     153.134 166.573 190.013  0.00  0.00    -0.077 C 
ATOM     13  C   UNL     1     153.475 166.101 191.225  0.00  0.00    -0.003 C 
ATOM     14  C   UNL     1     152.487 165.943 192.238  0.00  0.00    +0.220 A 
ATOM     15  N   UNL     1     151.185 166.127 192.088  0.00  0.00    -0.205 NA
ATOM     16  C   UNL     1     150.642 165.959 193.333  0.00  0.00    +0.164 A 
ATOM     17  C   UNL     1     151.623 165.630 194.225  0.00  0.00    +0.125 A 
ATOM     18  O   UNL     1     152.808 165.597 193.546  0.00  0.00    -0.443 OA
ATOM     19  C   UNL     1     149.128 166.139 193.634  0.00  0.00    +0.250 A 
ATOM     20  N   UNL     1     148.263 166.440 192.686  0.00  0.00    -0.203 NA
ATOM     21  C   UNL     1     147.059 166.521 193.330  0.00  0.00    +0.164 A 
ATOM     22  C   UNL     1     147.228 166.273 194.667  0.00  0.00    +0.125 A 
ATOM     23  O   UNL     1     148.555 166.022 194.882  0.00  0.00    -0.442 OA
ATOM     24  C   UNL     1     145.721 166.846 192.607  0.00  0.00    +0.249 A 
ATOM     25  N   UNL     1     145.661 167.064 191.306  0.00  0.00    -0.210 NA
ATOM     26  C   UNL     1     144.331 167.258 191.040  0.00  0.00    +0.109 A 
ATOM     27  C   UNL     1     143.623 167.183 192.216  0.00  0.00    +0.118 A 
ATOM     28  O   UNL     1     144.498 166.919 193.227  0.00  0.00    -0.442 OA
ATOM     29  C   UNL     1     143.848 167.495 189.638  0.00  0.00    +0.108 C 
ATOM     30  C   UNL     1     143.405 166.142 188.983  0.00  0.00    +0.014 C 
ATOM     31  C   UNL     1     144.446 165.605 187.952  0.00  0.00    +0.061 C 
ATOM     32  C   UNL     1     145.838 165.331 188.547  0.00  0.00    -0.024 C 
ATOM     33  H   UNL     1     146.435 163.409 187.859  0.00  0.00    +0.030 HD
ATOM     34  H   UNL     1     148.766 163.540 187.879  0.00  0.00    +0.030 HD
ATOM     35  H   UNL     1     148.205 164.376 189.305  0.00  0.00    +0.030 HD
ATOM     36  H   UNL     1     149.907 165.750 188.708  0.00  0.00    +0.074 HD
ATOM     37  H   UNL     1     150.203 166.585 186.201  0.00  0.00    +0.041 HD
ATOM     38  H   UNL     1     149.284 165.199 185.750  0.00  0.00    +0.041 HD
ATOM     39  H   UNL     1     153.391 163.992 185.832  0.00  0.00    +0.074 HD
ATOM     40  H   UNL     1     155.239 163.989 187.267  0.00  0.00    +0.036 HD
ATOM     41  H   UNL     1     155.512 165.310 189.338  0.00  0.00    +0.060 HD
ATOM     42  H   UNL     1     154.658 167.758 189.200  0.00  0.00    +0.033 HD
ATOM     43  H   UNL     1     153.505 167.245 188.039  0.00  0.00    +0.033 HD
ATOM     44  H   UNL     1     152.089 166.832 189.813  0.00  0.00    +0.057 HD
ATOM     45  H   UNL     1     154.502 165.887 191.489  0.00  0.00    +0.067 HD
ATOM     46  H   UNL     1     151.660 165.410 195.281  0.00  0.00    +0.105 HD
ATOM     47  H   UNL     1     146.582 166.231 195.532  0.00  0.00    +0.105 HD
ATOM     48  H   UNL     1     142.584 167.280 192.488  0.00  0.00    +0.105 HD
ATOM     49  H   UNL     1     144.669 167.928 189.054  0.00  0.00    +0.067 HD
ATOM     50  H   UNL     1     143.320 165.371 189.767  0.00  0.00    +0.035 HD
ATOM     51  H   UNL     1     144.062 164.666 187.531  0.00  0.00    +0.060 HD
ATOM     52  H   UNL     1     145.723 164.822 189.515  0.00  0.00    +0.029 HD
ATOM     53  H   UNL     1     146.320 166.287 188.756  0.00  0.00    +0.029 HD
ENDROOT
BRANCH   1  54
ATOM     54  C   UNL     1     146.701 164.651 186.176  0.00  0.00    -0.062 C 
ATOM     55  H   UNL     1     147.670 164.917 185.739  0.00  0.00    +0.023 HD
ATOM     56  H   UNL     1     145.988 165.448 185.928  0.00  0.00    +0.023 HD
ATOM     57  H   UNL     1     146.329 163.748 185.681  0.00  0.00    +0.023 HD
ENDBRANCH   1  54
BRANCH  30  58
ATOM     58  C   UNL     1     142.016 166.233 188.328  0.00  0.00    -0.057 C 
ATOM     59  H   UNL     1     141.372 166.924 188.877  0.00  0.00    +0.023 HD
ATOM     60  H   UNL     1     141.519 165.257 188.295  0.00  0.00    +0.023 HD
ATOM     61  H   UNL     1     142.100 166.608 187.305  0.00  0.00    +0.023 HD
ENDBRANCH  30  58
BRANCH   9  62
ATOM     62  C   UNL     1     153.620 163.619 188.579  0.00  0.00    -0.057 C 
ATOM     63  H   UNL     1     153.474 164.078 189.566  0.00  0.00    +0.023 HD
ATOM     64  H   UNL     1     152.625 163.401 188.180  0.00  0.00    +0.023 HD
ATOM     65  H   UNL     1     154.139 162.670 188.729  0.00  0.00    +0.023 HD
ENDBRANCH   9  62
BRANCH   8  66
ATOM     66  C   UNL     1     154.270 165.899 185.431  0.00  0.00    +0.011 C 
ATOM     67  H   UNL     1     155.299 166.035 185.786  0.00  0.00    +0.033 HD
ATOM     68  H   UNL     1     153.754 166.867 185.466  0.00  0.00    +0.033 HD
BRANCH  66  69
ATOM     69  C   UNL     1     154.283 165.448 183.957  0.00  0.00    +0.064 C 
ATOM     70  H   UNL     1     153.288 165.615 183.534  0.00  0.00    +0.060 HD
BRANCH  69  71
ATOM     71  C   UNL     1     155.323 166.265 183.140  0.00  0.00    -0.017 C 
ATOM     72  H   UNL     1     156.121 165.585 182.828  0.00  0.00    +0.032 HD
BRANCH  71  73
ATOM     73  C   UNL     1     154.732 166.869 181.857  0.00  0.00    -0.060 C 
ATOM     74  H   UNL     1     155.437 166.814 181.026  0.00  0.00    +0.023 HD
ATOM     75  H   UNL     1     153.806 166.369 181.560  0.00  0.00    +0.023 HD
ATOM     76  H   UNL     1     154.503 167.928 182.012  0.00  0.00    +0.023 HD
ENDBRANCH  71  73
BRANCH  71  77
ATOM     77  C   UNL     1     155.965 167.409 183.966  0.00  0.00    -0.041 C 
ATOM     78  H   UNL     1     157.028 167.189 184.129  0.00  0.00    +0.027 HD
ATOM     79  H   UNL     1     155.497 167.427 184.960  0.00  0.00    +0.027 HD
BRANCH  77  80
ATOM     80  C   UNL     1     155.846 168.810 183.365  0.00  0.00    +0.007 C 
ATOM     81  H   UNL     1     155.303 168.739 182.415  0.00  0.00    +0.034 HD
ATOM     82  H   UNL     1     155.261 169.492 183.987  0.00  0.00    +0.034 HD
BRANCH  80  83
ATOM     83  C   UNL     1     157.201 169.444 183.105  0.00  0.00    +0.139 C 
ATOM     84  O   UNL     1     157.819 169.193 182.070  0.00  0.00    -0.297 OA
BRANCH  83  85
ATOM     85  C   UNL     1     157.787 170.330 184.196  0.00  0.00    +0.041 C 
ATOM     86  H   UNL     1     157.824 169.719 185.107  0.00  0.00    +0.040 HD
BRANCH  85  87
ATOM     87  C   UNL     1     156.847 171.483 184.546  0.00  0.00    -0.053 C 
ATOM     88  H   UNL     1     156.029 171.186 185.204  0.00  0.00    +0.024 HD
ATOM     89  H   UNL     1     157.399 172.266 185.077  0.00  0.00    +0.024 HD
ATOM     90  H   UNL     1     156.418 171.936 183.648  0.00  0.00    +0.024 HD
ENDBRANCH  85  87
BRANCH  85  91
ATOM     91  C   UNL     1     159.241 170.728 183.832  0.00  0.00    +0.074 C 
ATOM     92  H   UNL     1     159.504 170.184 182.912  0.00  0.00    +0.061 HD
BRANCH  91  93
ATOM     93  C   UNL     1     159.486 172.237 183.512  0.00  0.00    +0.003 C 
ATOM     94  H   UNL     1     158.989 172.833 184.289  0.00  0.00    +0.037 HD
BRANCH  93  95
ATOM     95  C   UNL     1     158.817 172.619 182.184  0.00  0.00    -0.057 C 
ATOM     96  H   UNL     1     159.550 173.027 181.479  0.00  0.00    +0.024 HD
ATOM     97  H   UNL     1     158.333 171.759 181.707  0.00  0.00    +0.024 HD
ATOM     98  H   UNL     1     158.053 173.390 182.347  0.00  0.00    +0.024 HD
ENDBRANCH  93  95
BRANCH  93  99
ATOM     99  C   UNL     1     160.949 172.629 183.435  0.00  0.00    -0.065 C 
ATOM    100  C   UNL     1     161.700 172.394 182.349  0.00  0.00    -0.005 C 
ATOM    101  H   UNL     1     161.342 173.113 184.323  0.00  0.00    +0.059 HD
ATOM    102  H   UNL     1     161.238 171.907 181.489  0.00  0.00    +0.078 HD
BRANCH 100 103
ATOM    103  N   UNL     1     163.036 172.712 182.163  0.00  0.00    -0.284 N 
ATOM    104  C   UNL     1     163.700 172.714 180.944  0.00  0.00    +0.206 C 
ATOM    105  O   UNL     1     164.877 173.002 180.755  0.00  0.00    -0.279 OA
ATOM    106  H   UNL     1     163.066 172.419 180.097  0.00  0.00    +0.126 HD
BRANCH 103 107
ATOM    107  C   UNL     1     163.803 173.047 183.361  0.00  0.00    +0.007 C 
ATOM    108  H   UNL     1     163.638 174.082 183.679  0.00  0.00    +0.043 HD
ATOM    109  H   UNL     1     163.497 172.380 184.174  0.00  0.00    +0.043 HD
ATOM    110  H   UNL     1     164.870 172.913 183.157  0.00  0.00    +0.043 HD
ENDBRANCH 103 107
ENDBRANCH 100 103
ENDBRANCH  93  99
ENDBRANCH  91  93
BRANCH  91 111
ATOM    111  O   UNL     1     160.160 170.325 184.864  0.00  0.00    -0.379 OA
BRANCH 111 112
ATOM    112  C   UNL     1     159.665 169.295 185.707  0.00  0.00    +0.037 C 
ATOM    113  H   UNL     1     160.476 168.978 186.370  0.00  0.00    +0.052 HD
ATOM    114  H   UNL     1     159.345 168.431 185.118  0.00  0.00    +0.052 HD
ATOM    115  H   UNL     1     158.840 169.655 186.329  0.00  0.00    +0.052 HD
ENDBRANCH 111 112
ENDBRANCH  91 111
ENDBRANCH  85  91
ENDBRANCH  83  85
ENDBRANCH  80  83
ENDBRANCH  77  80
ENDBRANCH  71  77
ENDBRANCH  69  71
BRANCH  69 116
ATOM    116  O   UNL     1     154.638 164.063 183.895  0.00  0.00    -0.379 OA
BRANCH 116 117
ATOM    117  C   UNL     1     156.036 163.832 183.811  0.00  0.00    +0.037 C 
ATOM    118  H   UNL     1     156.589 164.768 183.918  0.00  0.00    +0.052 HD
ATOM    119  H   UNL     1     156.321 163.166 184.630  0.00  0.00    +0.052 HD
ATOM    120  H   UNL     1     156.292 163.350 182.866  0.00  0.00    +0.052 HD
ENDBRANCH 116 117
ENDBRANCH  69 116
ENDBRANCH  66  69
ENDBRANCH   8  66
BRANCH  31 121
ATOM    121  O   UNL     1     144.577 166.553 186.891  0.00  0.00    -0.391 OA
ATOM    122  H   UNL     1     145.446 166.405 186.478  0.00  0.00    +0.210 HD
ENDBRANCH  31 121
BRANCH  29 123
ATOM    123  O   UNL     1     142.756 168.439 189.646  0.00  0.00    -0.373 OA
BRANCH 123 124
ATOM    124  C   UNL     1     143.210 169.780 189.485  0.00  0.00    +0.037 C 
ATOM    125  H   UNL     1     144.036 169.781 188.771  0.00  0.00    +0.052 HD
ATOM    126  H   UNL     1     143.578 170.169 190.440  0.00  0.00    +0.052 HD
ATOM    127  H   UNL     1     142.417 170.426 189.099  0.00  0.00    +0.052 HD
ENDBRANCH 123 124
ENDBRANCH  29 123
BRANCH  10 128
ATOM    128  O   UNL     1     156.088 166.281 187.625  0.00  0.00    -0.379 OA
BRANCH 128 129
ATOM    129  C   UNL     1     157.215 165.427 187.484  0.00  0.00    +0.037 C 
ATOM    130  H   UNL     1     157.842 165.724 186.639  0.00  0.00    +0.052 HD
ATOM    131  H   UNL     1     156.848 164.412 187.288  0.00  0.00    +0.052 HD
ATOM    132  H   UNL     1     157.800 165.412 188.410  0.00  0.00    +0.052 HD
ENDBRANCH 128 129
ENDBRANCH  10 128
BRANCH   3 133
ATOM    133  O   UNL     1     148.354 166.856 187.872  0.00  0.00    -0.447 OA
BRANCH 133 134
ATOM    134  C   UNL     1     148.431 167.699 188.916  0.00  0.00    +0.398 C 
ATOM    135  O   UNL     1     147.685 168.633 189.157  0.00  0.00    -0.227 OA
ATOM    136  N   UNL     1     149.468 167.335 189.701  0.00  0.00    -0.295 N 
ATOM    137  H   UNL     1     150.036 166.550 189.421  0.00  0.00    +0.148 HD
ATOM    138  H   UNL     1     149.668 167.854 190.539  0.00  0.00    +0.148 HD
ENDBRANCH 133 134
ENDBRANCH   3 133
TORSDOF 29
ENDMDL
