MODEL 1
REMARK VINA RESULT:      -6.5      0.000      0.000
REMARK  Name = Latrunculin B_conf2
REMARK  4 active torsions:
REMARK  status: ('A' for Active; 'I' for Inactive)
REMARK    1  A    between atoms: C_1  and  C_2
REMARK    2  A    between atoms: C_9  and  C_11
REMARK    3  A    between atoms: C_9  and  O_17
REMARK    4  A    between atoms: C_22  and  C_27
REMARK                            x       y       z     vdW  Elec       q    Type
REMARK                         _______ _______ _______ _____ _____    ______ ____
ROOT
ATOM      1  C   UNL     1     151.764 166.490 193.064  0.00  0.00    -0.026 C 
ATOM      2  C   UNL     1     151.315 165.926 191.699  0.00  0.00    -0.045 C 
ATOM      3  C   UNL     1     150.621 166.953 190.792  0.00  0.00    -0.026 C 
ATOM      4  C   UNL     1     149.243 167.425 191.287  0.00  0.00    +0.065 C 
ATOM      5  C   UNL     1     148.195 166.312 191.243  0.00  0.00    +0.011 C 
ATOM      6  C   UNL     1     146.824 166.849 191.663  0.00  0.00    +0.111 C 
ATOM      7  C   UNL     1     146.461 168.081 190.832  0.00  0.00    +0.040 C 
ATOM      8  C   UNL     1     147.599 169.117 190.820  0.00  0.00    +0.190 C 
ATOM      9  O   UNL     1     148.828 168.496 190.429  0.00  0.00    -0.344 OA
ATOM     10  O   UNL     1     146.843 167.237 193.055  0.00  0.00    -0.458 OA
ATOM     11  C   UNL     1     146.764 166.209 193.941  0.00  0.00    +0.332 C 
ATOM     12  O   UNL     1     146.619 165.029 193.677  0.00  0.00    -0.246 OA
ATOM     13  C   UNL     1     146.916 166.761 195.299  0.00  0.00    +0.021 C 
ATOM     14  C   UNL     1     147.891 166.386 196.152  0.00  0.00    -0.066 C 
ATOM     15  C   UNL     1     148.991 165.390 195.819  0.00  0.00    -0.028 C 
ATOM     16  C   UNL     1     150.392 166.016 195.880  0.00  0.00    -0.031 C 
ATOM     17  C   UNL     1     151.426 165.147 195.216  0.00  0.00    -0.087 C 
ATOM     18  C   UNL     1     152.024 165.354 194.029  0.00  0.00    -0.085 C 
ATOM     19  H   UNL     1     150.972 167.128 193.458  0.00  0.00    +0.034 HD
ATOM     20  H   UNL     1     152.192 165.535 191.165  0.00  0.00    +0.027 HD
ATOM     21  H   UNL     1     150.651 165.067 191.844  0.00  0.00    +0.027 HD
ATOM     22  H   UNL     1     151.271 167.825 190.647  0.00  0.00    +0.029 HD
ATOM     23  H   UNL     1     150.506 166.518 189.790  0.00  0.00    +0.029 HD
ATOM     24  H   UNL     1     149.344 167.820 192.302  0.00  0.00    +0.060 HD
ATOM     25  H   UNL     1     148.115 165.921 190.221  0.00  0.00    +0.033 HD
ATOM     26  H   UNL     1     148.494 165.487 191.895  0.00  0.00    +0.033 HD
ATOM     27  H   UNL     1     146.049 166.087 191.511  0.00  0.00    +0.074 HD
ATOM     28  H   UNL     1     145.549 168.529 191.243  0.00  0.00    +0.035 HD
ATOM     29  H   UNL     1     146.258 167.749 189.807  0.00  0.00    +0.035 HD
ATOM     30  H   UNL     1     146.175 167.503 195.572  0.00  0.00    +0.069 HD
ATOM     31  H   UNL     1     148.932 164.548 196.520  0.00  0.00    +0.031 HD
ATOM     32  H   UNL     1     148.842 164.960 194.822  0.00  0.00    +0.031 HD
ATOM     33  H   UNL     1     150.691 166.153 196.928  0.00  0.00    +0.031 HD
ATOM     34  H   UNL     1     150.378 167.021 195.446  0.00  0.00    +0.031 HD
ATOM     35  H   UNL     1     151.719 164.263 195.781  0.00  0.00    +0.057 HD
ATOM     36  H   UNL     1     152.768 164.625 193.707  0.00  0.00    +0.057 HD
ENDROOT
BRANCH   8  37
ATOM     37  C   UNL     1     147.307 170.233 189.770  0.00  0.00    +0.087 C 
ATOM     38  C   UNL     1     146.253 171.226 190.265  0.00  0.00    +0.026 C 
ATOM     39  S   UNL     1     145.630 171.987 188.735  0.00  0.00    -0.066 S 
ATOM     40  C   UNL     1     146.020 170.580 187.774  0.00  0.00    +0.272 C 
ATOM     41  O   UNL     1     145.625 170.379 186.640  0.00  0.00    -0.263 OA
ATOM     42  N   UNL     1     146.842 169.752 188.480  0.00  0.00    -0.298 N 
ATOM     43  H   UNL     1     148.238 170.788 189.579  0.00  0.00    +0.056 HD
ATOM     44  H   UNL     1     146.672 171.978 190.940  0.00  0.00    +0.040 HD
ATOM     45  H   UNL     1     145.411 170.732 190.760  0.00  0.00    +0.040 HD
ATOM     46  H   UNL     1     147.182 168.922 188.016  0.00  0.00    +0.150 HD
ENDBRANCH   8  37
BRANCH   1  47
ATOM     47  C   UNL     1     153.022 167.352 192.935  0.00  0.00    -0.059 C 
ATOM     48  H   UNL     1     153.901 166.828 193.323  0.00  0.00    +0.024 HD
ATOM     49  H   UNL     1     152.922 168.296 193.482  0.00  0.00    +0.024 HD
ATOM     50  H   UNL     1     153.223 167.594 191.885  0.00  0.00    +0.024 HD
ENDBRANCH   1  47
BRANCH  14  51
ATOM     51  C   UNL     1     147.932 166.959 197.545  0.00  0.00    -0.043 C 
ATOM     52  H   UNL     1     147.382 166.312 198.236  0.00  0.00    +0.027 HD
ATOM     53  H   UNL     1     147.478 167.954 197.594  0.00  0.00    +0.027 HD
ATOM     54  H   UNL     1     148.964 167.050 197.896  0.00  0.00    +0.027 HD
ENDBRANCH  14  51
BRANCH   8  55
ATOM     55  O   UNL     1     147.740 169.737 192.096  0.00  0.00    -0.363 OA
ATOM     56  H   UNL     1     147.650 169.044 192.775  0.00  0.00    +0.213 HD
ENDBRANCH   8  55
TORSDOF 4
ENDMDL
MODEL 2
REMARK VINA RESULT:      -6.3     16.685     18.724
REMARK  Name = Latrunculin B_conf2
REMARK  4 active torsions:
REMARK  status: ('A' for Active; 'I' for Inactive)
REMARK    1  A    between atoms: C_1  and  C_2
REMARK    2  A    between atoms: C_9  and  C_11
REMARK    3  A    between atoms: C_9  and  O_17
REMARK    4  A    between atoms: C_22  and  C_27
REMARK                            x       y       z     vdW  Elec       q    Type
REMARK                         _______ _______ _______ _____ _____    ______ ____
ROOT
ATOM      1  C   UNL     1     134.364 157.107 193.388  0.00  0.00    -0.026 C 
ATOM      2  C   UNL     1     133.000 156.893 194.078  0.00  0.00    -0.045 C 
ATOM      3  C   UNL     1     132.745 157.825 195.271  0.00  0.00    -0.026 C 
ATOM      4  C   UNL     1     133.640 157.567 196.495  0.00  0.00    +0.065 C 
ATOM      5  C   UNL     1     133.342 156.225 197.165  0.00  0.00    +0.011 C 
ATOM      6  C   UNL     1     134.196 156.051 198.423  0.00  0.00    +0.111 C 
ATOM      7  C   UNL     1     134.030 157.260 199.346  0.00  0.00    +0.040 C 
ATOM      8  C   UNL     1     134.231 158.586 198.592  0.00  0.00    +0.190 C 
ATOM      9  O   UNL     1     133.395 158.625 197.431  0.00  0.00    -0.344 OA
ATOM     10  O   UNL     1     135.593 155.946 198.070  0.00  0.00    -0.458 OA
ATOM     11  C   UNL     1     135.975 154.734 197.586  0.00  0.00    +0.332 C 
ATOM     12  O   UNL     1     135.281 153.738 197.486  0.00  0.00    -0.246 OA
ATOM     13  C   UNL     1     137.384 154.831 197.165  0.00  0.00    +0.021 C 
ATOM     14  C   UNL     1     137.806 154.587 195.908  0.00  0.00    -0.066 C 
ATOM     15  C   UNL     1     136.891 154.233 194.745  0.00  0.00    -0.028 C 
ATOM     16  C   UNL     1     136.939 155.276 193.619  0.00  0.00    -0.031 C 
ATOM     17  C   UNL     1     135.794 155.115 192.655  0.00  0.00    -0.087 C 
ATOM     18  C   UNL     1     134.708 155.901 192.542  0.00  0.00    -0.085 C 
ATOM     19  H   UNL     1     135.128 157.243 194.155  0.00  0.00    +0.034 HD
ATOM     20  H   UNL     1     132.197 157.049 193.344  0.00  0.00    +0.027 HD
ATOM     21  H   UNL     1     132.901 155.852 194.406  0.00  0.00    +0.027 HD
ATOM     22  H   UNL     1     132.852 158.871 194.959  0.00  0.00    +0.029 HD
ATOM     23  H   UNL     1     131.694 157.728 195.576  0.00  0.00    +0.029 HD
ATOM     24  H   UNL     1     134.689 157.620 196.187  0.00  0.00    +0.060 HD
ATOM     25  H   UNL     1     132.284 156.186 197.455  0.00  0.00    +0.033 HD
ATOM     26  H   UNL     1     133.527 155.406 196.465  0.00  0.00    +0.033 HD
ATOM     27  H   UNL     1     133.893 155.151 198.972  0.00  0.00    +0.074 HD
ATOM     28  H   UNL     1     134.753 157.181 200.167  0.00  0.00    +0.035 HD
ATOM     29  H   UNL     1     133.018 157.228 199.766  0.00  0.00    +0.035 HD
ATOM     30  H   UNL     1     138.073 155.115 197.952  0.00  0.00    +0.069 HD
ATOM     31  H   UNL     1     137.181 153.250 194.352  0.00  0.00    +0.031 HD
ATOM     32  H   UNL     1     135.854 154.127 195.081  0.00  0.00    +0.031 HD
ATOM     33  H   UNL     1     137.873 155.166 193.052  0.00  0.00    +0.031 HD
ATOM     34  H   UNL     1     136.968 156.287 194.038  0.00  0.00    +0.031 HD
ATOM     35  H   UNL     1     135.879 154.270 191.973  0.00  0.00    +0.057 HD
ATOM     36  H   UNL     1     133.980 155.645 191.772  0.00  0.00    +0.057 HD
ENDROOT
BRANCH   8  37
ATOM     37  C   UNL     1     133.810 159.791 199.488  0.00  0.00    +0.087 C 
ATOM     38  C   UNL     1     134.981 160.735 199.769  0.00  0.00    +0.026 C 
ATOM     39  S   UNL     1     134.461 161.629 201.265  0.00  0.00    -0.066 S 
ATOM     40  C   UNL     1     133.443 160.313 201.802  0.00  0.00    +0.272 C 
ATOM     41  O   UNL     1     132.961 160.214 202.915  0.00  0.00    -0.263 OA
ATOM     42  N   UNL     1     133.259 159.427 200.782  0.00  0.00    -0.298 N 
ATOM     43  H   UNL     1     133.028 160.361 198.965  0.00  0.00    +0.056 HD
ATOM     44  H   UNL     1     135.169 161.424 198.941  0.00  0.00    +0.040 HD
ATOM     45  H   UNL     1     135.905 160.199 200.004  0.00  0.00    +0.040 HD
ATOM     46  H   UNL     1     132.646 158.641 200.949  0.00  0.00    +0.150 HD
ENDBRANCH   8  37
BRANCH   1  47
ATOM     47  C   UNL     1     134.366 158.364 192.514  0.00  0.00    -0.059 C 
ATOM     48  H   UNL     1     134.714 159.236 193.077  0.00  0.00    +0.024 HD
ATOM     49  H   UNL     1     133.365 158.589 192.129  0.00  0.00    +0.024 HD
ATOM     50  H   UNL     1     135.035 158.240 191.655  0.00  0.00    +0.024 HD
ENDBRANCH   1  47
BRANCH  14  51
ATOM     51  C   UNL     1     139.276 154.649 195.583  0.00  0.00    -0.043 C 
ATOM     52  H   UNL     1     139.851 154.899 196.481  0.00  0.00    +0.027 HD
ATOM     53  H   UNL     1     139.499 155.410 194.828  0.00  0.00    +0.027 HD
ATOM     54  H   UNL     1     139.629 153.688 195.196  0.00  0.00    +0.027 HD
ENDBRANCH  14  51
BRANCH   8  55
ATOM     55  O   UNL     1     135.598 158.765 198.225  0.00  0.00    -0.363 OA
ATOM     56  H   UNL     1     136.067 159.129 198.997  0.00  0.00    +0.213 HD
ENDBRANCH   8  55
TORSDOF 4
ENDMDL
MODEL 3
REMARK VINA RESULT:      -6.0     13.536     16.127
REMARK  Name = Latrunculin B_conf2
REMARK  4 active torsions:
REMARK  status: ('A' for Active; 'I' for Inactive)
REMARK    1  A    between atoms: C_1  and  C_2
REMARK    2  A    between atoms: C_9  and  C_11
REMARK    3  A    between atoms: C_9  and  O_17
REMARK    4  A    between atoms: C_22  and  C_27
REMARK                            x       y       z     vdW  Elec       q    Type
REMARK                         _______ _______ _______ _____ _____    ______ ____
ROOT
ATOM      1  C   UNL     1     155.989 173.812 182.052  0.00  0.00    -0.026 C 
ATOM      2  C   UNL     1     156.719 173.943 183.406  0.00  0.00    -0.045 C 
ATOM      3  C   UNL     1     158.248 173.839 183.308  0.00  0.00    -0.026 C 
ATOM      4  C   UNL     1     158.777 172.449 182.919  0.00  0.00    +0.065 C 
ATOM      5  C   UNL     1     158.529 171.404 184.008  0.00  0.00    +0.011 C 
ATOM      6  C   UNL     1     159.146 170.059 183.613  0.00  0.00    +0.111 C 
ATOM      7  C   UNL     1     160.620 170.241 183.246  0.00  0.00    +0.040 C 
ATOM      8  C   UNL     1     160.820 171.381 182.232  0.00  0.00    +0.190 C 
ATOM      9  O   UNL     1     160.188 172.576 182.702  0.00  0.00    -0.344 OA
ATOM     10  O   UNL     1     158.463 169.513 182.463  0.00  0.00    -0.458 OA
ATOM     11  C   UNL     1     157.260 168.937 182.728  0.00  0.00    +0.332 C 
ATOM     12  O   UNL     1     156.750 168.786 183.824  0.00  0.00    -0.246 OA
ATOM     13  C   UNL     1     156.648 168.543 181.447  0.00  0.00    +0.021 C 
ATOM     14  C   UNL     1     155.451 168.996 181.021  0.00  0.00    -0.066 C 
ATOM     15  C   UNL     1     154.598 170.008 181.769  0.00  0.00    -0.028 C 
ATOM     16  C   UNL     1     154.383 171.303 180.973  0.00  0.00    -0.031 C 
ATOM     17  C   UNL     1     153.855 172.415 181.838  0.00  0.00    -0.087 C 
ATOM     18  C   UNL     1     154.528 173.491 182.284  0.00  0.00    -0.085 C 
ATOM     19  H   UNL     1     156.451 173.007 181.479  0.00  0.00    +0.034 HD
ATOM     20  H   UNL     1     156.469 174.914 183.857  0.00  0.00    +0.027 HD
ATOM     21  H   UNL     1     156.350 173.188 184.109  0.00  0.00    +0.027 HD
ATOM     22  H   UNL     1     158.630 174.583 182.598  0.00  0.00    +0.029 HD
ATOM     23  H   UNL     1     158.683 174.124 184.276  0.00  0.00    +0.029 HD
ATOM     24  H   UNL     1     158.313 172.141 181.977  0.00  0.00    +0.060 HD
ATOM     25  H   UNL     1     158.991 171.734 184.947  0.00  0.00    +0.033 HD
ATOM     26  H   UNL     1     157.456 171.290 184.184  0.00  0.00    +0.033 HD
ATOM     27  H   UNL     1     159.081 169.347 184.445  0.00  0.00    +0.074 HD
ATOM     28  H   UNL     1     161.001 169.300 182.834  0.00  0.00    +0.035 HD
ATOM     29  H   UNL     1     161.172 170.470 184.166  0.00  0.00    +0.035 HD
ATOM     30  H   UNL     1     157.236 167.848 180.859  0.00  0.00    +0.069 HD
ATOM     31  H   UNL     1     153.626 169.551 182.000  0.00  0.00    +0.031 HD
ATOM     32  H   UNL     1     155.046 170.261 182.736  0.00  0.00    +0.031 HD
ATOM     33  H   UNL     1     153.655 171.128 180.169  0.00  0.00    +0.031 HD
ATOM     34  H   UNL     1     155.310 171.597 180.469  0.00  0.00    +0.031 HD
ATOM     35  H   UNL     1     152.805 172.328 182.114  0.00  0.00    +0.057 HD
ATOM     36  H   UNL     1     153.980 174.212 182.891  0.00  0.00    +0.057 HD
ENDROOT
BRANCH   8  37
ATOM     37  C   UNL     1     162.336 171.709 182.073  0.00  0.00    +0.087 C 
ATOM     38  C   UNL     1     163.225 170.548 182.525  0.00  0.00    +0.026 C 
ATOM     39  S   UNL     1     164.828 171.341 182.860  0.00  0.00    -0.066 S 
ATOM     40  C   UNL     1     164.087 172.882 183.221  0.00  0.00    +0.272 C 
ATOM     41  O   UNL     1     164.653 173.820 183.753  0.00  0.00    -0.263 OA
ATOM     42  N   UNL     1     162.789 172.879 182.805  0.00  0.00    -0.298 N 
ATOM     43  H   UNL     1     162.545 171.905 181.011  0.00  0.00    +0.056 HD
ATOM     44  H   UNL     1     163.319 169.772 181.761  0.00  0.00    +0.040 HD
ATOM     45  H   UNL     1     162.877 170.092 183.457  0.00  0.00    +0.040 HD
ATOM     46  H   UNL     1     162.260 173.734 182.914  0.00  0.00    +0.150 HD
ENDBRANCH   8  37
BRANCH   1  47
ATOM     47  C   UNL     1     156.107 175.091 181.219  0.00  0.00    -0.059 C 
ATOM     48  H   UNL     1     155.566 175.919 181.687  0.00  0.00    +0.024 HD
ATOM     49  H   UNL     1     155.704 174.953 180.209  0.00  0.00    +0.024 HD
ATOM     50  H   UNL     1     157.155 175.397 181.121  0.00  0.00    +0.024 HD
ENDBRANCH   1  47
BRANCH  14  51
ATOM     51  C   UNL     1     154.874 168.490 179.724  0.00  0.00    -0.043 C 
ATOM     52  H   UNL     1     154.230 167.624 179.909  0.00  0.00    +0.027 HD
ATOM     53  H   UNL     1     155.654 168.176 179.022  0.00  0.00    +0.027 HD
ATOM     54  H   UNL     1     154.283 169.269 179.233  0.00  0.00    +0.027 HD
ENDBRANCH  14  51
BRANCH   8  55
ATOM     55  O   UNL     1     160.309 171.021 180.950  0.00  0.00    -0.363 OA
ATOM     56  H   UNL     1     160.206 171.839 180.431  0.00  0.00    +0.213 HD
ENDBRANCH   8  55
TORSDOF 4
ENDMDL
MODEL 4
REMARK VINA RESULT:      -5.9     11.235     14.350
REMARK  Name = Latrunculin B_conf2
REMARK  4 active torsions:
REMARK  status: ('A' for Active; 'I' for Inactive)
REMARK    1  A    between atoms: C_1  and  C_2
REMARK    2  A    between atoms: C_9  and  C_11
REMARK    3  A    between atoms: C_9  and  O_17
REMARK    4  A    between atoms: C_22  and  C_27
REMARK                            x       y       z     vdW  Elec       q    Type
REMARK                         _______ _______ _______ _____ _____    ______ ____
ROOT
ATOM      1  C   UNL     1     155.985 172.795 182.125  0.00  0.00    -0.026 C 
ATOM      2  C   UNL     1     155.481 171.569 181.334  0.00  0.00    -0.045 C 
ATOM      3  C   UNL     1     155.120 170.361 182.209  0.00  0.00    -0.026 C 
ATOM      4  C   UNL     1     156.315 169.685 182.902  0.00  0.00    +0.065 C 
ATOM      5  C   UNL     1     157.253 168.996 181.909  0.00  0.00    +0.011 C 
ATOM      6  C   UNL     1     158.378 168.268 182.649  0.00  0.00    +0.111 C 
ATOM      7  C   UNL     1     157.794 167.332 183.709  0.00  0.00    +0.040 C 
ATOM      8  C   UNL     1     156.772 168.051 184.607  0.00  0.00    +0.190 C 
ATOM      9  O   UNL     1     155.784 168.705 183.804  0.00  0.00    -0.344 OA
ATOM     10  O   UNL     1     159.236 169.220 183.318  0.00  0.00    -0.458 OA
ATOM     11  C   UNL     1     160.120 169.863 182.510  0.00  0.00    +0.332 C 
ATOM     12  O   UNL     1     160.295 169.671 181.320  0.00  0.00    -0.246 OA
ATOM     13  C   UNL     1     160.828 170.873 183.317  0.00  0.00    +0.021 C 
ATOM     14  C   UNL     1     160.817 172.192 183.038  0.00  0.00    -0.066 C 
ATOM     15  C   UNL     1     160.039 172.825 181.895  0.00  0.00    -0.028 C 
ATOM     16  C   UNL     1     158.973 173.816 182.385  0.00  0.00    -0.031 C 
ATOM     17  C   UNL     1     157.986 174.161 181.302  0.00  0.00    -0.087 C 
ATOM     18  C   UNL     1     156.712 173.744 181.198  0.00  0.00    -0.085 C 
ATOM     19  H   UNL     1     156.668 172.454 182.905  0.00  0.00    +0.034 HD
ATOM     20  H   UNL     1     154.590 171.855 180.758  0.00  0.00    +0.027 HD
ATOM     21  H   UNL     1     156.227 171.267 180.590  0.00  0.00    +0.027 HD
ATOM     22  H   UNL     1     154.381 170.652 182.965  0.00  0.00    +0.029 HD
ATOM     23  H   UNL     1     154.606 169.616 181.586  0.00  0.00    +0.029 HD
ATOM     24  H   UNL     1     156.856 170.432 183.490  0.00  0.00    +0.060 HD
ATOM     25  H   UNL     1     156.691 168.260 181.322  0.00  0.00    +0.033 HD
ATOM     26  H   UNL     1     157.670 169.730 181.215  0.00  0.00    +0.033 HD
ATOM     27  H   UNL     1     158.975 167.671 181.950  0.00  0.00    +0.074 HD
ATOM     28  H   UNL     1     158.613 166.930 184.317  0.00  0.00    +0.035 HD
ATOM     29  H   UNL     1     157.303 166.499 183.191  0.00  0.00    +0.035 HD
ATOM     30  H   UNL     1     161.370 170.475 184.167  0.00  0.00    +0.069 HD
ATOM     31  H   UNL     1     160.743 173.339 181.228  0.00  0.00    +0.031 HD
ATOM     32  H   UNL     1     159.551 172.060 181.282  0.00  0.00    +0.031 HD
ATOM     33  H   UNL     1     159.455 174.748 182.710  0.00  0.00    +0.031 HD
ATOM     34  H   UNL     1     158.468 173.423 183.273  0.00  0.00    +0.031 HD
ATOM     35  H   UNL     1     158.361 174.835 180.532  0.00  0.00    +0.057 HD
ATOM     36  H   UNL     1     156.131 174.109 180.350  0.00  0.00    +0.057 HD
ENDROOT
BRANCH   8  37
ATOM     37  C   UNL     1     156.013 167.022 185.500  0.00  0.00    +0.087 C 
ATOM     38  C   UNL     1     154.997 166.205 184.699  0.00  0.00    +0.026 C 
ATOM     39  S   UNL     1     153.846 165.592 185.967  0.00  0.00    -0.066 S 
ATOM     40  C   UNL     1     154.170 166.937 187.035  0.00  0.00    +0.272 C 
ATOM     41  O   UNL     1     153.506 167.225 188.013  0.00  0.00    -0.263 OA
ATOM     42  N   UNL     1     155.284 167.601 186.615  0.00  0.00    -0.298 N 
ATOM     43  H   UNL     1     156.746 166.326 185.935  0.00  0.00    +0.056 HD
ATOM     44  H   UNL     1     155.463 165.380 184.153  0.00  0.00    +0.040 HD
ATOM     45  H   UNL     1     154.425 166.819 183.997  0.00  0.00    +0.040 HD
ATOM     46  H   UNL     1     155.608 168.375 187.178  0.00  0.00    +0.150 HD
ENDBRANCH   8  37
BRANCH   1  47
ATOM     47  C   UNL     1     154.836 173.533 182.818  0.00  0.00    -0.059 C 
ATOM     48  H   UNL     1     153.891 173.378 182.289  0.00  0.00    +0.024 HD
ATOM     49  H   UNL     1     155.023 174.612 182.868  0.00  0.00    +0.024 HD
ATOM     50  H   UNL     1     154.701 173.169 183.843  0.00  0.00    +0.024 HD
ENDBRANCH   1  47
BRANCH  14  51
ATOM     51  C   UNL     1     161.622 173.146 183.884  0.00  0.00    -0.043 C 
ATOM     52  H   UNL     1     161.158 174.137 183.883  0.00  0.00    +0.027 HD
ATOM     53  H   UNL     1     162.646 173.261 183.513  0.00  0.00    +0.027 HD
ATOM     54  H   UNL     1     161.684 172.789 184.917  0.00  0.00    +0.027 HD
ENDBRANCH  14  51
BRANCH   8  55
ATOM     55  O   UNL     1     157.416 168.991 185.464  0.00  0.00    -0.363 OA
ATOM     56  H   UNL     1     157.300 169.876 185.075  0.00  0.00    +0.213 HD
ENDBRANCH   8  55
TORSDOF 4
ENDMDL
MODEL 5
REMARK VINA RESULT:      -5.8     13.796     16.832
REMARK  Name = Latrunculin B_conf2
REMARK  4 active torsions:
REMARK  status: ('A' for Active; 'I' for Inactive)
REMARK    1  A    between atoms: C_1  and  C_2
REMARK    2  A    between atoms: C_9  and  C_11
REMARK    3  A    between atoms: C_9  and  O_17
REMARK    4  A    between atoms: C_22  and  C_27
REMARK                            x       y       z     vdW  Elec       q    Type
REMARK                         _______ _______ _______ _____ _____    ______ ____
ROOT
ATOM      1  C   UNL     1     156.349 175.567 179.050  0.00  0.00    -0.026 C 
ATOM      2  C   UNL     1     157.107 176.315 180.168  0.00  0.00    -0.045 C 
ATOM      3  C   UNL     1     158.439 175.664 180.569  0.00  0.00    -0.026 C 
ATOM      4  C   UNL     1     158.305 174.307 181.280  0.00  0.00    +0.065 C 
ATOM      5  C   UNL     1     157.667 174.432 182.664  0.00  0.00    +0.011 C 
ATOM      6  C   UNL     1     157.632 173.072 183.365  0.00  0.00    +0.111 C 
ATOM      7  C   UNL     1     159.029 172.447 183.376  0.00  0.00    +0.040 C 
ATOM      8  C   UNL     1     159.668 172.451 181.976  0.00  0.00    +0.190 C 
ATOM      9  O   UNL     1     159.626 173.768 181.419  0.00  0.00    -0.344 OA
ATOM     10  O   UNL     1     156.744 172.170 182.667  0.00  0.00    -0.458 OA
ATOM     11  C   UNL     1     155.420 172.374 182.895  0.00  0.00    +0.332 C 
ATOM     12  O   UNL     1     154.929 173.183 183.663  0.00  0.00    -0.246 OA
ATOM     13  C   UNL     1     154.658 171.462 182.025  0.00  0.00    +0.021 C 
ATOM     14  C   UNL     1     153.760 171.880 181.110  0.00  0.00    -0.066 C 
ATOM     15  C   UNL     1     153.449 173.338 180.812  0.00  0.00    -0.028 C 
ATOM     16  C   UNL     1     153.788 173.730 179.366  0.00  0.00    -0.031 C 
ATOM     17  C   UNL     1     153.817 175.224 179.181  0.00  0.00    -0.087 C 
ATOM     18  C   UNL     1     154.901 176.005 179.028  0.00  0.00    -0.085 C 
ATOM     19  H   UNL     1     156.403 174.495 179.246  0.00  0.00    +0.034 HD
ATOM     20  H   UNL     1     157.314 177.343 179.837  0.00  0.00    +0.027 HD
ATOM     21  H   UNL     1     156.472 176.414 181.055  0.00  0.00    +0.027 HD
ATOM     22  H   UNL     1     159.081 175.549 179.688  0.00  0.00    +0.029 HD
ATOM     23  H   UNL     1     158.984 176.355 181.227  0.00  0.00    +0.029 HD
ATOM     24  H   UNL     1     157.725 173.628 180.647  0.00  0.00    +0.060 HD
ATOM     25  H   UNL     1     158.255 175.124 183.280  0.00  0.00    +0.033 HD
ATOM     26  H   UNL     1     156.656 174.838 182.577  0.00  0.00    +0.033 HD
ATOM     27  H   UNL     1     157.293 173.182 184.402  0.00  0.00    +0.074 HD
ATOM     28  H   UNL     1     158.955 171.420 183.753  0.00  0.00    +0.035 HD
ATOM     29  H   UNL     1     159.654 173.029 184.064  0.00  0.00    +0.035 HD
ATOM     30  H   UNL     1     154.871 170.410 182.175  0.00  0.00    +0.069 HD
ATOM     31  H   UNL     1     152.383 173.520 181.004  0.00  0.00    +0.031 HD
ATOM     32  H   UNL     1     153.993 174.002 181.492  0.00  0.00    +0.031 HD
ATOM     33  H   UNL     1     153.030 173.322 178.684  0.00  0.00    +0.031 HD
ATOM     34  H   UNL     1     154.734 173.273 179.060  0.00  0.00    +0.031 HD
ATOM     35  H   UNL     1     152.840 175.706 179.158  0.00  0.00    +0.057 HD
ATOM     36  H   UNL     1     154.736 177.073 178.887  0.00  0.00    +0.057 HD
ENDROOT
BRANCH   8  37
ATOM     37  C   UNL     1     161.172 172.048 182.063  0.00  0.00    +0.087 C 
ATOM     38  C   UNL     1     161.842 172.598 183.324  0.00  0.00    +0.026 C 
ATOM     39  S   UNL     1     163.613 172.577 182.912  0.00  0.00    -0.066 S 
ATOM     40  C   UNL     1     163.304 172.730 181.198  0.00  0.00    +0.272 C 
ATOM     41  O   UNL     1     164.144 173.002 180.360  0.00  0.00    -0.263 OA
ATOM     42  N   UNL     1     161.987 172.485 180.943  0.00  0.00    -0.298 N 
ATOM     43  H   UNL     1     161.241 170.950 182.090  0.00  0.00    +0.056 HD
ATOM     44  H   UNL     1     161.633 171.989 184.208  0.00  0.00    +0.040 HD
ATOM     45  H   UNL     1     161.559 173.635 183.531  0.00  0.00    +0.040 HD
ATOM     46  H   UNL     1     161.688 172.494 179.978  0.00  0.00    +0.150 HD
ENDBRANCH   8  37
BRANCH   1  47
ATOM     47  C   UNL     1     156.980 175.812 177.677  0.00  0.00    -0.059 C 
ATOM     48  H   UNL     1     156.298 175.523 176.872  0.00  0.00    +0.024 HD
ATOM     49  H   UNL     1     157.909 175.243 177.553  0.00  0.00    +0.024 HD
ATOM     50  H   UNL     1     157.217 176.873 177.540  0.00  0.00    +0.024 HD
ENDBRANCH   1  47
BRANCH  14  51
ATOM     51  C   UNL     1     152.981 170.870 180.307  0.00  0.00    -0.043 C 
ATOM     52  H   UNL     1     153.428 169.877 180.411  0.00  0.00    +0.027 HD
ATOM     53  H   UNL     1     152.968 171.115 179.239  0.00  0.00    +0.027 HD
ATOM     54  H   UNL     1     151.941 170.825 180.646  0.00  0.00    +0.027 HD
ENDBRANCH  14  51
BRANCH   8  55
ATOM     55  O   UNL     1     159.012 171.526 181.111  0.00  0.00    -0.363 OA
ATOM     56  H   UNL     1     159.534 171.463 180.292  0.00  0.00    +0.213 HD
ENDBRANCH   8  55
TORSDOF 4
ENDMDL
MODEL 6
REMARK VINA RESULT:      -5.8     12.429     16.325
REMARK  Name = Latrunculin B_conf2
REMARK  4 active torsions:
REMARK  status: ('A' for Active; 'I' for Inactive)
REMARK    1  A    between atoms: C_1  and  C_2
REMARK    2  A    between atoms: C_9  and  C_11
REMARK    3  A    between atoms: C_9  and  O_17
REMARK    4  A    between atoms: C_22  and  C_27
REMARK                            x       y       z     vdW  Elec       q    Type
REMARK                         _______ _______ _______ _____ _____    ______ ____
ROOT
ATOM      1  C   UNL     1     152.338 174.507 181.041  0.00  0.00    -0.026 C 
ATOM      2  C   UNL     1     152.770 173.099 180.578  0.00  0.00    -0.045 C 
ATOM      3  C   UNL     1     153.765 172.405 181.520  0.00  0.00    -0.026 C 
ATOM      4  C   UNL     1     155.162 173.046 181.569  0.00  0.00    +0.065 C 
ATOM      5  C   UNL     1     155.923 172.891 180.252  0.00  0.00    +0.011 C 
ATOM      6  C   UNL     1     157.335 173.468 180.375  0.00  0.00    +0.111 C 
ATOM      7  C   UNL     1     158.050 172.862 181.584  0.00  0.00    +0.040 C 
ATOM      8  C   UNL     1     157.191 172.945 182.858  0.00  0.00    +0.190 C 
ATOM      9  O   UNL     1     155.893 172.392 182.614  0.00  0.00    -0.344 OA
ATOM     10  O   UNL     1     157.277 174.900 180.562  0.00  0.00    -0.458 OA
ATOM     11  C   UNL     1     157.032 175.618 179.434  0.00  0.00    +0.332 C 
ATOM     12  O   UNL     1     156.923 175.183 178.302  0.00  0.00    -0.246 OA
ATOM     13  C   UNL     1     156.885 177.034 179.815  0.00  0.00    +0.021 C 
ATOM     14  C   UNL     1     155.775 177.761 179.574  0.00  0.00    -0.066 C 
ATOM     15  C   UNL     1     154.510 177.213 178.932  0.00  0.00    -0.028 C 
ATOM     16  C   UNL     1     153.293 177.290 179.866  0.00  0.00    -0.031 C 
ATOM     17  C   UNL     1     152.152 176.440 179.374  0.00  0.00    -0.087 C 
ATOM     18  C   UNL     1     151.733 175.267 179.882  0.00  0.00    -0.085 C 
ATOM     19  H   UNL     1     153.216 175.042 181.407  0.00  0.00    +0.034 HD
ATOM     20  H   UNL     1     151.880 172.461 180.490  0.00  0.00    +0.027 HD
ATOM     21  H   UNL     1     153.199 173.147 179.571  0.00  0.00    +0.027 HD
ATOM     22  H   UNL     1     153.352 172.360 182.535  0.00  0.00    +0.029 HD
ATOM     23  H   UNL     1     153.869 171.356 181.212  0.00  0.00    +0.029 HD
ATOM     24  H   UNL     1     155.061 174.103 181.834  0.00  0.00    +0.060 HD
ATOM     25  H   UNL     1     156.005 171.827 179.997  0.00  0.00    +0.033 HD
ATOM     26  H   UNL     1     155.381 173.388 179.443  0.00  0.00    +0.033 HD
ATOM     27  H   UNL     1     157.923 173.244 179.476  0.00  0.00    +0.074 HD
ATOM     28  H   UNL     1     159.000 173.389 181.736  0.00  0.00    +0.035 HD
ATOM     29  H   UNL     1     158.266 171.811 181.357  0.00  0.00    +0.035 HD
ATOM     30  H   UNL     1     157.750 177.462 180.309  0.00  0.00    +0.069 HD
ATOM     31  H   UNL     1     154.306 177.777 178.012  0.00  0.00    +0.031 HD
ATOM     32  H   UNL     1     154.647 176.172 178.620  0.00  0.00    +0.031 HD
ATOM     33  H   UNL     1     152.937 178.327 179.926  0.00  0.00    +0.031 HD
ATOM     34  H   UNL     1     153.580 177.019 180.887  0.00  0.00    +0.031 HD
ATOM     35  H   UNL     1     151.610 176.843 178.519  0.00  0.00    +0.057 HD
ATOM     36  H   UNL     1     150.873 174.793 179.407  0.00  0.00    +0.057 HD
ENDROOT
BRANCH   8  37
ATOM     37  C   UNL     1     157.830 172.100 184.002  0.00  0.00    +0.087 C 
ATOM     38  C   UNL     1     159.279 171.718 183.693  0.00  0.00    +0.026 C 
ATOM     39  S   UNL     1     159.582 170.283 184.769  0.00  0.00    -0.066 S 
ATOM     40  C   UNL     1     157.893 169.835 184.792  0.00  0.00    +0.272 C 
ATOM     41  O   UNL     1     157.460 168.770 185.193  0.00  0.00    -0.263 OA
ATOM     42  N   UNL     1     157.136 170.861 184.308  0.00  0.00    -0.298 N 
ATOM     43  H   UNL     1     157.824 172.698 184.926  0.00  0.00    +0.056 HD
ATOM     44  H   UNL     1     159.980 172.529 183.908  0.00  0.00    +0.040 HD
ATOM     45  H   UNL     1     159.415 171.393 182.657  0.00  0.00    +0.040 HD
ATOM     46  H   UNL     1     156.133 170.746 184.314  0.00  0.00    +0.150 HD
ENDBRANCH   8  37
BRANCH   1  47
ATOM     47  C   UNL     1     151.332 174.441 182.193  0.00  0.00    -0.059 C 
ATOM     48  H   UNL     1     151.665 175.044 183.044  0.00  0.00    +0.024 HD
ATOM     49  H   UNL     1     151.188 173.413 182.544  0.00  0.00    +0.024 HD
ATOM     50  H   UNL     1     150.355 174.827 181.880  0.00  0.00    +0.024 HD
ENDBRANCH   1  47
BRANCH  14  51
ATOM     51  C   UNL     1     155.738 179.222 179.943  0.00  0.00    -0.043 C 
ATOM     52  H   UNL     1     156.435 179.422 180.763  0.00  0.00    +0.027 HD
ATOM     53  H   UNL     1     154.742 179.538 180.272  0.00  0.00    +0.027 HD
ATOM     54  H   UNL     1     156.015 179.844 179.086  0.00  0.00    +0.027 HD
ENDBRANCH  14  51
BRANCH   8  55
ATOM     55  O   UNL     1     157.078 174.292 183.312  0.00  0.00    -0.363 OA
ATOM     56  H   UNL     1     156.603 174.797 182.629  0.00  0.00    +0.213 HD
ENDBRANCH   8  55
TORSDOF 4
ENDMDL
MODEL 7
REMARK VINA RESULT:      -5.8     24.776     27.082
REMARK  Name = Latrunculin B_conf2
REMARK  4 active torsions:
REMARK  status: ('A' for Active; 'I' for Inactive)
REMARK    1  A    between atoms: C_1  and  C_2
REMARK    2  A    between atoms: C_9  and  C_11
REMARK    3  A    between atoms: C_9  and  O_17
REMARK    4  A    between atoms: C_22  and  C_27
REMARK                            x       y       z     vdW  Elec       q    Type
REMARK                         _______ _______ _______ _____ _____    ______ ____
ROOT
ATOM      1  C   UNL     1     153.670 192.160 200.407  0.00  0.00    -0.026 C 
ATOM      2  C   UNL     1     153.632 193.299 201.447  0.00  0.00    -0.045 C 
ATOM      3  C   UNL     1     153.713 192.823 202.905  0.00  0.00    -0.026 C 
ATOM      4  C   UNL     1     152.481 192.047 203.401  0.00  0.00    +0.065 C 
ATOM      5  C   UNL     1     151.236 192.928 203.500  0.00  0.00    +0.011 C 
ATOM      6  C   UNL     1     150.060 192.135 204.076  0.00  0.00    +0.111 C 
ATOM      7  C   UNL     1     150.464 191.474 205.395  0.00  0.00    +0.040 C 
ATOM      8  C   UNL     1     151.784 190.693 205.263  0.00  0.00    +0.190 C 
ATOM      9  O   UNL     1     152.798 191.532 204.700  0.00  0.00    -0.344 OA
ATOM     10  O   UNL     1     149.661 191.093 203.157  0.00  0.00    -0.458 OA
ATOM     11  C   UNL     1     148.919 191.513 202.098  0.00  0.00    +0.332 C 
ATOM     12  O   UNL     1     148.518 192.645 201.892  0.00  0.00    -0.246 OA
ATOM     13  C   UNL     1     148.700 190.361 201.206  0.00  0.00    +0.021 C 
ATOM     14  C   UNL     1     149.091 190.332 199.915  0.00  0.00    -0.066 C 
ATOM     15  C   UNL     1     149.853 191.450 199.220  0.00  0.00    -0.028 C 
ATOM     16  C   UNL     1     151.240 191.006 198.734  0.00  0.00    -0.031 C 
ATOM     17  C   UNL     1     152.113 192.179 198.377  0.00  0.00    -0.087 C 
ATOM     18  C   UNL     1     153.156 192.660 199.075  0.00  0.00    -0.085 C 
ATOM     19  H   UNL     1     153.037 191.342 200.757  0.00  0.00    +0.034 HD
ATOM     20  H   UNL     1     154.471 193.983 201.263  0.00  0.00    +0.027 HD
ATOM     21  H   UNL     1     152.726 193.902 201.315  0.00  0.00    +0.027 HD
ATOM     22  H   UNL     1     154.610 192.209 203.050  0.00  0.00    +0.029 HD
ATOM     23  H   UNL     1     153.863 193.697 203.553  0.00  0.00    +0.029 HD
ATOM     24  H   UNL     1     152.301 191.199 202.732  0.00  0.00    +0.060 HD
ATOM     25  H   UNL     1     151.438 193.778 204.164  0.00  0.00    +0.033 HD
ATOM     26  H   UNL     1     150.977 193.327 202.516  0.00  0.00    +0.033 HD
ATOM     27  H   UNL     1     149.206 192.797 204.267  0.00  0.00    +0.074 HD
ATOM     28  H   UNL     1     149.660 190.801 205.715  0.00  0.00    +0.035 HD
ATOM     29  H   UNL     1     150.581 192.264 206.148  0.00  0.00    +0.035 HD
ATOM     30  H   UNL     1     148.191 189.522 201.666  0.00  0.00    +0.069 HD
ATOM     31  H   UNL     1     149.259 191.807 198.368  0.00  0.00    +0.031 HD
ATOM     32  H   UNL     1     149.973 192.314 199.883  0.00  0.00    +0.031 HD
ATOM     33  H   UNL     1     151.135 190.380 197.838  0.00  0.00    +0.031 HD
ATOM     34  H   UNL     1     151.718 190.367 199.483  0.00  0.00    +0.031 HD
ATOM     35  H   UNL     1     151.863 192.672 197.438  0.00  0.00    +0.057 HD
ATOM     36  H   UNL     1     153.691 193.514 198.657  0.00  0.00    +0.057 HD
ENDROOT
BRANCH   8  37
ATOM     37  C   UNL     1     152.297 190.250 206.667  0.00  0.00    +0.087 C 
ATOM     38  C   UNL     1     152.333 191.414 207.660  0.00  0.00    +0.026 C 
ATOM     39  S   UNL     1     153.507 190.857 208.932  0.00  0.00    -0.066 S 
ATOM     40  C   UNL     1     154.363 189.823 207.812  0.00  0.00    +0.272 C 
ATOM     41  O   UNL     1     155.447 189.313 208.025  0.00  0.00    -0.263 OA
ATOM     42  N   UNL     1     153.627 189.665 206.675  0.00  0.00    -0.298 N 
ATOM     43  H   UNL     1     151.616 189.483 207.065  0.00  0.00    +0.056 HD
ATOM     44  H   UNL     1     151.350 191.625 208.091  0.00  0.00    +0.040 HD
ATOM     45  H   UNL     1     152.732 192.332 207.216  0.00  0.00    +0.040 HD
ATOM     46  H   UNL     1     153.991 189.047 205.964  0.00  0.00    +0.150 HD
ENDBRANCH   8  37
BRANCH   1  47
ATOM     47  C   UNL     1     155.084 191.598 200.234  0.00  0.00    -0.059 C 
ATOM     48  H   UNL     1     155.211 191.146 199.245  0.00  0.00    +0.024 HD
ATOM     49  H   UNL     1     155.309 190.834 200.986  0.00  0.00    +0.024 HD
ATOM     50  H   UNL     1     155.833 192.393 200.329  0.00  0.00    +0.024 HD
ENDBRANCH   1  47
BRANCH  14  51
ATOM     51  C   UNL     1     148.769 189.134 199.060  0.00  0.00    -0.043 C 
ATOM     52  H   UNL     1     149.273 189.214 198.091  0.00  0.00    +0.027 HD
ATOM     53  H   UNL     1     147.695 189.044 198.866  0.00  0.00    +0.027 HD
ATOM     54  H   UNL     1     149.093 188.210 199.549  0.00  0.00    +0.027 HD
ENDBRANCH  14  51
BRANCH   8  55
ATOM     55  O   UNL     1     151.609 189.524 204.466  0.00  0.00    -0.363 OA
ATOM     56  H   UNL     1     152.097 189.656 203.634  0.00  0.00    +0.213 HD
ENDBRANCH   8  55
TORSDOF 4
ENDMDL
MODEL 8
REMARK VINA RESULT:      -5.7     17.509     19.615
REMARK  Name = Latrunculin B_conf2
REMARK  4 active torsions:
REMARK  status: ('A' for Active; 'I' for Inactive)
REMARK    1  A    between atoms: C_1  and  C_2
REMARK    2  A    between atoms: C_9  and  C_11
REMARK    3  A    between atoms: C_9  and  O_17
REMARK    4  A    between atoms: C_22  and  C_27
REMARK                            x       y       z     vdW  Elec       q    Type
REMARK                         _______ _______ _______ _____ _____    ______ ____
ROOT
ATOM      1  C   UNL     1     131.975 154.877 196.671  0.00  0.00    -0.026 C 
ATOM      2  C   UNL     1     131.719 154.976 198.190  0.00  0.00    -0.045 C 
ATOM      3  C   UNL     1     132.037 156.352 198.793  0.00  0.00    -0.026 C 
ATOM      4  C   UNL     1     133.530 156.721 198.809  0.00  0.00    +0.065 C 
ATOM      5  C   UNL     1     134.338 155.843 199.764  0.00  0.00    +0.011 C 
ATOM      6  C   UNL     1     135.799 156.300 199.809  0.00  0.00    +0.111 C 
ATOM      7  C   UNL     1     135.875 157.796 200.122  0.00  0.00    +0.040 C 
ATOM      8  C   UNL     1     134.954 158.619 199.203  0.00  0.00    +0.190 C 
ATOM      9  O   UNL     1     133.626 158.087 199.231  0.00  0.00    -0.344 OA
ATOM     10  O   UNL     1     136.434 156.077 198.530  0.00  0.00    -0.458 OA
ATOM     11  C   UNL     1     136.795 154.791 198.284  0.00  0.00    +0.332 C 
ATOM     12  O   UNL     1     136.695 153.846 199.046  0.00  0.00    -0.246 OA
ATOM     13  C   UNL     1     137.312 154.715 196.906  0.00  0.00    +0.021 C 
ATOM     14  C   UNL     1     136.783 153.921 195.953  0.00  0.00    -0.066 C 
ATOM     15  C   UNL     1     135.558 153.041 196.147  0.00  0.00    -0.028 C 
ATOM     16  C   UNL     1     134.396 153.435 195.224  0.00  0.00    -0.031 C 
ATOM     17  C   UNL     1     133.097 152.812 195.659  0.00  0.00    -0.087 C 
ATOM     18  C   UNL     1     132.060 153.425 196.257  0.00  0.00    -0.085 C 
ATOM     19  H   UNL     1     132.917 155.377 196.440  0.00  0.00    +0.034 HD
ATOM     20  H   UNL     1     130.663 154.749 198.392  0.00  0.00    +0.027 HD
ATOM     21  H   UNL     1     132.292 154.208 198.721  0.00  0.00    +0.027 HD
ATOM     22  H   UNL     1     131.477 157.133 198.263  0.00  0.00    +0.029 HD
ATOM     23  H   UNL     1     131.655 156.383 199.822  0.00  0.00    +0.029 HD
ATOM     24  H   UNL     1     133.926 156.650 197.791  0.00  0.00    +0.060 HD
ATOM     25  H   UNL     1     133.921 155.917 200.776  0.00  0.00    +0.033 HD
ATOM     26  H   UNL     1     134.280 154.796 199.454  0.00  0.00    +0.033 HD
ATOM     27  H   UNL     1     136.349 155.755 200.586  0.00  0.00    +0.074 HD
ATOM     28  H   UNL     1     136.913 158.129 200.010  0.00  0.00    +0.035 HD
ATOM     29  H   UNL     1     135.571 157.939 201.166  0.00  0.00    +0.035 HD
ATOM     30  H   UNL     1     138.166 155.352 196.707  0.00  0.00    +0.069 HD
ATOM     31  H   UNL     1     135.840 151.996 195.962  0.00  0.00    +0.031 HD
ATOM     32  H   UNL     1     135.210 153.078 197.185  0.00  0.00    +0.031 HD
ATOM     33  H   UNL     1     134.605 153.096 194.200  0.00  0.00    +0.031 HD
ATOM     34  H   UNL     1     134.314 154.525 195.161  0.00  0.00    +0.031 HD
ATOM     35  H   UNL     1     132.999 151.748 195.445  0.00  0.00    +0.057 HD
ATOM     36  H   UNL     1     131.183 152.819 196.488  0.00  0.00    +0.057 HD
ENDROOT
BRANCH   8  37
ATOM     37  C   UNL     1     134.859 160.092 199.706  0.00  0.00    +0.087 C 
ATOM     38  C   UNL     1     135.130 160.204 201.208  0.00  0.00    +0.026 C 
ATOM     39  S   UNL     1     134.362 161.788 201.665  0.00  0.00    -0.066 S 
ATOM     40  C   UNL     1     133.202 161.701 200.361  0.00  0.00    +0.272 C 
ATOM     41  O   UNL     1     132.216 162.406 200.257  0.00  0.00    -0.263 OA
ATOM     42  N   UNL     1     133.577 160.735 199.473  0.00  0.00    -0.298 N 
ATOM     43  H   UNL     1     135.612 160.694 199.177  0.00  0.00    +0.056 HD
ATOM     44  H   UNL     1     136.198 160.199 201.441  0.00  0.00    +0.040 HD
ATOM     45  H   UNL     1     134.636 159.415 201.784  0.00  0.00    +0.040 HD
ATOM     46  H   UNL     1     133.013 160.617 198.644  0.00  0.00    +0.150 HD
ENDBRANCH   8  37
BRANCH   1  47
ATOM     47  C   UNL     1     130.878 155.578 195.865  0.00  0.00    -0.059 C 
ATOM     48  H   UNL     1     131.136 156.625 195.674  0.00  0.00    +0.024 HD
ATOM     49  H   UNL     1     129.917 155.557 196.389  0.00  0.00    +0.024 HD
ATOM     50  H   UNL     1     130.739 155.093 194.892  0.00  0.00    +0.024 HD
ENDBRANCH   1  47
BRANCH  14  51
ATOM     51  C   UNL     1     137.417 153.862 194.587  0.00  0.00    -0.043 C 
ATOM     52  H   UNL     1     138.505 153.952 194.670  0.00  0.00    +0.027 HD
ATOM     53  H   UNL     1     137.069 154.672 193.936  0.00  0.00    +0.027 HD
ATOM     54  H   UNL     1     137.180 152.916 194.090  0.00  0.00    +0.027 HD
ENDBRANCH  14  51
BRANCH   8  55
ATOM     55  O   UNL     1     135.451 158.640 197.867  0.00  0.00    -0.363 OA
ATOM     56  H   UNL     1     134.833 158.131 197.312  0.00  0.00    +0.213 HD
ENDBRANCH   8  55
TORSDOF 4
ENDMDL
MODEL 9
REMARK VINA RESULT:      -5.7     27.416     29.554
REMARK  Name = Latrunculin B_conf2
REMARK  4 active torsions:
REMARK  status: ('A' for Active; 'I' for Inactive)
REMARK    1  A    between atoms: C_1  and  C_2
REMARK    2  A    between atoms: C_9  and  C_11
REMARK    3  A    between atoms: C_9  and  O_17
REMARK    4  A    between atoms: C_22  and  C_27
REMARK                            x       y       z     vdW  Elec       q    Type
REMARK                         _______ _______ _______ _____ _____    ______ ____
ROOT
ATOM      1  C   UNL     1     149.314 191.521 208.140  0.00  0.00    -0.026 C 
ATOM      2  C   UNL     1     148.724 190.131 208.461  0.00  0.00    -0.045 C 
ATOM      3  C   UNL     1     148.950 189.671 209.908  0.00  0.00    -0.026 C 
ATOM      4  C   UNL     1     150.414 189.366 210.268  0.00  0.00    +0.065 C 
ATOM      5  C   UNL     1     150.951 188.136 209.534  0.00  0.00    +0.011 C 
ATOM      6  C   UNL     1     152.379 187.822 209.986  0.00  0.00    +0.111 C 
ATOM      7  C   UNL     1     152.440 187.714 211.511  0.00  0.00    +0.040 C 
ATOM      8  C   UNL     1     151.784 188.926 212.196  0.00  0.00    +0.190 C 
ATOM      9  O   UNL     1     150.464 189.129 211.681  0.00  0.00    -0.344 OA
ATOM     10  O   UNL     1     153.278 188.876 209.576  0.00  0.00    -0.458 OA
ATOM     11  C   UNL     1     153.637 188.849 208.265  0.00  0.00    +0.332 C 
ATOM     12  O   UNL     1     153.330 188.005 207.443  0.00  0.00    -0.246 OA
ATOM     13  C   UNL     1     154.449 190.047 207.987  0.00  0.00    +0.021 C 
ATOM     14  C   UNL     1     154.119 190.975 207.065  0.00  0.00    -0.066 C 
ATOM     15  C   UNL     1     152.849 190.944 206.229  0.00  0.00    -0.028 C 
ATOM     16  C   UNL     1     151.942 192.156 206.489  0.00  0.00    -0.031 C 
ATOM     17  C   UNL     1     150.555 191.947 205.943  0.00  0.00    -0.087 C 
ATOM     18  C   UNL     1     149.434 191.696 206.642  0.00  0.00    -0.085 C 
ATOM     19  H   UNL     1     150.302 191.598 208.595  0.00  0.00    +0.034 HD
ATOM     20  H   UNL     1     147.642 190.147 208.271  0.00  0.00    +0.027 HD
ATOM     21  H   UNL     1     149.132 189.379 207.776  0.00  0.00    +0.027 HD
ATOM     22  H   UNL     1     148.555 190.420 210.606  0.00  0.00    +0.029 HD
ATOM     23  H   UNL     1     148.346 188.772 210.091  0.00  0.00    +0.029 HD
ATOM     24  H   UNL     1     151.027 190.245 210.048  0.00  0.00    +0.060 HD
ATOM     25  H   UNL     1     150.318 187.268 209.758  0.00  0.00    +0.033 HD
ATOM     26  H   UNL     1     150.924 188.301 208.454  0.00  0.00    +0.033 HD
ATOM     27  H   UNL     1     152.718 186.870 209.558  0.00  0.00    +0.074 HD
ATOM     28  H   UNL     1     153.489 187.631 211.819  0.00  0.00    +0.035 HD
ATOM     29  H   UNL     1     151.913 186.799 211.807  0.00  0.00    +0.035 HD
ATOM     30  H   UNL     1     155.349 190.133 208.584  0.00  0.00    +0.069 HD
ATOM     31  H   UNL     1     153.125 190.910 205.166  0.00  0.00    +0.031 HD
ATOM     32  H   UNL     1     152.276 190.030 206.418  0.00  0.00    +0.031 HD
ATOM     33  H   UNL     1     152.364 193.046 206.004  0.00  0.00    +0.031 HD
ATOM     34  H   UNL     1     151.918 192.389 207.559  0.00  0.00    +0.031 HD
ATOM     35  H   UNL     1     150.468 192.026 204.860  0.00  0.00    +0.057 HD
ATOM     36  H   UNL     1     148.505 191.588 206.081  0.00  0.00    +0.057 HD
ENDROOT
BRANCH   8  37
ATOM     37  C   UNL     1     151.633 188.671 213.727  0.00  0.00    +0.087 C 
ATOM     38  C   UNL     1     152.205 189.821 214.560  0.00  0.00    +0.026 C 
ATOM     39  S   UNL     1     152.507 189.063 216.185  0.00  0.00    -0.066 S 
ATOM     40  C   UNL     1     152.717 187.469 215.499  0.00  0.00    +0.272 C 
ATOM     41  O   UNL     1     153.179 186.511 216.091  0.00  0.00    -0.263 OA
ATOM     42  N   UNL     1     152.272 187.459 214.210  0.00  0.00    -0.298 N 
ATOM     43  H   UNL     1     150.563 188.576 213.964  0.00  0.00    +0.056 HD
ATOM     44  H   UNL     1     151.513 190.664 214.638  0.00  0.00    +0.040 HD
ATOM     45  H   UNL     1     153.164 190.181 214.175  0.00  0.00    +0.040 HD
ATOM     46  H   UNL     1     152.294 186.579 213.714  0.00  0.00    +0.150 HD
ENDBRANCH   8  37
BRANCH   1  47
ATOM     47  C   UNL     1     148.456 192.648 208.721  0.00  0.00    -0.059 C 
ATOM     48  H   UNL     1     149.022 193.582 208.787  0.00  0.00    +0.024 HD
ATOM     49  H   UNL     1     148.093 192.401 209.725  0.00  0.00    +0.024 HD
ATOM     50  H   UNL     1     147.582 192.839 208.087  0.00  0.00    +0.024 HD
ENDBRANCH   1  47
BRANCH  14  51
ATOM     51  C   UNL     1     155.043 192.136 206.804  0.00  0.00    -0.043 C 
ATOM     52  H   UNL     1     154.938 192.888 207.593  0.00  0.00    +0.027 HD
ATOM     53  H   UNL     1     154.826 192.628 205.850  0.00  0.00    +0.027 HD
ATOM     54  H   UNL     1     156.085 191.803 206.773  0.00  0.00    +0.027 HD
ENDBRANCH  14  51
BRANCH   8  55
ATOM     55  O   UNL     1     152.570 190.102 212.019  0.00  0.00    -0.363 OA
ATOM     56  H   UNL     1     151.973 190.870 212.072  0.00  0.00    +0.213 HD
ENDBRANCH   8  55
TORSDOF 4
ENDMDL
MODEL 10
REMARK VINA RESULT:      -5.6     13.203     16.093
REMARK  Name = Latrunculin B_conf2
REMARK  4 active torsions:
REMARK  status: ('A' for Active; 'I' for Inactive)
REMARK    1  A    between atoms: C_1  and  C_2
REMARK    2  A    between atoms: C_9  and  C_11
REMARK    3  A    between atoms: C_9  and  O_17
REMARK    4  A    between atoms: C_22  and  C_27
REMARK                            x       y       z     vdW  Elec       q    Type
REMARK                         _______ _______ _______ _____ _____    ______ ____
ROOT
ATOM      1  C   UNL     1     158.154 173.773 182.360  0.00  0.00    -0.026 C 
ATOM      2  C   UNL     1     158.928 173.696 183.693  0.00  0.00    -0.045 C 
ATOM      3  C   UNL     1     160.208 172.849 183.629  0.00  0.00    -0.026 C 
ATOM      4  C   UNL     1     159.975 171.341 183.435  0.00  0.00    +0.065 C 
ATOM      5  C   UNL     1     159.312 170.691 184.650  0.00  0.00    +0.011 C 
ATOM      6  C   UNL     1     159.178 169.180 184.446  0.00  0.00    +0.111 C 
ATOM      7  C   UNL     1     160.533 168.574 184.076  0.00  0.00    +0.040 C 
ATOM      8  C   UNL     1     161.206 169.338 182.921  0.00  0.00    +0.190 C 
ATOM      9  O   UNL     1     161.257 170.737 183.221  0.00  0.00    -0.344 OA
ATOM     10  O   UNL     1     158.255 168.900 183.370  0.00  0.00    -0.458 OA
ATOM     11  C   UNL     1     156.940 169.020 183.694  0.00  0.00    +0.332 C 
ATOM     12  O   UNL     1     156.480 169.272 184.793  0.00  0.00    -0.246 OA
ATOM     13  C   UNL     1     156.145 168.821 182.469  0.00  0.00    +0.021 C 
ATOM     14  C   UNL     1     155.297 169.744 181.972  0.00  0.00    -0.066 C 
ATOM     15  C   UNL     1     155.082 171.126 182.568  0.00  0.00    -0.028 C 
ATOM     16  C   UNL     1     155.479 172.253 181.603  0.00  0.00    -0.031 C 
ATOM     17  C   UNL     1     155.603 173.578 182.307  0.00  0.00    -0.087 C 
ATOM     18  C   UNL     1     156.736 174.235 182.614  0.00  0.00    -0.085 C 
ATOM     19  H   UNL     1     158.138 172.781 181.905  0.00  0.00    +0.034 HD
ATOM     20  H   UNL     1     159.205 174.711 184.008  0.00  0.00    +0.027 HD
ATOM     21  H   UNL     1     158.279 173.308 184.486  0.00  0.00    +0.027 HD
ATOM     22  H   UNL     1     160.863 173.219 182.832  0.00  0.00    +0.029 HD
ATOM     23  H   UNL     1     160.778 173.002 184.555  0.00  0.00    +0.029 HD
ATOM     24  H   UNL     1     159.370 171.186 182.536  0.00  0.00    +0.060 HD
ATOM     25  H   UNL     1     159.926 170.867 185.543  0.00  0.00    +0.033 HD
ATOM     26  H   UNL     1     158.330 171.137 184.827  0.00  0.00    +0.033 HD
ATOM     27  H   UNL     1     158.821 168.697 185.364  0.00  0.00    +0.074 HD
ATOM     28  H   UNL     1     160.388 167.524 183.797  0.00  0.00    +0.035 HD
ATOM     29  H   UNL     1     161.176 168.616 184.964  0.00  0.00    +0.035 HD
ATOM     30  H   UNL     1     156.290 167.862 181.986  0.00  0.00    +0.069 HD
ATOM     31  H   UNL     1     154.025 171.233 182.846  0.00  0.00    +0.031 HD
ATOM     32  H   UNL     1     155.648 171.245 183.498  0.00  0.00    +0.031 HD
ATOM     33  H   UNL     1     154.715 172.358 180.822  0.00  0.00    +0.031 HD
ATOM     34  H   UNL     1     156.403 171.994 181.077  0.00  0.00    +0.031 HD
ATOM     35  H   UNL     1     154.658 174.048 182.579  0.00  0.00    +0.057 HD
ATOM     36  H   UNL     1     156.639 175.199 183.113  0.00  0.00    +0.057 HD
ENDROOT
BRANCH   8  37
ATOM     37  C   UNL     1     162.680 168.864 182.740  0.00  0.00    +0.087 C 
ATOM     38  C   UNL     1     163.037 167.721 183.693  0.00  0.00    +0.026 C 
ATOM     39  S   UNL     1     164.853 167.779 183.769  0.00  0.00    -0.066 S 
ATOM     40  C   UNL     1     164.900 169.487 183.403  0.00  0.00    +0.272 C 
ATOM     41  O   UNL     1     165.879 170.200 183.530  0.00  0.00    -0.263 OA
ATOM     42  N   UNL     1     163.683 169.895 182.943  0.00  0.00    -0.298 N 
ATOM     43  H   UNL     1     162.808 168.502 181.709  0.00  0.00    +0.056 HD
ATOM     44  H   UNL     1     162.686 166.751 183.332  0.00  0.00    +0.040 HD
ATOM     45  H   UNL     1     162.655 167.885 184.706  0.00  0.00    +0.040 HD
ATOM     46  H   UNL     1     163.592 170.857 182.649  0.00  0.00    +0.150 HD
ENDBRANCH   8  37
BRANCH   1  47
ATOM     47  C   UNL     1     158.832 174.719 181.365  0.00  0.00    -0.059 C 
ATOM     48  H   UNL     1     158.189 174.910 180.500  0.00  0.00    +0.024 HD
ATOM     49  H   UNL     1     159.779 174.307 180.998  0.00  0.00    +0.024 HD
ATOM     50  H   UNL     1     159.048 175.687 181.833  0.00  0.00    +0.024 HD
ENDBRANCH   1  47
BRANCH  14  51
ATOM     51  C   UNL     1     154.478 169.429 180.747  0.00  0.00    -0.043 C 
ATOM     52  H   UNL     1     153.983 168.459 180.861  0.00  0.00    +0.027 HD
ATOM     53  H   UNL     1     155.093 169.380 179.842  0.00  0.00    +0.027 HD
ATOM     54  H   UNL     1     153.713 170.195 180.584  0.00  0.00    +0.027 HD
ENDBRANCH  14  51
BRANCH   8  55
ATOM     55  O   UNL     1     160.516 169.120 181.693  0.00  0.00    -0.363 OA
ATOM     56  H   UNL     1     159.630 168.774 181.906  0.00  0.00    +0.213 HD
ENDBRANCH   8  55
TORSDOF 4
ENDMDL
