MODEL 1
REMARK VINA RESULT:      -6.8      0.000      0.000
REMARK  Name = Latrunculin B_conf3
REMARK  4 active torsions:
REMARK  status: ('A' for Active; 'I' for Inactive)
REMARK    1  A    between atoms: C_1  and  C_2
REMARK    2  A    between atoms: C_9  and  C_11
REMARK    3  A    between atoms: C_9  and  O_17
REMARK    4  A    between atoms: C_22  and  C_27
REMARK                            x       y       z     vdW  Elec       q    Type
REMARK                         _______ _______ _______ _____ _____    ______ ____
ROOT
ATOM      1  C   UNL     1     152.281 167.208 193.052  0.00  0.00    -0.026 C 
ATOM      2  C   UNL     1     151.995 167.116 191.538  0.00  0.00    -0.045 C 
ATOM      3  C   UNL     1     151.288 168.350 190.956  0.00  0.00    -0.026 C 
ATOM      4  C   UNL     1     149.840 168.551 191.434  0.00  0.00    +0.065 C 
ATOM      5  C   UNL     1     148.898 167.460 190.920  0.00  0.00    +0.011 C 
ATOM      6  C   UNL     1     147.458 167.747 191.350  0.00  0.00    +0.111 C 
ATOM      7  C   UNL     1     147.058 169.167 190.942  0.00  0.00    +0.040 C 
ATOM      8  C   UNL     1     148.098 170.208 191.395  0.00  0.00    +0.190 C 
ATOM      9  O   UNL     1     149.400 169.821 190.938  0.00  0.00    -0.344 OA
ATOM     10  O   UNL     1     147.332 167.641 192.785  0.00  0.00    -0.458 OA
ATOM     11  C   UNL     1     147.273 166.372 193.266  0.00  0.00    +0.332 C 
ATOM     12  O   UNL     1     147.252 165.344 192.612  0.00  0.00    -0.246 OA
ATOM     13  C   UNL     1     147.269 166.438 194.738  0.00  0.00    +0.021 C 
ATOM     14  C   UNL     1     148.202 165.851 195.514  0.00  0.00    -0.066 C 
ATOM     15  C   UNL     1     149.407 165.088 194.986  0.00  0.00    -0.028 C 
ATOM     16  C   UNL     1     150.739 165.733 195.395  0.00  0.00    -0.031 C 
ATOM     17  C   UNL     1     151.893 165.199 194.589  0.00  0.00    -0.087 C 
ATOM     18  C   UNL     1     152.562 165.828 193.607  0.00  0.00    -0.085 C 
ATOM     19  H   UNL     1     151.405 167.628 193.551  0.00  0.00    +0.034 HD
ATOM     20  H   UNL     1     151.399 166.223 191.318  0.00  0.00    +0.027 HD
ATOM     21  H   UNL     1     152.943 166.978 191.000  0.00  0.00    +0.027 HD
ATOM     22  H   UNL     1     151.290 168.273 189.860  0.00  0.00    +0.029 HD
ATOM     23  H   UNL     1     151.869 169.254 191.175  0.00  0.00    +0.029 HD
ATOM     24  H   UNL     1     149.828 168.587 192.528  0.00  0.00    +0.060 HD
ATOM     25  H   UNL     1     149.215 166.483 191.291  0.00  0.00    +0.033 HD
ATOM     26  H   UNL     1     148.933 167.431 189.824  0.00  0.00    +0.033 HD
ATOM     27  H   UNL     1     146.767 167.042 190.873  0.00  0.00    +0.074 HD
ATOM     28  H   UNL     1     146.080 169.398 191.381  0.00  0.00    +0.035 HD
ATOM     29  H   UNL     1     146.966 169.193 189.850  0.00  0.00    +0.035 HD
ATOM     30  H   UNL     1     146.448 167.004 195.164  0.00  0.00    +0.069 HD
ATOM     31  H   UNL     1     149.366 164.056 195.359  0.00  0.00    +0.031 HD
ATOM     32  H   UNL     1     149.375 165.011 193.894  0.00  0.00    +0.031 HD
ATOM     33  H   UNL     1     150.672 166.824 195.319  0.00  0.00    +0.031 HD
ATOM     34  H   UNL     1     150.942 165.524 196.453  0.00  0.00    +0.031 HD
ATOM     35  H   UNL     1     152.217 164.193 194.856  0.00  0.00    +0.057 HD
ATOM     36  H   UNL     1     153.390 165.294 193.139  0.00  0.00    +0.057 HD
ENDROOT
BRANCH   8  37
ATOM     37  C   UNL     1     147.795 171.601 190.742  0.00  0.00    +0.087 C 
ATOM     38  C   UNL     1     148.890 172.635 191.026  0.00  0.00    +0.026 C 
ATOM     39  S   UNL     1     148.241 173.677 192.368  0.00  0.00    -0.066 S 
ATOM     40  C   UNL     1     146.588 173.203 192.077  0.00  0.00    +0.272 C 
ATOM     41  O   UNL     1     145.614 173.722 192.594  0.00  0.00    -0.263 OA
ATOM     42  N   UNL     1     146.538 172.193 191.164  0.00  0.00    -0.298 N 
ATOM     43  H   UNL     1     147.731 171.455 189.656  0.00  0.00    +0.056 HD
ATOM     44  H   UNL     1     149.859 172.203 191.288  0.00  0.00    +0.040 HD
ATOM     45  H   UNL     1     149.029 173.280 190.151  0.00  0.00    +0.040 HD
ATOM     46  H   UNL     1     145.627 171.850 190.890  0.00  0.00    +0.150 HD
ENDBRANCH   8  37
BRANCH   1  47
ATOM     47  C   UNL     1     153.463 168.132 193.351  0.00  0.00    -0.059 C 
ATOM     48  H   UNL     1     154.411 167.652 193.086  0.00  0.00    +0.024 HD
ATOM     49  H   UNL     1     153.394 169.068 192.787  0.00  0.00    +0.024 HD
ATOM     50  H   UNL     1     153.510 168.382 194.415  0.00  0.00    +0.024 HD
ENDBRANCH   1  47
BRANCH  14  51
ATOM     51  C   UNL     1     148.083 165.922 197.015  0.00  0.00    -0.043 C 
ATOM     52  H   UNL     1     147.321 165.237 197.401  0.00  0.00    +0.027 HD
ATOM     53  H   UNL     1     147.811 166.933 197.334  0.00  0.00    +0.027 HD
ATOM     54  H   UNL     1     149.036 165.652 197.484  0.00  0.00    +0.027 HD
ENDBRANCH  14  51
BRANCH   8  55
ATOM     55  O   UNL     1     148.093 170.354 192.811  0.00  0.00    -0.363 OA
ATOM     56  H   UNL     1     147.170 170.468 193.099  0.00  0.00    +0.213 HD
ENDBRANCH   8  55
TORSDOF 4
ENDMDL
MODEL 2
REMARK VINA RESULT:      -6.5      1.183      1.207
REMARK  Name = Latrunculin B_conf3
REMARK  4 active torsions:
REMARK  status: ('A' for Active; 'I' for Inactive)
REMARK    1  A    between atoms: C_1  and  C_2
REMARK    2  A    between atoms: C_9  and  C_11
REMARK    3  A    between atoms: C_9  and  O_17
REMARK    4  A    between atoms: C_22  and  C_27
REMARK                            x       y       z     vdW  Elec       q    Type
REMARK                         _______ _______ _______ _____ _____    ______ ____
ROOT
ATOM      1  C   UNL     1     151.898 166.672 193.108  0.00  0.00    -0.026 C 
ATOM      2  C   UNL     1     151.470 166.244 191.687  0.00  0.00    -0.045 C 
ATOM      3  C   UNL     1     150.774 167.351 190.881  0.00  0.00    -0.026 C 
ATOM      4  C   UNL     1     149.388 167.761 191.407  0.00  0.00    +0.065 C 
ATOM      5  C   UNL     1     148.350 166.648 191.247  0.00  0.00    +0.011 C 
ATOM      6  C   UNL     1     146.972 167.129 191.706  0.00  0.00    +0.111 C 
ATOM      7  C   UNL     1     146.606 168.436 190.999  0.00  0.00    +0.040 C 
ATOM      8  C   UNL     1     147.734 169.480 191.104  0.00  0.00    +0.190 C 
ATOM      9  O   UNL     1     148.968 168.905 190.654  0.00  0.00    -0.344 OA
ATOM     10  O   UNL     1     146.974 167.376 193.129  0.00  0.00    -0.458 OA
ATOM     11  C   UNL     1     146.896 166.263 193.906  0.00  0.00    +0.332 C 
ATOM     12  O   UNL     1     146.765 165.114 193.524  0.00  0.00    -0.246 OA
ATOM     13  C   UNL     1     147.032 166.677 195.314  0.00  0.00    +0.021 C 
ATOM     14  C   UNL     1     148.002 166.226 196.134  0.00  0.00    -0.066 C 
ATOM     15  C   UNL     1     149.114 165.277 195.714  0.00  0.00    -0.028 C 
ATOM     16  C   UNL     1     150.509 165.906 195.850  0.00  0.00    -0.031 C 
ATOM     17  C   UNL     1     151.556 165.117 195.110  0.00  0.00    -0.087 C 
ATOM     18  C   UNL     1     152.161 165.447 193.956  0.00  0.00    -0.085 C 
ATOM     19  H   UNL     1     151.095 167.258 193.556  0.00  0.00    +0.034 HD
ATOM     20  H   UNL     1     150.813 165.368 191.737  0.00  0.00    +0.027 HD
ATOM     21  H   UNL     1     152.356 165.917 191.127  0.00  0.00    +0.027 HD
ATOM     22  H   UNL     1     150.671 167.017 189.839  0.00  0.00    +0.029 HD
ATOM     23  H   UNL     1     151.417 168.239 190.829  0.00  0.00    +0.029 HD
ATOM     24  H   UNL     1     149.479 168.056 192.457  0.00  0.00    +0.060 HD
ATOM     25  H   UNL     1     148.652 165.767 191.818  0.00  0.00    +0.033 HD
ATOM     26  H   UNL     1     148.283 166.358 190.192  0.00  0.00    +0.033 HD
ATOM     27  H   UNL     1     146.205 166.381 191.468  0.00  0.00    +0.074 HD
ATOM     28  H   UNL     1     145.686 168.834 191.443  0.00  0.00    +0.035 HD
ATOM     29  H   UNL     1     146.416 168.210 189.943  0.00  0.00    +0.035 HD
ATOM     30  H   UNL     1     146.283 167.383 195.652  0.00  0.00    +0.069 HD
ATOM     31  H   UNL     1     149.056 164.369 196.328  0.00  0.00    +0.031 HD
ATOM     32  H   UNL     1     148.977 164.947 194.679  0.00  0.00    +0.031 HD
ATOM     33  H   UNL     1     150.489 166.949 195.518  0.00  0.00    +0.031 HD
ATOM     34  H   UNL     1     150.798 165.940 196.908  0.00  0.00    +0.031 HD
ATOM     35  H   UNL     1     151.852 164.182 195.587  0.00  0.00    +0.057 HD
ATOM     36  H   UNL     1     152.915 164.760 193.569  0.00  0.00    +0.057 HD
ENDROOT
BRANCH   8  37
ATOM     37  C   UNL     1     147.442 170.696 190.158  0.00  0.00    +0.087 C 
ATOM     38  C   UNL     1     147.987 172.017 190.712  0.00  0.00    +0.026 C 
ATOM     39  S   UNL     1     146.554 172.870 191.437  0.00  0.00    -0.066 S 
ATOM     40  C   UNL     1     145.401 171.919 190.539  0.00  0.00    +0.272 C 
ATOM     41  O   UNL     1     144.205 172.147 190.483  0.00  0.00    -0.263 OA
ATOM     42  N   UNL     1     146.031 170.906 189.882  0.00  0.00    -0.298 N 
ATOM     43  H   UNL     1     147.930 170.497 189.196  0.00  0.00    +0.056 HD
ATOM     44  H   UNL     1     148.793 171.900 191.440  0.00  0.00    +0.040 HD
ATOM     45  H   UNL     1     148.355 172.641 189.891  0.00  0.00    +0.040 HD
ATOM     46  H   UNL     1     145.469 170.300 189.300  0.00  0.00    +0.150 HD
ENDBRANCH   8  37
BRANCH   1  47
ATOM     47  C   UNL     1     153.147 167.555 193.081  0.00  0.00    -0.059 C 
ATOM     48  H   UNL     1     153.487 167.721 192.053  0.00  0.00    +0.024 HD
ATOM     49  H   UNL     1     152.957 168.535 193.532  0.00  0.00    +0.024 HD
ATOM     50  H   UNL     1     153.974 167.088 193.625  0.00  0.00    +0.024 HD
ENDBRANCH   1  47
BRANCH  14  51
ATOM     51  C   UNL     1     148.026 166.659 197.577  0.00  0.00    -0.043 C 
ATOM     52  H   UNL     1     148.888 167.296 197.803  0.00  0.00    +0.027 HD
ATOM     53  H   UNL     1     148.075 165.790 198.241  0.00  0.00    +0.027 HD
ATOM     54  H   UNL     1     147.124 167.232 197.816  0.00  0.00    +0.027 HD
ENDBRANCH  14  51
BRANCH   8  55
ATOM     55  O   UNL     1     147.867 169.957 192.438  0.00  0.00    -0.363 OA
ATOM     56  H   UNL     1     147.808 169.194 193.039  0.00  0.00    +0.213 HD
ENDBRANCH   8  55
TORSDOF 4
ENDMDL
MODEL 3
REMARK VINA RESULT:      -6.4      3.809      6.930
REMARK  Name = Latrunculin B_conf3
REMARK  4 active torsions:
REMARK  status: ('A' for Active; 'I' for Inactive)
REMARK    1  A    between atoms: C_1  and  C_2
REMARK    2  A    between atoms: C_9  and  C_11
REMARK    3  A    between atoms: C_9  and  O_17
REMARK    4  A    between atoms: C_22  and  C_27
REMARK                            x       y       z     vdW  Elec       q    Type
REMARK                         _______ _______ _______ _____ _____    ______ ____
ROOT
ATOM      1  C   UNL     1     148.002 172.089 191.404  0.00  0.00    -0.026 C 
ATOM      2  C   UNL     1     148.581 171.470 192.695  0.00  0.00    -0.045 C 
ATOM      3  C   UNL     1     149.771 170.527 192.461  0.00  0.00    -0.026 C 
ATOM      4  C   UNL     1     149.425 169.217 191.734  0.00  0.00    +0.065 C 
ATOM      5  C   UNL     1     148.540 168.296 192.577  0.00  0.00    +0.011 C 
ATOM      6  C   UNL     1     148.292 166.974 191.848  0.00  0.00    +0.111 C 
ATOM      7  C   UNL     1     149.622 166.349 191.419  0.00  0.00    +0.040 C 
ATOM      8  C   UNL     1     150.512 167.356 190.667  0.00  0.00    +0.190 C 
ATOM      9  O   UNL     1     150.659 168.548 191.449  0.00  0.00    -0.344 OA
ATOM     10  O   UNL     1     147.498 167.196 190.661  0.00  0.00    -0.458 OA
ATOM     11  C   UNL     1     146.170 167.378 190.883  0.00  0.00    +0.332 C 
ATOM     12  O   UNL     1     145.592 167.309 191.953  0.00  0.00    -0.246 OA
ATOM     13  C   UNL     1     145.532 167.710 189.597  0.00  0.00    +0.021 C 
ATOM     14  C   UNL     1     144.850 168.851 189.375  0.00  0.00    -0.066 C 
ATOM     15  C   UNL     1     144.689 169.971 190.391  0.00  0.00    -0.028 C 
ATOM     16  C   UNL     1     145.319 171.290 189.921  0.00  0.00    -0.031 C 
ATOM     17  C   UNL     1     145.475 172.273 191.050  0.00  0.00    -0.087 C 
ATOM     18  C   UNL     1     146.614 172.629 191.670  0.00  0.00    -0.085 C 
ATOM     19  H   UNL     1     147.950 171.316 190.636  0.00  0.00    +0.034 HD
ATOM     20  H   UNL     1     147.797 170.932 193.241  0.00  0.00    +0.027 HD
ATOM     21  H   UNL     1     148.908 172.276 193.366  0.00  0.00    +0.027 HD
ATOM     22  H   UNL     1     150.222 170.282 193.432  0.00  0.00    +0.029 HD
ATOM     23  H   UNL     1     150.561 171.049 191.908  0.00  0.00    +0.029 HD
ATOM     24  H   UNL     1     148.937 169.456 190.783  0.00  0.00    +0.060 HD
ATOM     25  H   UNL     1     147.590 168.787 192.801  0.00  0.00    +0.033 HD
ATOM     26  H   UNL     1     149.040 168.078 193.529  0.00  0.00    +0.033 HD
ATOM     27  H   UNL     1     147.773 166.265 192.504  0.00  0.00    +0.074 HD
ATOM     28  H   UNL     1     149.415 165.481 190.780  0.00  0.00    +0.035 HD
ATOM     29  H   UNL     1     150.142 166.004 192.320  0.00  0.00    +0.035 HD
ATOM     30  H   UNL     1     145.650 166.957 188.826  0.00  0.00    +0.069 HD
ATOM     31  H   UNL     1     143.619 170.121 190.587  0.00  0.00    +0.031 HD
ATOM     32  H   UNL     1     145.132 169.694 191.353  0.00  0.00    +0.031 HD
ATOM     33  H   UNL     1     146.277 171.098 189.426  0.00  0.00    +0.031 HD
ATOM     34  H   UNL     1     144.681 171.753 189.157  0.00  0.00    +0.031 HD
ATOM     35  H   UNL     1     144.551 172.749 191.379  0.00  0.00    +0.057 HD
ATOM     36  H   UNL     1     146.543 173.374 192.462  0.00  0.00    +0.057 HD
ENDROOT
BRANCH   8  37
ATOM     37  C   UNL     1     151.954 166.772 190.475  0.00  0.00    +0.087 C 
ATOM     38  C   UNL     1     152.571 167.155 189.126  0.00  0.00    +0.026 C 
ATOM     39  S   UNL     1     152.371 165.692 188.065  0.00  0.00    -0.066 S 
ATOM     40  C   UNL     1     152.135 164.615 189.415  0.00  0.00    +0.272 C 
ATOM     41  O   UNL     1     152.103 163.399 189.339  0.00  0.00    -0.263 OA
ATOM     42  N   UNL     1     152.025 165.324 190.573  0.00  0.00    -0.298 N 
ATOM     43  H   UNL     1     152.589 167.178 191.273  0.00  0.00    +0.056 HD
ATOM     44  H   UNL     1     152.131 168.044 188.667  0.00  0.00    +0.040 HD
ATOM     45  H   UNL     1     153.646 167.327 189.243  0.00  0.00    +0.040 HD
ATOM     46  H   UNL     1     151.914 164.806 191.434  0.00  0.00    +0.150 HD
ENDBRANCH   8  37
BRANCH   1  47
ATOM     47  C   UNL     1     148.893 173.209 190.865  0.00  0.00    -0.059 C 
ATOM     48  H   UNL     1     148.956 174.037 191.579  0.00  0.00    +0.024 HD
ATOM     49  H   UNL     1     149.912 172.856 190.673  0.00  0.00    +0.024 HD
ATOM     50  H   UNL     1     148.496 173.615 189.929  0.00  0.00    +0.024 HD
ENDBRANCH   1  47
BRANCH  14  51
ATOM     51  C   UNL     1     144.179 169.078 188.044  0.00  0.00    -0.043 C 
ATOM     52  H   UNL     1     144.733 168.617 187.219  0.00  0.00    +0.027 HD
ATOM     53  H   UNL     1     144.096 170.148 187.830  0.00  0.00    +0.027 HD
ATOM     54  H   UNL     1     143.174 168.643 188.048  0.00  0.00    +0.027 HD
ENDBRANCH  14  51
BRANCH   8  55
ATOM     55  O   UNL     1     149.968 167.666 189.389  0.00  0.00    -0.363 OA
ATOM     56  H   UNL     1     149.172 167.121 189.260  0.00  0.00    +0.213 HD
ENDBRANCH   8  55
TORSDOF 4
ENDMDL
MODEL 4
REMARK VINA RESULT:      -6.3      3.598      5.674
REMARK  Name = Latrunculin B_conf3
REMARK  4 active torsions:
REMARK  status: ('A' for Active; 'I' for Inactive)
REMARK    1  A    between atoms: C_1  and  C_2
REMARK    2  A    between atoms: C_9  and  C_11
REMARK    3  A    between atoms: C_9  and  O_17
REMARK    4  A    between atoms: C_22  and  C_27
REMARK                            x       y       z     vdW  Elec       q    Type
REMARK                         _______ _______ _______ _____ _____    ______ ____
ROOT
ATOM      1  C   UNL     1     149.108 171.180 192.017  0.00  0.00    -0.026 C 
ATOM      2  C   UNL     1     148.374 171.652 190.744  0.00  0.00    -0.045 C 
ATOM      3  C   UNL     1     146.905 171.209 190.664  0.00  0.00    -0.026 C 
ATOM      4  C   UNL     1     146.695 169.697 190.482  0.00  0.00    +0.065 C 
ATOM      5  C   UNL     1     147.177 169.200 189.118  0.00  0.00    +0.011 C 
ATOM      6  C   UNL     1     146.872 167.710 188.950  0.00  0.00    +0.111 C 
ATOM      7  C   UNL     1     145.392 167.439 189.230  0.00  0.00    +0.040 C 
ATOM      8  C   UNL     1     144.940 168.054 190.568  0.00  0.00    +0.190 C 
ATOM      9  O   UNL     1     145.289 169.444 190.602  0.00  0.00    -0.344 OA
ATOM     10  O   UNL     1     147.654 166.929 189.880  0.00  0.00    -0.458 OA
ATOM     11  C   UNL     1     148.955 166.750 189.531  0.00  0.00    +0.332 C 
ATOM     12  O   UNL     1     149.493 167.123 188.502  0.00  0.00    -0.246 OA
ATOM     13  C   UNL     1     149.634 166.046 190.632  0.00  0.00    +0.021 C 
ATOM     14  C   UNL     1     150.698 166.544 191.294  0.00  0.00    -0.066 C 
ATOM     15  C   UNL     1     151.310 167.912 191.035  0.00  0.00    -0.028 C 
ATOM     16  C   UNL     1     151.227 168.837 192.259  0.00  0.00    -0.031 C 
ATOM     17  C   UNL     1     151.497 170.273 191.898  0.00  0.00    -0.087 C 
ATOM     18  C   UNL     1     150.605 171.274 191.812  0.00  0.00    -0.085 C 
ATOM     19  H   UNL     1     148.834 170.142 192.217  0.00  0.00    +0.034 HD
ATOM     20  H   UNL     1     148.903 171.305 189.849  0.00  0.00    +0.027 HD
ATOM     21  H   UNL     1     148.404 172.750 190.696  0.00  0.00    +0.027 HD
ATOM     22  H   UNL     1     146.422 171.735 189.829  0.00  0.00    +0.029 HD
ATOM     23  H   UNL     1     146.363 171.544 191.558  0.00  0.00    +0.029 HD
ATOM     24  H   UNL     1     147.208 169.166 191.290  0.00  0.00    +0.060 HD
ATOM     25  H   UNL     1     148.249 169.380 189.009  0.00  0.00    +0.033 HD
ATOM     26  H   UNL     1     146.661 169.751 188.323  0.00  0.00    +0.033 HD
ATOM     27  H   UNL     1     147.095 167.385 187.926  0.00  0.00    +0.074 HD
ATOM     28  H   UNL     1     145.227 166.354 189.242  0.00  0.00    +0.035 HD
ATOM     29  H   UNL     1     144.806 167.873 188.412  0.00  0.00    +0.035 HD
ATOM     30  H   UNL     1     149.211 165.079 190.880  0.00  0.00    +0.069 HD
ATOM     31  H   UNL     1     152.360 167.781 190.742  0.00  0.00    +0.031 HD
ATOM     32  H   UNL     1     150.823 168.406 190.188  0.00  0.00    +0.031 HD
ATOM     33  H   UNL     1     150.255 168.727 192.752  0.00  0.00    +0.031 HD
ATOM     34  H   UNL     1     151.972 168.531 193.005  0.00  0.00    +0.031 HD
ATOM     35  H   UNL     1     152.543 170.510 191.700  0.00  0.00    +0.057 HD
ATOM     36  H   UNL     1     150.982 172.264 191.553  0.00  0.00    +0.057 HD
ENDROOT
BRANCH   8  37
ATOM     37  C   UNL     1     143.379 167.987 190.698  0.00  0.00    +0.087 C 
ATOM     38  C   UNL     1     142.925 167.422 192.048  0.00  0.00    +0.026 C 
ATOM     39  S   UNL     1     142.479 165.689 191.726  0.00  0.00    -0.066 S 
ATOM     40  C   UNL     1     142.305 165.943 190.010  0.00  0.00    +0.272 C 
ATOM     41  O   UNL     1     141.839 165.130 189.230  0.00  0.00    -0.263 OA
ATOM     42  N   UNL     1     142.731 167.191 189.670  0.00  0.00    -0.298 N 
ATOM     43  H   UNL     1     142.990 169.009 190.603  0.00  0.00    +0.056 HD
ATOM     44  H   UNL     1     143.671 167.502 192.843  0.00  0.00    +0.040 HD
ATOM     45  H   UNL     1     142.015 167.935 192.380  0.00  0.00    +0.040 HD
ATOM     46  H   UNL     1     142.653 167.468 188.701  0.00  0.00    +0.150 HD
ENDBRANCH   8  37
BRANCH   1  47
ATOM     47  C   UNL     1     148.705 172.003 193.242  0.00  0.00    -0.059 C 
ATOM     48  H   UNL     1     149.459 171.922 194.032  0.00  0.00    +0.024 HD
ATOM     49  H   UNL     1     148.593 173.064 192.995  0.00  0.00    +0.024 HD
ATOM     50  H   UNL     1     147.757 171.652 193.659  0.00  0.00    +0.024 HD
ENDBRANCH   1  47
BRANCH  14  51
ATOM     51  C   UNL     1     151.365 165.725 192.369  0.00  0.00    -0.043 C 
ATOM     52  H   UNL     1     151.557 166.310 193.274  0.00  0.00    +0.027 HD
ATOM     53  H   UNL     1     152.325 165.334 192.018  0.00  0.00    +0.027 HD
ATOM     54  H   UNL     1     150.726 164.881 192.653  0.00  0.00    +0.027 HD
ENDBRANCH  14  51
BRANCH   8  55
ATOM     55  O   UNL     1     145.523 167.369 191.670  0.00  0.00    -0.363 OA
ATOM     56  H   UNL     1     144.864 166.744 192.020  0.00  0.00    +0.213 HD
ENDBRANCH   8  55
TORSDOF 4
ENDMDL
MODEL 5
REMARK VINA RESULT:      -6.2      4.844      7.537
REMARK  Name = Latrunculin B_conf3
REMARK  4 active torsions:
REMARK  status: ('A' for Active; 'I' for Inactive)
REMARK    1  A    between atoms: C_1  and  C_2
REMARK    2  A    between atoms: C_9  and  C_11
REMARK    3  A    between atoms: C_9  and  O_17
REMARK    4  A    between atoms: C_22  and  C_27
REMARK                            x       y       z     vdW  Elec       q    Type
REMARK                         _______ _______ _______ _____ _____    ______ ____
ROOT
ATOM      1  C   UNL     1     150.043 169.433 191.868  0.00  0.00    -0.026 C 
ATOM      2  C   UNL     1     150.562 168.104 192.459  0.00  0.00    -0.045 C 
ATOM      3  C   UNL     1     151.855 167.589 191.808  0.00  0.00    -0.026 C 
ATOM      4  C   UNL     1     151.705 167.129 190.348  0.00  0.00    +0.065 C 
ATOM      5  C   UNL     1     150.843 165.871 190.218  0.00  0.00    +0.011 C 
ATOM      6  C   UNL     1     150.791 165.404 188.762  0.00  0.00    +0.111 C 
ATOM      7  C   UNL     1     152.209 165.256 188.203  0.00  0.00    +0.040 C 
ATOM      8  C   UNL     1     153.060 166.514 188.459  0.00  0.00    +0.190 C 
ATOM      9  O   UNL     1     153.019 166.850 189.852  0.00  0.00    -0.344 OA
ATOM     10  O   UNL     1     150.089 166.369 187.949  0.00  0.00    -0.458 OA
ATOM     11  C   UNL     1     148.734 166.336 188.057  0.00  0.00    +0.332 C 
ATOM     12  O   UNL     1     148.073 165.547 188.710  0.00  0.00    -0.246 OA
ATOM     13  C   UNL     1     148.184 167.451 187.268  0.00  0.00    +0.021 C 
ATOM     14  C   UNL     1     147.416 168.428 187.790  0.00  0.00    -0.066 C 
ATOM     15  C   UNL     1     147.057 168.547 189.263  0.00  0.00    -0.028 C 
ATOM     16  C   UNL     1     147.594 169.837 189.900  0.00  0.00    -0.031 C 
ATOM     17  C   UNL     1     147.552 169.783 191.403  0.00  0.00    -0.087 C 
ATOM     18  C   UNL     1     148.590 169.630 192.243  0.00  0.00    -0.085 C 
ATOM     19  H   UNL     1     150.135 169.395 190.781  0.00  0.00    +0.034 HD
ATOM     20  H   UNL     1     149.790 167.330 192.387  0.00  0.00    +0.027 HD
ATOM     21  H   UNL     1     150.749 168.236 193.533  0.00  0.00    +0.027 HD
ATOM     22  H   UNL     1     152.240 166.751 192.404  0.00  0.00    +0.029 HD
ATOM     23  H   UNL     1     152.636 168.357 191.865  0.00  0.00    +0.029 HD
ATOM     24  H   UNL     1     151.282 167.948 189.758  0.00  0.00    +0.060 HD
ATOM     25  H   UNL     1     149.834 166.065 190.588  0.00  0.00    +0.033 HD
ATOM     26  H   UNL     1     151.275 165.066 190.825  0.00  0.00    +0.033 HD
ATOM     27  H   UNL     1     150.288 164.432 188.688  0.00  0.00    +0.074 HD
ATOM     28  H   UNL     1     152.146 165.058 187.126  0.00  0.00    +0.035 HD
ATOM     29  H   UNL     1     152.678 164.393 188.691  0.00  0.00    +0.035 HD
ATOM     30  H   UNL     1     148.443 167.432 186.215  0.00  0.00    +0.069 HD
ATOM     31  H   UNL     1     145.964 168.512 189.365  0.00  0.00    +0.031 HD
ATOM     32  H   UNL     1     147.437 167.691 189.830  0.00  0.00    +0.031 HD
ATOM     33  H   UNL     1     148.606 170.046 189.537  0.00  0.00    +0.031 HD
ATOM     34  H   UNL     1     146.984 170.692 189.576  0.00  0.00    +0.031 HD
ATOM     35  H   UNL     1     146.560 169.895 191.842  0.00  0.00    +0.057 HD
ATOM     36  H   UNL     1     148.377 169.630 193.312  0.00  0.00    +0.057 HD
ENDROOT
BRANCH   8  37
ATOM     37  C   UNL     1     154.563 166.234 188.114  0.00  0.00    +0.087 C 
ATOM     38  C   UNL     1     154.877 164.737 188.017  0.00  0.00    +0.026 C 
ATOM     39  S   UNL     1     155.669 164.301 189.594  0.00  0.00    -0.066 S 
ATOM     40  C   UNL     1     156.082 165.954 189.964  0.00  0.00    +0.272 C 
ATOM     41  O   UNL     1     156.808 166.302 190.879  0.00  0.00    -0.263 OA
ATOM     42  N   UNL     1     155.505 166.799 189.065  0.00  0.00    -0.298 N 
ATOM     43  H   UNL     1     154.776 166.695 187.141  0.00  0.00    +0.056 HD
ATOM     44  H   UNL     1     154.005 164.108 187.820  0.00  0.00    +0.040 HD
ATOM     45  H   UNL     1     155.612 164.561 187.224  0.00  0.00    +0.040 HD
ATOM     46  H   UNL     1     155.695 167.788 189.158  0.00  0.00    +0.150 HD
ENDBRANCH   8  37
BRANCH   1  47
ATOM     47  C   UNL     1     150.865 170.629 192.354  0.00  0.00    -0.059 C 
ATOM     48  H   UNL     1     150.879 171.425 191.602  0.00  0.00    +0.024 HD
ATOM     49  H   UNL     1     150.455 171.049 193.278  0.00  0.00    +0.024 HD
ATOM     50  H   UNL     1     151.904 170.343 192.545  0.00  0.00    +0.024 HD
ENDBRANCH   1  47
BRANCH  14  51
ATOM     51  C   UNL     1     146.847 169.497 186.893  0.00  0.00    -0.043 C 
ATOM     52  H   UNL     1     145.981 169.141 186.325  0.00  0.00    +0.027 HD
ATOM     53  H   UNL     1     147.597 169.837 186.172  0.00  0.00    +0.027 HD
ATOM     54  H   UNL     1     146.519 170.356 187.487  0.00  0.00    +0.027 HD
ENDBRANCH  14  51
BRANCH   8  55
ATOM     55  O   UNL     1     152.604 167.608 187.672  0.00  0.00    -0.363 OA
ATOM     56  H   UNL     1     151.945 167.272 187.040  0.00  0.00    +0.213 HD
ENDBRANCH   8  55
TORSDOF 4
ENDMDL
MODEL 6
REMARK VINA RESULT:      -6.1      3.857      6.417
REMARK  Name = Latrunculin B_conf3
REMARK  4 active torsions:
REMARK  status: ('A' for Active; 'I' for Inactive)
REMARK    1  A    between atoms: C_1  and  C_2
REMARK    2  A    between atoms: C_9  and  C_11
REMARK    3  A    between atoms: C_9  and  O_17
REMARK    4  A    between atoms: C_22  and  C_27
REMARK                            x       y       z     vdW  Elec       q    Type
REMARK                         _______ _______ _______ _____ _____    ______ ____
ROOT
ATOM      1  C   UNL     1     150.194 165.937 186.835  0.00  0.00    -0.026 C 
ATOM      2  C   UNL     1     149.351 165.378 188.002  0.00  0.00    -0.045 C 
ATOM      3  C   UNL     1     149.024 166.411 189.091  0.00  0.00    -0.026 C 
ATOM      4  C   UNL     1     150.233 166.890 189.912  0.00  0.00    +0.065 C 
ATOM      5  C   UNL     1     150.820 165.782 190.789  0.00  0.00    +0.011 C 
ATOM      6  C   UNL     1     151.964 166.326 191.647  0.00  0.00    +0.111 C 
ATOM      7  C   UNL     1     151.502 167.562 192.422  0.00  0.00    +0.040 C 
ATOM      8  C   UNL     1     150.825 168.595 191.502  0.00  0.00    +0.190 C 
ATOM      9  O   UNL     1     149.782 167.961 190.750  0.00  0.00    -0.344 OA
ATOM     10  O   UNL     1     153.079 166.710 190.813  0.00  0.00    -0.458 OA
ATOM     11  C   UNL     1     153.843 165.681 190.363  0.00  0.00    +0.332 C 
ATOM     12  O   UNL     1     153.716 164.501 190.641  0.00  0.00    -0.246 OA
ATOM     13  C   UNL     1     154.851 166.228 189.438  0.00  0.00    +0.021 C 
ATOM     14  C   UNL     1     154.969 165.846 188.151  0.00  0.00    -0.066 C 
ATOM     15  C   UNL     1     154.055 164.845 187.462  0.00  0.00    -0.028 C 
ATOM     16  C   UNL     1     153.279 165.463 186.290  0.00  0.00    -0.031 C 
ATOM     17  C   UNL     1     152.134 164.591 185.850  0.00  0.00    -0.087 C 
ATOM     18  C   UNL     1     150.823 164.797 186.063  0.00  0.00    -0.085 C 
ATOM     19  H   UNL     1     150.980 166.576 187.242  0.00  0.00    +0.034 HD
ATOM     20  H   UNL     1     149.859 164.521 188.459  0.00  0.00    +0.027 HD
ATOM     21  H   UNL     1     148.405 164.985 187.606  0.00  0.00    +0.027 HD
ATOM     22  H   UNL     1     148.282 165.978 189.776  0.00  0.00    +0.029 HD
ATOM     23  H   UNL     1     148.522 167.280 188.646  0.00  0.00    +0.029 HD
ATOM     24  H   UNL     1     150.993 167.285 189.230  0.00  0.00    +0.060 HD
ATOM     25  H   UNL     1     151.174 164.957 190.167  0.00  0.00    +0.033 HD
ATOM     26  H   UNL     1     150.042 165.391 191.456  0.00  0.00    +0.033 HD
ATOM     27  H   UNL     1     152.295 165.569 192.370  0.00  0.00    +0.074 HD
ATOM     28  H   UNL     1     152.370 168.014 192.917  0.00  0.00    +0.035 HD
ATOM     29  H   UNL     1     150.792 167.236 193.190  0.00  0.00    +0.035 HD
ATOM     30  H   UNL     1     155.506 166.975 189.873  0.00  0.00    +0.069 HD
ATOM     31  H   UNL     1     154.660 164.002 187.102  0.00  0.00    +0.031 HD
ATOM     32  H   UNL     1     153.338 164.416 188.170  0.00  0.00    +0.031 HD
ATOM     33  H   UNL     1     152.935 166.469 186.552  0.00  0.00    +0.031 HD
ATOM     34  H   UNL     1     153.950 165.596 185.431  0.00  0.00    +0.031 HD
ATOM     35  H   UNL     1     152.420 163.702 185.285  0.00  0.00    +0.057 HD
ATOM     36  H   UNL     1     150.126 164.065 185.655  0.00  0.00    +0.057 HD
ENDROOT
BRANCH   8  37
ATOM     37  C   UNL     1     150.137 169.717 192.354  0.00  0.00    +0.087 C 
ATOM     38  C   UNL     1     148.623 169.517 192.478  0.00  0.00    +0.026 C 
ATOM     39  S   UNL     1     147.880 170.662 191.276  0.00  0.00    -0.066 S 
ATOM     40  C   UNL     1     149.314 171.648 191.172  0.00  0.00    +0.272 C 
ATOM     41  O   UNL     1     149.378 172.725 190.604  0.00  0.00    -0.263 OA
ATOM     42  N   UNL     1     150.343 171.061 191.844  0.00  0.00    -0.298 N 
ATOM     43  H   UNL     1     150.572 169.687 193.361  0.00  0.00    +0.056 HD
ATOM     44  H   UNL     1     148.289 168.490 192.310  0.00  0.00    +0.040 HD
ATOM     45  H   UNL     1     148.286 169.827 193.474  0.00  0.00    +0.040 HD
ATOM     46  H   UNL     1     151.225 171.554 191.879  0.00  0.00    +0.150 HD
ENDBRANCH   8  37
BRANCH   1  47
ATOM     47  C   UNL     1     149.353 166.795 185.888  0.00  0.00    -0.059 C 
ATOM     48  H   UNL     1     149.696 167.836 185.895  0.00  0.00    +0.024 HD
ATOM     49  H   UNL     1     149.411 166.431 184.856  0.00  0.00    +0.024 HD
ATOM     50  H   UNL     1     148.300 166.797 186.186  0.00  0.00    +0.024 HD
ENDBRANCH   1  47
BRANCH  14  51
ATOM     51  C   UNL     1     156.071 166.417 187.296  0.00  0.00    -0.043 C 
ATOM     52  H   UNL     1     156.817 165.663 187.025  0.00  0.00    +0.027 HD
ATOM     53  H   UNL     1     156.592 167.222 187.823  0.00  0.00    +0.027 HD
ATOM     54  H   UNL     1     155.658 166.819 186.365  0.00  0.00    +0.027 HD
ENDBRANCH  14  51
BRANCH   8  55
ATOM     55  O   UNL     1     151.770 169.199 190.626  0.00  0.00    -0.363 OA
ATOM     56  H   UNL     1     152.303 169.827 191.144  0.00  0.00    +0.213 HD
ENDBRANCH   8  55
TORSDOF 4
ENDMDL
MODEL 7
REMARK VINA RESULT:      -6.1      2.350      2.910
REMARK  Name = Latrunculin B_conf3
REMARK  4 active torsions:
REMARK  status: ('A' for Active; 'I' for Inactive)
REMARK    1  A    between atoms: C_1  and  C_2
REMARK    2  A    between atoms: C_9  and  C_11
REMARK    3  A    between atoms: C_9  and  O_17
REMARK    4  A    between atoms: C_22  and  C_27
REMARK                            x       y       z     vdW  Elec       q    Type
REMARK                         _______ _______ _______ _____ _____    ______ ____
ROOT
ATOM      1  C   UNL     1     151.735 166.454 192.985  0.00  0.00    -0.026 C 
ATOM      2  C   UNL     1     151.240 165.810 191.673  0.00  0.00    -0.045 C 
ATOM      3  C   UNL     1     150.457 166.766 190.760  0.00  0.00    -0.026 C 
ATOM      4  C   UNL     1     149.090 167.210 191.308  0.00  0.00    +0.065 C 
ATOM      5  C   UNL     1     148.086 166.057 191.378  0.00  0.00    +0.011 C 
ATOM      6  C   UNL     1     146.721 166.561 191.849  0.00  0.00    +0.111 C 
ATOM      7  C   UNL     1     146.266 167.739 190.984  0.00  0.00    +0.040 C 
ATOM      8  C   UNL     1     147.358 168.818 190.864  0.00  0.00    +0.190 C 
ATOM      9  O   UNL     1     148.584 168.218 190.425  0.00  0.00    -0.344 OA
ATOM     10  O   UNL     1     146.797 167.015 193.218  0.00  0.00    -0.458 OA
ATOM     11  C   UNL     1     146.807 166.028 194.152  0.00  0.00    +0.332 C 
ATOM     12  O   UNL     1     146.696 164.831 193.950  0.00  0.00    -0.246 OA
ATOM     13  C   UNL     1     147.010 166.648 195.473  0.00  0.00    +0.021 C 
ATOM     14  C   UNL     1     148.043 166.351 196.286  0.00  0.00    -0.066 C 
ATOM     15  C   UNL     1     149.162 165.382 195.939  0.00  0.00    -0.028 C 
ATOM     16  C   UNL     1     150.538 166.063 195.893  0.00  0.00    -0.031 C 
ATOM     17  C   UNL     1     151.568 165.203 195.211  0.00  0.00    -0.087 C 
ATOM     18  C   UNL     1     152.092 165.376 193.985  0.00  0.00    -0.085 C 
ATOM     19  H   UNL     1     150.937 167.078 193.394  0.00  0.00    +0.034 HD
ATOM     20  H   UNL     1     150.620 164.933 191.892  0.00  0.00    +0.027 HD
ATOM     21  H   UNL     1     152.103 165.429 191.110  0.00  0.00    +0.027 HD
ATOM     22  H   UNL     1     150.305 166.279 189.787  0.00  0.00    +0.029 HD
ATOM     23  H   UNL     1     151.063 167.654 190.538  0.00  0.00    +0.029 HD
ATOM     24  H   UNL     1     149.231 167.659 192.296  0.00  0.00    +0.060 HD
ATOM     25  H   UNL     1     148.453 165.278 192.051  0.00  0.00    +0.033 HD
ATOM     26  H   UNL     1     147.968 165.612 190.382  0.00  0.00    +0.033 HD
ATOM     27  H   UNL     1     145.970 165.766 191.772  0.00  0.00    +0.074 HD
ATOM     28  H   UNL     1     145.359 168.172 191.423  0.00  0.00    +0.035 HD
ATOM     29  H   UNL     1     146.022 167.354 189.986  0.00  0.00    +0.035 HD
ATOM     30  H   UNL     1     146.256 167.375 195.752  0.00  0.00    +0.069 HD
ATOM     31  H   UNL     1     149.175 164.573 196.681  0.00  0.00    +0.031 HD
ATOM     32  H   UNL     1     148.977 164.899 194.974  0.00  0.00    +0.031 HD
ATOM     33  H   UNL     1     150.460 167.045 195.414  0.00  0.00    +0.031 HD
ATOM     34  H   UNL     1     150.888 166.260 196.915  0.00  0.00    +0.031 HD
ATOM     35  H   UNL     1     151.927 164.357 195.798  0.00  0.00    +0.057 HD
ATOM     36  H   UNL     1     152.847 164.661 193.655  0.00  0.00    +0.057 HD
ENDROOT
BRANCH   8  37
ATOM     37  C   UNL     1     146.966 169.873 189.772  0.00  0.00    +0.087 C 
ATOM     38  C   UNL     1     145.449 170.024 189.618  0.00  0.00    +0.026 C 
ATOM     39  S   UNL     1     145.010 169.060 188.139  0.00  0.00    -0.066 S 
ATOM     40  C   UNL     1     146.642 169.062 187.526  0.00  0.00    +0.272 C 
ATOM     41  O   UNL     1     146.968 168.678 186.416  0.00  0.00    -0.263 OA
ATOM     42  N   UNL     1     147.495 169.583 188.451  0.00  0.00    -0.298 N 
ATOM     43  H   UNL     1     147.380 170.842 190.077  0.00  0.00    +0.056 HD
ATOM     44  H   UNL     1     144.874 169.702 190.490  0.00  0.00    +0.040 HD
ATOM     45  H   UNL     1     145.197 171.070 189.410  0.00  0.00    +0.040 HD
ATOM     46  H   UNL     1     148.471 169.664 188.199  0.00  0.00    +0.150 HD
ENDBRANCH   8  37
BRANCH   1  47
ATOM     47  C   UNL     1     152.946 167.359 192.751  0.00  0.00    -0.059 C 
ATOM     48  H   UNL     1     152.759 168.059 191.930  0.00  0.00    +0.024 HD
ATOM     49  H   UNL     1     153.188 167.947 193.643  0.00  0.00    +0.024 HD
ATOM     50  H   UNL     1     153.831 166.773 192.485  0.00  0.00    +0.024 HD
ENDBRANCH   1  47
BRANCH  14  51
ATOM     51  C   UNL     1     148.135 166.992 197.647  0.00  0.00    -0.043 C 
ATOM     52  H   UNL     1     147.683 167.990 197.664  0.00  0.00    +0.027 HD
ATOM     53  H   UNL     1     149.180 167.098 197.955  0.00  0.00    +0.027 HD
ATOM     54  H   UNL     1     147.612 166.382 198.390  0.00  0.00    +0.027 HD
ENDBRANCH  14  51
BRANCH   8  55
ATOM     55  O   UNL     1     147.552 169.491 192.103  0.00  0.00    -0.363 OA
ATOM     56  H   UNL     1     147.633 170.443 191.920  0.00  0.00    +0.213 HD
ENDBRANCH   8  55
TORSDOF 4
ENDMDL
MODEL 8
REMARK VINA RESULT:      -6.0     22.903     25.872
REMARK  Name = Latrunculin B_conf3
REMARK  4 active torsions:
REMARK  status: ('A' for Active; 'I' for Inactive)
REMARK    1  A    between atoms: C_1  and  C_2
REMARK    2  A    between atoms: C_9  and  C_11
REMARK    3  A    between atoms: C_9  and  O_17
REMARK    4  A    between atoms: C_22  and  C_27
REMARK                            x       y       z     vdW  Elec       q    Type
REMARK                         _______ _______ _______ _____ _____    ______ ____
ROOT
ATOM      1  C   UNL     1     153.351 191.866 201.273  0.00  0.00    -0.026 C 
ATOM      2  C   UNL     1     153.316 192.969 202.352  0.00  0.00    -0.045 C 
ATOM      3  C   UNL     1     153.396 192.441 203.793  0.00  0.00    -0.026 C 
ATOM      4  C   UNL     1     152.164 191.648 204.260  0.00  0.00    +0.065 C 
ATOM      5  C   UNL     1     150.917 192.525 204.386  0.00  0.00    +0.011 C 
ATOM      6  C   UNL     1     149.741 191.712 204.932  0.00  0.00    +0.111 C 
ATOM      7  C   UNL     1     150.145 191.003 206.227  0.00  0.00    +0.040 C 
ATOM      8  C   UNL     1     151.463 190.224 206.067  0.00  0.00    +0.190 C 
ATOM      9  O   UNL     1     152.477 191.091 205.543  0.00  0.00    -0.344 OA
ATOM     10  O   UNL     1     149.340 190.705 203.977  0.00  0.00    -0.458 OA
ATOM     11  C   UNL     1     148.600 191.163 202.933  0.00  0.00    +0.332 C 
ATOM     12  O   UNL     1     148.200 192.302 202.766  0.00  0.00    -0.246 OA
ATOM     13  C   UNL     1     148.381 190.045 202.000  0.00  0.00    +0.021 C 
ATOM     14  C   UNL     1     148.773 190.061 200.710  0.00  0.00    -0.066 C 
ATOM     15  C   UNL     1     149.535 191.202 200.055  0.00  0.00    -0.028 C 
ATOM     16  C   UNL     1     150.922 190.776 199.555  0.00  0.00    -0.031 C 
ATOM     17  C   UNL     1     151.797 191.960 199.243  0.00  0.00    -0.087 C 
ATOM     18  C   UNL     1     152.840 192.415 199.959  0.00  0.00    -0.085 C 
ATOM     19  H   UNL     1     152.714 191.039 201.593  0.00  0.00    +0.034 HD
ATOM     20  H   UNL     1     152.412 193.579 202.241  0.00  0.00    +0.027 HD
ATOM     21  H   UNL     1     154.158 193.657 202.192  0.00  0.00    +0.027 HD
ATOM     22  H   UNL     1     153.545 193.292 204.472  0.00  0.00    +0.029 HD
ATOM     23  H   UNL     1     154.293 191.822 203.917  0.00  0.00    +0.029 HD
ATOM     24  H   UNL     1     151.987 190.823 203.563  0.00  0.00    +0.060 HD
ATOM     25  H   UNL     1     150.659 192.956 203.415  0.00  0.00    +0.033 HD
ATOM     26  H   UNL     1     151.118 193.352 205.078  0.00  0.00    +0.033 HD
ATOM     27  H   UNL     1     148.888 192.367 205.147  0.00  0.00    +0.074 HD
ATOM     28  H   UNL     1     149.339 190.320 206.522  0.00  0.00    +0.035 HD
ATOM     29  H   UNL     1     150.263 191.764 207.008  0.00  0.00    +0.035 HD
ATOM     30  H   UNL     1     147.873 189.189 202.430  0.00  0.00    +0.069 HD
ATOM     31  H   UNL     1     148.942 191.589 199.215  0.00  0.00    +0.031 HD
ATOM     32  H   UNL     1     149.654 192.043 200.747  0.00  0.00    +0.031 HD
ATOM     33  H   UNL     1     151.400 190.110 200.283  0.00  0.00    +0.031 HD
ATOM     34  H   UNL     1     150.819 190.182 198.637  0.00  0.00    +0.031 HD
ATOM     35  H   UNL     1     151.549 192.488 198.321  0.00  0.00    +0.057 HD
ATOM     36  H   UNL     1     153.375 193.282 199.572  0.00  0.00    +0.057 HD
ENDROOT
BRANCH   8  37
ATOM     37  C   UNL     1     151.980 189.733 207.464  0.00  0.00    +0.087 C 
ATOM     38  C   UNL     1     152.042 190.862 208.498  0.00  0.00    +0.026 C 
ATOM     39  S   UNL     1     153.791 191.355 208.576  0.00  0.00    -0.066 S 
ATOM     40  C   UNL     1     154.351 189.865 207.867  0.00  0.00    +0.272 C 
ATOM     41  O   UNL     1     155.519 189.521 207.802  0.00  0.00    -0.263 OA
ATOM     42  N   UNL     1     153.297 189.122 207.428  0.00  0.00    -0.298 N 
ATOM     43  H   UNL     1     151.282 188.969 207.829  0.00  0.00    +0.056 HD
ATOM     44  H   UNL     1     151.396 191.714 208.273  0.00  0.00    +0.040 HD
ATOM     45  H   UNL     1     151.768 190.478 209.487  0.00  0.00    +0.040 HD
ATOM     46  H   UNL     1     153.494 188.218 207.021  0.00  0.00    +0.150 HD
ENDBRANCH   8  37
BRANCH   1  47
ATOM     47  C   UNL     1     154.762 191.306 201.080  0.00  0.00    -0.059 C 
ATOM     48  H   UNL     1     154.750 190.211 201.067  0.00  0.00    +0.024 HD
ATOM     49  H   UNL     1     155.205 191.646 200.138  0.00  0.00    +0.024 HD
ATOM     50  H   UNL     1     155.425 191.615 201.894  0.00  0.00    +0.024 HD
ENDBRANCH   1  47
BRANCH  14  51
ATOM     51  C   UNL     1     148.452 188.893 199.813  0.00  0.00    -0.043 C 
ATOM     52  H   UNL     1     147.709 188.223 200.259  0.00  0.00    +0.027 HD
ATOM     53  H   UNL     1     149.350 188.302 199.611  0.00  0.00    +0.027 HD
ATOM     54  H   UNL     1     148.044 189.248 198.860  0.00  0.00    +0.027 HD
ENDBRANCH  14  51
BRANCH   8  55
ATOM     55  O   UNL     1     151.291 189.094 205.218  0.00  0.00    -0.363 OA
ATOM     56  H   UNL     1     150.367 188.796 205.297  0.00  0.00    +0.213 HD
ENDBRANCH   8  55
TORSDOF 4
ENDMDL
MODEL 9
REMARK VINA RESULT:      -5.8     27.347     29.993
REMARK  Name = Latrunculin B_conf3
REMARK  4 active torsions:
REMARK  status: ('A' for Active; 'I' for Inactive)
REMARK    1  A    between atoms: C_1  and  C_2
REMARK    2  A    between atoms: C_9  and  C_11
REMARK    3  A    between atoms: C_9  and  O_17
REMARK    4  A    between atoms: C_22  and  C_27
REMARK                            x       y       z     vdW  Elec       q    Type
REMARK                         _______ _______ _______ _____ _____    ______ ____
ROOT
ATOM      1  C   UNL     1     152.279 192.132 212.322  0.00  0.00    -0.026 C 
ATOM      2  C   UNL     1     151.022 191.947 213.199  0.00  0.00    -0.045 C 
ATOM      3  C   UNL     1     151.256 191.108 214.465  0.00  0.00    -0.026 C 
ATOM      4  C   UNL     1     151.558 189.622 214.209  0.00  0.00    +0.065 C 
ATOM      5  C   UNL     1     150.355 188.872 213.634  0.00  0.00    +0.011 C 
ATOM      6  C   UNL     1     150.675 187.384 213.475  0.00  0.00    +0.111 C 
ATOM      7  C   UNL     1     151.200 186.813 214.794  0.00  0.00    +0.040 C 
ATOM      8  C   UNL     1     152.339 187.670 215.377  0.00  0.00    +0.190 C 
ATOM      9  O   UNL     1     151.917 189.037 215.467  0.00  0.00    -0.344 OA
ATOM     10  O   UNL     1     151.693 187.194 212.468  0.00  0.00    -0.458 OA
ATOM     11  C   UNL     1     151.257 187.286 211.184  0.00  0.00    +0.332 C 
ATOM     12  O   UNL     1     150.107 187.446 210.813  0.00  0.00    -0.246 OA
ATOM     13  C   UNL     1     152.427 187.191 210.294  0.00  0.00    +0.021 C 
ATOM     14  C   UNL     1     152.777 188.152 209.416  0.00  0.00    -0.066 C 
ATOM     15  C   UNL     1     152.052 189.479 209.256  0.00  0.00    -0.028 C 
ATOM     16  C   UNL     1     152.946 190.684 209.585  0.00  0.00    -0.031 C 
ATOM     17  C   UNL     1     152.146 191.944 209.774  0.00  0.00    -0.087 C 
ATOM     18  C   UNL     1     151.876 192.572 210.932  0.00  0.00    -0.085 C 
ATOM     19  H   UNL     1     152.809 191.180 212.262  0.00  0.00    +0.034 HD
ATOM     20  H   UNL     1     150.214 191.495 212.613  0.00  0.00    +0.027 HD
ATOM     21  H   UNL     1     150.648 192.933 213.506  0.00  0.00    +0.027 HD
ATOM     22  H   UNL     1     150.368 191.182 215.107  0.00  0.00    +0.029 HD
ATOM     23  H   UNL     1     152.069 191.545 215.059  0.00  0.00    +0.029 HD
ATOM     24  H   UNL     1     152.418 189.544 213.537  0.00  0.00    +0.060 HD
ATOM     25  H   UNL     1     150.068 189.301 212.671  0.00  0.00    +0.033 HD
ATOM     26  H   UNL     1     149.500 188.972 214.315  0.00  0.00    +0.033 HD
ATOM     27  H   UNL     1     149.774 186.826 213.191  0.00  0.00    +0.074 HD
ATOM     28  H   UNL     1     151.553 185.789 214.620  0.00  0.00    +0.035 HD
ATOM     29  H   UNL     1     150.367 186.780 215.506  0.00  0.00    +0.035 HD
ATOM     30  H   UNL     1     153.000 186.277 210.396  0.00  0.00    +0.069 HD
ATOM     31  H   UNL     1     151.685 189.562 208.224  0.00  0.00    +0.031 HD
ATOM     32  H   UNL     1     151.162 189.519 209.893  0.00  0.00    +0.031 HD
ATOM     33  H   UNL     1     153.564 190.469 210.464  0.00  0.00    +0.031 HD
ATOM     34  H   UNL     1     153.654 190.854 208.763  0.00  0.00    +0.031 HD
ATOM     35  H   UNL     1     151.761 192.390 208.856  0.00  0.00    +0.057 HD
ATOM     36  H   UNL     1     151.291 193.491 210.881  0.00  0.00    +0.057 HD
ENDROOT
BRANCH   8  37
ATOM     37  C   UNL     1     152.672 187.213 216.839  0.00  0.00    +0.087 C 
ATOM     38  C   UNL     1     152.359 188.293 217.880  0.00  0.00    +0.026 C 
ATOM     39  S   UNL     1     153.957 189.061 218.283  0.00  0.00    -0.066 S 
ATOM     40  C   UNL     1     154.877 187.712 217.672  0.00  0.00    +0.272 C 
ATOM     41  O   UNL     1     156.078 187.566 217.818  0.00  0.00    -0.263 OA
ATOM     42  N   UNL     1     154.058 186.827 217.039  0.00  0.00    -0.298 N 
ATOM     43  H   UNL     1     152.059 186.331 217.062  0.00  0.00    +0.056 HD
ATOM     44  H   UNL     1     151.630 189.037 217.550  0.00  0.00    +0.040 HD
ATOM     45  H   UNL     1     151.980 187.828 218.797  0.00  0.00    +0.040 HD
ATOM     46  H   UNL     1     154.473 185.985 216.665  0.00  0.00    +0.150 HD
ENDBRANCH   8  37
BRANCH   1  47
ATOM     47  C   UNL     1     153.244 193.155 212.924  0.00  0.00    -0.059 C 
ATOM     48  H   UNL     1     153.963 192.669 213.593  0.00  0.00    +0.024 HD
ATOM     49  H   UNL     1     153.812 193.678 212.148  0.00  0.00    +0.024 HD
ATOM     50  H   UNL     1     152.708 193.906 213.513  0.00  0.00    +0.024 HD
ENDBRANCH   1  47
BRANCH  14  51
ATOM     51  C   UNL     1     153.957 187.941 208.503  0.00  0.00    -0.043 C 
ATOM     52  H   UNL     1     154.085 186.888 208.230  0.00  0.00    +0.027 HD
ATOM     53  H   UNL     1     154.882 188.272 208.983  0.00  0.00    +0.027 HD
ATOM     54  H   UNL     1     153.824 188.506 207.574  0.00  0.00    +0.027 HD
ENDBRANCH  14  51
BRANCH   8  55
ATOM     55  O   UNL     1     153.516 187.566 214.584  0.00  0.00    -0.363 OA
ATOM     56  H   UNL     1     154.259 187.930 215.097  0.00  0.00    +0.213 HD
ENDBRANCH   8  55
TORSDOF 4
ENDMDL
MODEL 10
REMARK VINA RESULT:      -5.8     12.356     15.970
REMARK  Name = Latrunculin B_conf3
REMARK  4 active torsions:
REMARK  status: ('A' for Active; 'I' for Inactive)
REMARK    1  A    between atoms: C_1  and  C_2
REMARK    2  A    between atoms: C_9  and  C_11
REMARK    3  A    between atoms: C_9  and  O_17
REMARK    4  A    between atoms: C_22  and  C_27
REMARK                            x       y       z     vdW  Elec       q    Type
REMARK                         _______ _______ _______ _____ _____    ______ ____
ROOT
ATOM      1  C   UNL     1     152.341 174.508 181.045  0.00  0.00    -0.026 C 
ATOM      2  C   UNL     1     152.793 173.100 180.598  0.00  0.00    -0.045 C 
ATOM      3  C   UNL     1     153.793 172.429 181.552  0.00  0.00    -0.026 C 
ATOM      4  C   UNL     1     155.180 173.091 181.605  0.00  0.00    +0.065 C 
ATOM      5  C   UNL     1     155.951 172.940 180.292  0.00  0.00    +0.011 C 
ATOM      6  C   UNL     1     157.353 173.538 180.420  0.00  0.00    +0.111 C 
ATOM      7  C   UNL     1     158.068 172.953 181.639  0.00  0.00    +0.040 C 
ATOM      8  C   UNL     1     157.201 173.038 182.909  0.00  0.00    +0.190 C 
ATOM      9  O   UNL     1     155.916 172.453 182.656  0.00  0.00    -0.344 OA
ATOM     10  O   UNL     1     157.274 174.971 180.592  0.00  0.00    -0.458 OA
ATOM     11  C   UNL     1     157.025 175.674 179.456  0.00  0.00    +0.332 C 
ATOM     12  O   UNL     1     156.929 175.227 178.326  0.00  0.00    -0.246 OA
ATOM     13  C   UNL     1     156.855 177.091 179.822  0.00  0.00    +0.021 C 
ATOM     14  C   UNL     1     155.736 177.799 179.568  0.00  0.00    -0.066 C 
ATOM     15  C   UNL     1     154.483 177.228 178.923  0.00  0.00    -0.028 C 
ATOM     16  C   UNL     1     153.260 177.294 179.849  0.00  0.00    -0.031 C 
ATOM     17  C   UNL     1     152.136 176.421 179.359  0.00  0.00    -0.087 C 
ATOM     18  C   UNL     1     151.731 175.248 179.875  0.00  0.00    -0.085 C 
ATOM     19  H   UNL     1     153.211 175.058 181.408  0.00  0.00    +0.034 HD
ATOM     20  H   UNL     1     153.227 173.143 179.593  0.00  0.00    +0.027 HD
ATOM     21  H   UNL     1     151.912 172.450 180.512  0.00  0.00    +0.027 HD
ATOM     22  H   UNL     1     153.915 171.379 181.253  0.00  0.00    +0.029 HD
ATOM     23  H   UNL     1     153.374 172.386 182.566  0.00  0.00    +0.029 HD
ATOM     24  H   UNL     1     155.061 174.148 181.863  0.00  0.00    +0.060 HD
ATOM     25  H   UNL     1     155.406 173.424 179.478  0.00  0.00    +0.033 HD
ATOM     26  H   UNL     1     156.049 171.875 180.045  0.00  0.00    +0.033 HD
ATOM     27  H   UNL     1     157.950 173.313 179.527  0.00  0.00    +0.074 HD
ATOM     28  H   UNL     1     159.009 173.496 181.792  0.00  0.00    +0.035 HD
ATOM     29  H   UNL     1     158.301 171.903 181.425  0.00  0.00    +0.035 HD
ATOM     30  H   UNL     1     157.710 177.535 180.319  0.00  0.00    +0.069 HD
ATOM     31  H   UNL     1     154.277 177.782 177.998  0.00  0.00    +0.031 HD
ATOM     32  H   UNL     1     154.638 176.187 178.620  0.00  0.00    +0.031 HD
ATOM     33  H   UNL     1     153.546 177.036 180.875  0.00  0.00    +0.031 HD
ATOM     34  H   UNL     1     152.888 178.326 179.899  0.00  0.00    +0.031 HD
ATOM     35  H   UNL     1     151.593 176.808 178.496  0.00  0.00    +0.057 HD
ATOM     36  H   UNL     1     150.881 174.756 179.400  0.00  0.00    +0.057 HD
ENDROOT
BRANCH   8  37
ATOM     37  C   UNL     1     157.847 172.204 184.068  0.00  0.00    +0.087 C 
ATOM     38  C   UNL     1     159.106 171.453 183.622  0.00  0.00    +0.026 C 
ATOM     39  S   UNL     1     158.578 169.736 183.344  0.00  0.00    -0.066 S 
ATOM     40  C   UNL     1     157.134 169.915 184.304  0.00  0.00    +0.272 C 
ATOM     41  O   UNL     1     156.403 168.998 184.639  0.00  0.00    -0.263 OA
ATOM     42  N   UNL     1     156.957 171.218 184.657  0.00  0.00    -0.298 N 
ATOM     43  H   UNL     1     158.126 172.901 184.868  0.00  0.00    +0.056 HD
ATOM     44  H   UNL     1     159.588 171.872 182.735  0.00  0.00    +0.040 HD
ATOM     45  H   UNL     1     159.840 171.440 184.435  0.00  0.00    +0.040 HD
ATOM     46  H   UNL     1     156.165 171.445 185.242  0.00  0.00    +0.150 HD
ENDBRANCH   8  37
BRANCH   1  47
ATOM     47  C   UNL     1     151.332 174.441 182.193  0.00  0.00    -0.059 C 
ATOM     48  H   UNL     1     151.802 174.715 183.144  0.00  0.00    +0.024 HD
ATOM     49  H   UNL     1     150.490 175.122 182.029  0.00  0.00    +0.024 HD
ATOM     50  H   UNL     1     150.929 173.430 182.307  0.00  0.00    +0.024 HD
ENDBRANCH   1  47
BRANCH  14  51
ATOM     51  C   UNL     1     155.676 179.261 179.926  0.00  0.00    -0.043 C 
ATOM     52  H   UNL     1     156.116 179.895 179.148  0.00  0.00    +0.027 HD
ATOM     53  H   UNL     1     156.219 179.455 180.856  0.00  0.00    +0.027 HD
ATOM     54  H   UNL     1     154.635 179.577 180.056  0.00  0.00    +0.027 HD
ENDBRANCH  14  51
BRANCH   8  55
ATOM     55  O   UNL     1     157.055 174.387 183.340  0.00  0.00    -0.363 OA
ATOM     56  H   UNL     1     156.205 174.721 183.001  0.00  0.00    +0.213 HD
ENDBRANCH   8  55
TORSDOF 4
ENDMDL
