MODEL 1
REMARK VINA RESULT:      -7.3      0.000      0.000
REMARK  Name = Latrunculin B_conf1
REMARK  4 active torsions:
REMARK  status: ('A' for Active; 'I' for Inactive)
REMARK    1  A    between atoms: C_1  and  C_2
REMARK    2  A    between atoms: C_9  and  C_11
REMARK    3  A    between atoms: C_9  and  O_17
REMARK    4  A    between atoms: C_22  and  C_27
REMARK                            x       y       z     vdW  Elec       q    Type
REMARK                         _______ _______ _______ _____ _____    ______ ____
ROOT
ATOM      1  C   UNL     1     147.703 166.394 195.382  0.00  0.00    -0.026 C 
ATOM      2  C   UNL     1     149.053 166.074 194.705  0.00  0.00    -0.045 C 
ATOM      3  C   UNL     1     148.971 165.741 193.205  0.00  0.00    -0.026 C 
ATOM      4  C   UNL     1     148.408 166.884 192.354  0.00  0.00    +0.065 C 
ATOM      5  C   UNL     1     148.302 166.478 190.887  0.00  0.00    +0.011 C 
ATOM      6  C   UNL     1     147.729 167.641 190.075  0.00  0.00    +0.111 C 
ATOM      7  C   UNL     1     148.573 168.899 190.309  0.00  0.00    +0.040 C 
ATOM      8  C   UNL     1     148.834 169.177 191.803  0.00  0.00    +0.190 C 
ATOM      9  O   UNL     1     149.283 168.007 192.475  0.00  0.00    -0.344 OA
ATOM     10  O   UNL     1     146.374 167.924 190.471  0.00  0.00    -0.458 OA
ATOM     11  C   UNL     1     145.426 167.060 190.045  0.00  0.00    +0.332 C 
ATOM     12  O   UNL     1     145.574 166.110 189.296  0.00  0.00    -0.246 OA
ATOM     13  C   UNL     1     144.144 167.451 190.654  0.00  0.00    +0.021 C 
ATOM     14  C   UNL     1     143.674 166.907 191.795  0.00  0.00    -0.066 C 
ATOM     15  C   UNL     1     144.389 165.826 192.585  0.00  0.00    -0.028 C 
ATOM     16  C   UNL     1     144.793 166.269 194.001  0.00  0.00    -0.031 C 
ATOM     17  C   UNL     1     145.535 165.176 194.723  0.00  0.00    -0.087 C 
ATOM     18  C   UNL     1     146.749 165.225 195.297  0.00  0.00    -0.085 C 
ATOM     19  H   UNL     1     147.274 167.283 194.911  0.00  0.00    +0.034 HD
ATOM     20  H   UNL     1     149.525 165.223 195.214  0.00  0.00    +0.027 HD
ATOM     21  H   UNL     1     149.735 166.924 194.844  0.00  0.00    +0.027 HD
ATOM     22  H   UNL     1     149.989 165.509 192.867  0.00  0.00    +0.029 HD
ATOM     23  H   UNL     1     148.373 164.834 193.058  0.00  0.00    +0.029 HD
ATOM     24  H   UNL     1     147.417 167.153 192.729  0.00  0.00    +0.060 HD
ATOM     25  H   UNL     1     147.672 165.587 190.795  0.00  0.00    +0.033 HD
ATOM     26  H   UNL     1     149.297 166.230 190.495  0.00  0.00    +0.033 HD
ATOM     27  H   UNL     1     147.744 167.405 189.004  0.00  0.00    +0.074 HD
ATOM     28  H   UNL     1     149.525 168.753 189.787  0.00  0.00    +0.035 HD
ATOM     29  H   UNL     1     148.067 169.763 189.859  0.00  0.00    +0.035 HD
ATOM     30  H   UNL     1     143.606 168.218 190.112  0.00  0.00    +0.069 HD
ATOM     31  H   UNL     1     145.282 165.476 192.055  0.00  0.00    +0.031 HD
ATOM     32  H   UNL     1     143.724 164.953 192.649  0.00  0.00    +0.031 HD
ATOM     33  H   UNL     1     143.897 166.501 194.589  0.00  0.00    +0.031 HD
ATOM     34  H   UNL     1     145.377 167.191 193.945  0.00  0.00    +0.031 HD
ATOM     35  H   UNL     1     144.996 164.229 194.792  0.00  0.00    +0.057 HD
ATOM     36  H   UNL     1     147.104 164.311 195.778  0.00  0.00    +0.057 HD
ENDROOT
BRANCH   8  37
ATOM     37  C   UNL     1     149.896 170.322 191.965  0.00  0.00    +0.087 C 
ATOM     38  C   UNL     1     149.808 171.068 193.297  0.00  0.00    +0.026 C 
ATOM     39  S   UNL     1     148.838 172.565 192.950  0.00  0.00    -0.066 S 
ATOM     40  C   UNL     1     149.168 172.506 191.237  0.00  0.00    +0.272 C 
ATOM     41  O   UNL     1     148.914 173.397 190.448  0.00  0.00    -0.263 OA
ATOM     42  N   UNL     1     149.782 171.332 190.920  0.00  0.00    -0.298 N 
ATOM     43  H   UNL     1     150.893 169.882 191.842  0.00  0.00    +0.056 HD
ATOM     44  H   UNL     1     149.365 170.489 194.111  0.00  0.00    +0.040 HD
ATOM     45  H   UNL     1     150.807 171.391 193.611  0.00  0.00    +0.040 HD
ATOM     46  H   UNL     1     150.091 171.187 189.967  0.00  0.00    +0.150 HD
ENDBRANCH   8  37
BRANCH   1  47
ATOM     47  C   UNL     1     147.934 166.751 196.854  0.00  0.00    -0.059 C 
ATOM     48  H   UNL     1     148.574 167.635 196.942  0.00  0.00    +0.024 HD
ATOM     49  H   UNL     1     146.986 166.976 197.356  0.00  0.00    +0.024 HD
ATOM     50  H   UNL     1     148.418 165.930 197.398  0.00  0.00    +0.024 HD
ENDBRANCH   1  47
BRANCH  14  51
ATOM     51  C   UNL     1     142.337 167.342 192.335  0.00  0.00    -0.043 C 
ATOM     52  H   UNL     1     142.069 166.744 193.212  0.00  0.00    +0.027 HD
ATOM     53  H   UNL     1     141.535 167.221 191.598  0.00  0.00    +0.027 HD
ATOM     54  H   UNL     1     142.361 168.397 192.624  0.00  0.00    +0.027 HD
ENDBRANCH  14  51
BRANCH   8  55
ATOM     55  O   UNL     1     147.628 169.628 192.416  0.00  0.00    -0.363 OA
ATOM     56  H   UNL     1     147.511 169.029 193.175  0.00  0.00    +0.213 HD
ENDBRANCH   8  55
TORSDOF 4
ENDMDL
MODEL 2
REMARK VINA RESULT:      -7.1      2.156      3.848
REMARK  Name = Latrunculin B_conf1
REMARK  4 active torsions:
REMARK  status: ('A' for Active; 'I' for Inactive)
REMARK    1  A    between atoms: C_1  and  C_2
REMARK    2  A    between atoms: C_9  and  C_11
REMARK    3  A    between atoms: C_9  and  O_17
REMARK    4  A    between atoms: C_22  and  C_27
REMARK                            x       y       z     vdW  Elec       q    Type
REMARK                         _______ _______ _______ _____ _____    ______ ____
ROOT
ATOM      1  C   UNL     1     151.832 167.832 192.506  0.00  0.00    -0.026 C 
ATOM      2  C   UNL     1     151.646 167.959 190.979  0.00  0.00    -0.045 C 
ATOM      3  C   UNL     1     150.379 167.290 190.417  0.00  0.00    -0.026 C 
ATOM      4  C   UNL     1     149.078 167.868 190.984  0.00  0.00    +0.065 C 
ATOM      5  C   UNL     1     147.861 167.133 190.431  0.00  0.00    +0.011 C 
ATOM      6  C   UNL     1     146.587 167.732 191.028  0.00  0.00    +0.111 C 
ATOM      7  C   UNL     1     146.562 169.245 190.778  0.00  0.00    +0.040 C 
ATOM      8  C   UNL     1     147.884 169.938 191.164  0.00  0.00    +0.190 C 
ATOM      9  O   UNL     1     149.005 169.248 190.625  0.00  0.00    -0.344 OA
ATOM     10  O   UNL     1     146.531 167.506 192.449  0.00  0.00    -0.458 OA
ATOM     11  C   UNL     1     146.220 166.253 192.850  0.00  0.00    +0.332 C 
ATOM     12  O   UNL     1     145.903 165.308 192.148  0.00  0.00    -0.246 OA
ATOM     13  C   UNL     1     146.337 166.201 194.316  0.00  0.00    +0.021 C 
ATOM     14  C   UNL     1     147.451 165.786 194.952  0.00  0.00    -0.066 C 
ATOM     15  C   UNL     1     148.711 165.312 194.250  0.00  0.00    -0.028 C 
ATOM     16  C   UNL     1     149.939 166.193 194.536  0.00  0.00    -0.031 C 
ATOM     17  C   UNL     1     151.147 165.705 193.783  0.00  0.00    -0.087 C 
ATOM     18  C   UNL     1     151.937 166.386 192.934  0.00  0.00    -0.085 C 
ATOM     19  H   UNL     1     150.997 168.328 193.007  0.00  0.00    +0.034 HD
ATOM     20  H   UNL     1     152.514 167.523 190.467  0.00  0.00    +0.027 HD
ATOM     21  H   UNL     1     151.637 169.023 190.707  0.00  0.00    +0.027 HD
ATOM     22  H   UNL     1     150.391 167.434 189.329  0.00  0.00    +0.029 HD
ATOM     23  H   UNL     1     150.419 166.210 190.595  0.00  0.00    +0.029 HD
ATOM     24  H   UNL     1     149.093 167.776 192.074  0.00  0.00    +0.060 HD
ATOM     25  H   UNL     1     147.938 166.065 190.662  0.00  0.00    +0.033 HD
ATOM     26  H   UNL     1     147.824 167.240 189.339  0.00  0.00    +0.033 HD
ATOM     27  H   UNL     1     145.699 167.287 190.562  0.00  0.00    +0.074 HD
ATOM     28  H   UNL     1     146.362 169.395 189.712  0.00  0.00    +0.035 HD
ATOM     29  H   UNL     1     145.735 169.691 191.346  0.00  0.00    +0.035 HD
ATOM     30  H   UNL     1     145.453 166.528 194.849  0.00  0.00    +0.069 HD
ATOM     31  H   UNL     1     148.561 165.257 193.166  0.00  0.00    +0.031 HD
ATOM     32  H   UNL     1     148.915 164.282 194.572  0.00  0.00    +0.031 HD
ATOM     33  H   UNL     1     150.182 166.157 195.605  0.00  0.00    +0.031 HD
ATOM     34  H   UNL     1     149.706 167.236 194.304  0.00  0.00    +0.031 HD
ATOM     35  H   UNL     1     151.411 164.663 193.971  0.00  0.00    +0.057 HD
ATOM     36  H   UNL     1     152.773 165.839 192.494  0.00  0.00    +0.057 HD
ENDROOT
BRANCH   8  37
ATOM     37  C   UNL     1     147.884 171.425 190.661  0.00  0.00    +0.087 C 
ATOM     38  C   UNL     1     149.117 172.224 191.083  0.00  0.00    +0.026 C 
ATOM     39  S   UNL     1     148.611 173.147 192.566  0.00  0.00    -0.066 S 
ATOM     40  C   UNL     1     146.912 173.023 192.189  0.00  0.00    +0.272 C 
ATOM     41  O   UNL     1     146.026 173.634 192.758  0.00  0.00    -0.263 OA
ATOM     42  N   UNL     1     146.727 172.170 191.142  0.00  0.00    -0.298 N 
ATOM     43  H   UNL     1     147.794 171.415 189.568  0.00  0.00    +0.056 HD
ATOM     44  H   UNL     1     150.004 171.617 191.279  0.00  0.00    +0.040 HD
ATOM     45  H   UNL     1     149.369 172.959 190.311  0.00  0.00    +0.040 HD
ATOM     46  H   UNL     1     145.792 172.051 190.773  0.00  0.00    +0.150 HD
ENDBRANCH   8  37
BRANCH   1  47
ATOM     47  C   UNL     1     153.101 168.577 192.937  0.00  0.00    -0.059 C 
ATOM     48  H   UNL     1     153.700 167.960 193.614  0.00  0.00    +0.024 HD
ATOM     49  H   UNL     1     153.725 168.821 192.070  0.00  0.00    +0.024 HD
ATOM     50  H   UNL     1     152.863 169.513 193.456  0.00  0.00    +0.024 HD
ENDBRANCH   1  47
BRANCH  14  51
ATOM     51  C   UNL     1     147.477 165.733 196.457  0.00  0.00    -0.043 C 
ATOM     52  H   UNL     1     146.919 166.576 196.877  0.00  0.00    +0.027 HD
ATOM     53  H   UNL     1     148.497 165.788 196.854  0.00  0.00    +0.027 HD
ATOM     54  H   UNL     1     147.033 164.802 196.820  0.00  0.00    +0.027 HD
ENDBRANCH  14  51
BRANCH   8  55
ATOM     55  O   UNL     1     148.001 169.971 192.585  0.00  0.00    -0.363 OA
ATOM     56  H   UNL     1     148.734 169.358 192.775  0.00  0.00    +0.213 HD
ENDBRANCH   8  55
TORSDOF 4
ENDMDL
MODEL 3
REMARK VINA RESULT:      -6.6      3.391      6.352
REMARK  Name = Latrunculin B_conf1
REMARK  4 active torsions:
REMARK  status: ('A' for Active; 'I' for Inactive)
REMARK    1  A    between atoms: C_1  and  C_2
REMARK    2  A    between atoms: C_9  and  C_11
REMARK    3  A    between atoms: C_9  and  O_17
REMARK    4  A    between atoms: C_22  and  C_27
REMARK                            x       y       z     vdW  Elec       q    Type
REMARK                         _______ _______ _______ _____ _____    ______ ____
ROOT
ATOM      1  C   UNL     1     148.313 171.265 192.181  0.00  0.00    -0.026 C 
ATOM      2  C   UNL     1     147.262 171.236 191.051  0.00  0.00    -0.045 C 
ATOM      3  C   UNL     1     147.498 170.171 189.965  0.00  0.00    -0.026 C 
ATOM      4  C   UNL     1     147.485 168.736 190.501  0.00  0.00    +0.065 C 
ATOM      5  C   UNL     1     147.775 167.730 189.392  0.00  0.00    +0.011 C 
ATOM      6  C   UNL     1     147.761 166.314 189.970  0.00  0.00    +0.111 C 
ATOM      7  C   UNL     1     146.434 166.066 190.698  0.00  0.00    +0.040 C 
ATOM      8  C   UNL     1     146.065 167.201 191.673  0.00  0.00    +0.190 C 
ATOM      9  O   UNL     1     146.194 168.476 191.055  0.00  0.00    -0.344 OA
ATOM     10  O   UNL     1     148.836 166.134 190.911  0.00  0.00    -0.458 OA
ATOM     11  C   UNL     1     150.076 165.993 190.393  0.00  0.00    +0.332 C 
ATOM     12  O   UNL     1     150.383 165.920 189.216  0.00  0.00    -0.246 OA
ATOM     13  C   UNL     1     151.035 165.948 191.509  0.00  0.00    +0.021 C 
ATOM     14  C   UNL     1     151.692 167.035 191.959  0.00  0.00    -0.066 C 
ATOM     15  C   UNL     1     151.543 168.428 191.375  0.00  0.00    -0.028 C 
ATOM     16  C   UNL     1     150.971 169.451 192.370  0.00  0.00    -0.031 C 
ATOM     17  C   UNL     1     150.803 170.803 191.728  0.00  0.00    -0.087 C 
ATOM     18  C   UNL     1     149.696 171.560 191.645  0.00  0.00    -0.085 C 
ATOM     19  H   UNL     1     148.294 170.307 192.707  0.00  0.00    +0.034 HD
ATOM     20  H   UNL     1     147.226 172.217 190.559  0.00  0.00    +0.027 HD
ATOM     21  H   UNL     1     146.268 171.082 191.490  0.00  0.00    +0.027 HD
ATOM     22  H   UNL     1     146.700 170.283 189.220  0.00  0.00    +0.029 HD
ATOM     23  H   UNL     1     148.444 170.370 189.449  0.00  0.00    +0.029 HD
ATOM     24  H   UNL     1     148.242 168.641 191.284  0.00  0.00    +0.060 HD
ATOM     25  H   UNL     1     148.742 167.956 188.931  0.00  0.00    +0.033 HD
ATOM     26  H   UNL     1     147.005 167.801 188.612  0.00  0.00    +0.033 HD
ATOM     27  H   UNL     1     147.863 165.572 189.168  0.00  0.00    +0.074 HD
ATOM     28  H   UNL     1     145.657 165.967 189.932  0.00  0.00    +0.035 HD
ATOM     29  H   UNL     1     146.495 165.117 191.246  0.00  0.00    +0.035 HD
ATOM     30  H   UNL     1     151.168 164.966 191.947  0.00  0.00    +0.069 HD
ATOM     31  H   UNL     1     150.911 168.414 190.480  0.00  0.00    +0.031 HD
ATOM     32  H   UNL     1     152.532 168.763 191.032  0.00  0.00    +0.031 HD
ATOM     33  H   UNL     1     151.659 169.573 193.216  0.00  0.00    +0.031 HD
ATOM     34  H   UNL     1     150.032 169.076 192.785  0.00  0.00    +0.031 HD
ATOM     35  H   UNL     1     151.714 171.212 191.287  0.00  0.00    +0.057 HD
ATOM     36  H   UNL     1     149.793 172.520 191.135  0.00  0.00    +0.057 HD
ENDROOT
BRANCH   8  37
ATOM     37  C   UNL     1     144.597 167.012 192.196  0.00  0.00    +0.087 C 
ATOM     38  C   UNL     1     143.901 165.763 191.656  0.00  0.00    +0.026 C 
ATOM     39  S   UNL     1     142.899 166.336 190.252  0.00  0.00    -0.066 S 
ATOM     40  C   UNL     1     142.880 167.990 190.808  0.00  0.00    +0.272 C 
ATOM     41  O   UNL     1     142.178 168.872 190.348  0.00  0.00    -0.263 OA
ATOM     42  N   UNL     1     143.740 168.140 191.855  0.00  0.00    -0.298 N 
ATOM     43  H   UNL     1     144.627 166.985 193.292  0.00  0.00    +0.056 HD
ATOM     44  H   UNL     1     144.579 164.960 191.356  0.00  0.00    +0.040 HD
ATOM     45  H   UNL     1     143.211 165.364 192.408  0.00  0.00    +0.040 HD
ATOM     46  H   UNL     1     143.785 169.037 192.321  0.00  0.00    +0.150 HD
ENDBRANCH   8  37
BRANCH   1  47
ATOM     47  C   UNL     1     147.935 172.334 193.212  0.00  0.00    -0.059 C 
ATOM     48  H   UNL     1     148.821 172.680 193.753  0.00  0.00    +0.024 HD
ATOM     49  H   UNL     1     147.482 173.205 192.725  0.00  0.00    +0.024 HD
ATOM     50  H   UNL     1     147.219 171.949 193.949  0.00  0.00    +0.024 HD
ENDBRANCH   1  47
BRANCH  14  51
ATOM     51  C   UNL     1     152.681 166.898 193.087  0.00  0.00    -0.043 C 
ATOM     52  H   UNL     1     153.695 166.781 192.692  0.00  0.00    +0.027 HD
ATOM     53  H   UNL     1     152.472 166.024 193.715  0.00  0.00    +0.027 HD
ATOM     54  H   UNL     1     152.655 167.780 193.734  0.00  0.00    +0.027 HD
ENDBRANCH  14  51
BRANCH   8  55
ATOM     55  O   UNL     1     146.929 167.148 192.806  0.00  0.00    -0.363 OA
ATOM     56  H   UNL     1     146.341 166.897 193.541  0.00  0.00    +0.213 HD
ENDBRANCH   8  55
TORSDOF 4
ENDMDL
MODEL 4
REMARK VINA RESULT:      -6.5      2.905      5.982
REMARK  Name = Latrunculin B_conf1
REMARK  4 active torsions:
REMARK  status: ('A' for Active; 'I' for Inactive)
REMARK    1  A    between atoms: C_1  and  C_2
REMARK    2  A    between atoms: C_9  and  C_11
REMARK    3  A    between atoms: C_9  and  O_17
REMARK    4  A    between atoms: C_22  and  C_27
REMARK                            x       y       z     vdW  Elec       q    Type
REMARK                         _______ _______ _______ _____ _____    ______ ____
ROOT
ATOM      1  C   UNL     1     145.771 166.772 189.097  0.00  0.00    -0.026 C 
ATOM      2  C   UNL     1     147.032 165.883 189.028  0.00  0.00    -0.045 C 
ATOM      3  C   UNL     1     148.359 166.608 189.313  0.00  0.00    -0.026 C 
ATOM      4  C   UNL     1     148.433 167.222 190.715  0.00  0.00    +0.065 C 
ATOM      5  C   UNL     1     149.747 167.969 190.921  0.00  0.00    +0.011 C 
ATOM      6  C   UNL     1     149.777 168.573 192.326  0.00  0.00    +0.111 C 
ATOM      7  C   UNL     1     149.519 167.475 193.365  0.00  0.00    +0.040 C 
ATOM      8  C   UNL     1     148.294 166.604 193.026  0.00  0.00    +0.190 C 
ATOM      9  O   UNL     1     148.329 166.168 191.673  0.00  0.00    -0.344 OA
ATOM     10  O   UNL     1     148.761 169.583 192.471  0.00  0.00    -0.458 OA
ATOM     11  C   UNL     1     148.999 170.770 191.872  0.00  0.00    +0.332 C 
ATOM     12  O   UNL     1     150.011 171.116 191.289  0.00  0.00    -0.246 OA
ATOM     13  C   UNL     1     147.801 171.611 192.031  0.00  0.00    +0.021 C 
ATOM     14  C   UNL     1     146.831 171.695 191.098  0.00  0.00    -0.066 C 
ATOM     15  C   UNL     1     146.853 170.956 189.772  0.00  0.00    -0.028 C 
ATOM     16  C   UNL     1     145.698 169.954 189.611  0.00  0.00    -0.031 C 
ATOM     17  C   UNL     1     145.792 169.219 188.300  0.00  0.00    -0.087 C 
ATOM     18  C   UNL     1     145.826 167.892 188.084  0.00  0.00    -0.085 C 
ATOM     19  H   UNL     1     145.673 167.167 190.112  0.00  0.00    +0.034 HD
ATOM     20  H   UNL     1     147.104 165.427 188.031  0.00  0.00    +0.027 HD
ATOM     21  H   UNL     1     146.922 165.050 189.734  0.00  0.00    +0.027 HD
ATOM     22  H   UNL     1     149.163 165.869 189.202  0.00  0.00    +0.029 HD
ATOM     23  H   UNL     1     148.531 167.380 188.555  0.00  0.00    +0.029 HD
ATOM     24  H   UNL     1     147.598 167.916 190.844  0.00  0.00    +0.060 HD
ATOM     25  H   UNL     1     149.855 168.746 190.157  0.00  0.00    +0.033 HD
ATOM     26  H   UNL     1     150.592 167.275 190.817  0.00  0.00    +0.033 HD
ATOM     27  H   UNL     1     150.757 169.024 192.529  0.00  0.00    +0.074 HD
ATOM     28  H   UNL     1     150.419 166.851 193.407  0.00  0.00    +0.035 HD
ATOM     29  H   UNL     1     149.380 167.937 194.351  0.00  0.00    +0.035 HD
ATOM     30  H   UNL     1     147.755 172.156 192.965  0.00  0.00    +0.069 HD
ATOM     31  H   UNL     1     147.803 170.427 189.631  0.00  0.00    +0.031 HD
ATOM     32  H   UNL     1     146.809 171.700 188.965  0.00  0.00    +0.031 HD
ATOM     33  H   UNL     1     144.739 170.486 189.620  0.00  0.00    +0.031 HD
ATOM     34  H   UNL     1     145.684 169.270 190.464  0.00  0.00    +0.031 HD
ATOM     35  H   UNL     1     145.824 169.862 187.420  0.00  0.00    +0.057 HD
ATOM     36  H   UNL     1     145.892 167.565 187.044  0.00  0.00    +0.057 HD
ENDROOT
BRANCH   8  37
ATOM     37  C   UNL     1     148.230 165.361 193.983  0.00  0.00    +0.087 C 
ATOM     38  C   UNL     1     147.098 165.423 195.009  0.00  0.00    +0.026 C 
ATOM     39  S   UNL     1     147.861 166.053 196.534  0.00  0.00    -0.066 S 
ATOM     40  C   UNL     1     149.469 165.589 196.043  0.00  0.00    +0.272 C 
ATOM     41  O   UNL     1     150.448 165.595 196.767  0.00  0.00    -0.263 OA
ATOM     42  N   UNL     1     149.462 165.185 194.742  0.00  0.00    -0.298 N 
ATOM     43  H   UNL     1     148.133 164.460 193.365  0.00  0.00    +0.056 HD
ATOM     44  H   UNL     1     146.248 166.041 194.707  0.00  0.00    +0.040 HD
ATOM     45  H   UNL     1     146.729 164.414 195.220  0.00  0.00    +0.040 HD
ATOM     46  H   UNL     1     150.319 164.826 194.340  0.00  0.00    +0.150 HD
ENDBRANCH   8  37
BRANCH   1  47
ATOM     47  C   UNL     1     144.523 165.921 188.840  0.00  0.00    -0.059 C 
ATOM     48  H   UNL     1     143.617 166.530 188.917  0.00  0.00    +0.024 HD
ATOM     49  H   UNL     1     144.546 165.486 187.834  0.00  0.00    +0.024 HD
ATOM     50  H   UNL     1     144.439 165.099 189.562  0.00  0.00    +0.024 HD
ENDBRANCH   1  47
BRANCH  14  51
ATOM     51  C   UNL     1     145.651 172.603 191.325  0.00  0.00    -0.043 C 
ATOM     52  H   UNL     1     145.528 172.806 192.394  0.00  0.00    +0.027 HD
ATOM     53  H   UNL     1     144.715 172.160 190.967  0.00  0.00    +0.027 HD
ATOM     54  H   UNL     1     145.787 173.553 190.801  0.00  0.00    +0.027 HD
ENDBRANCH  14  51
BRANCH   8  55
ATOM     55  O   UNL     1     147.105 167.363 193.236  0.00  0.00    -0.363 OA
ATOM     56  H   UNL     1     146.649 166.893 193.958  0.00  0.00    +0.213 HD
ENDBRANCH   8  55
TORSDOF 4
ENDMDL
MODEL 5
REMARK VINA RESULT:      -6.1      5.350      6.555
REMARK  Name = Latrunculin B_conf1
REMARK  4 active torsions:
REMARK  status: ('A' for Active; 'I' for Inactive)
REMARK    1  A    between atoms: C_1  and  C_2
REMARK    2  A    between atoms: C_9  and  C_11
REMARK    3  A    between atoms: C_9  and  O_17
REMARK    4  A    between atoms: C_22  and  C_27
REMARK                            x       y       z     vdW  Elec       q    Type
REMARK                         _______ _______ _______ _____ _____    ______ ____
ROOT
ATOM      1  C   UNL     1     152.851 166.688 192.515  0.00  0.00    -0.026 C 
ATOM      2  C   UNL     1     153.427 165.420 191.848  0.00  0.00    -0.045 C 
ATOM      3  C   UNL     1     152.469 164.693 190.888  0.00  0.00    -0.026 C 
ATOM      4  C   UNL     1     152.026 165.551 189.698  0.00  0.00    +0.065 C 
ATOM      5  C   UNL     1     151.040 164.797 188.812  0.00  0.00    +0.011 C 
ATOM      6  C   UNL     1     150.617 165.690 187.644  0.00  0.00    +0.111 C 
ATOM      7  C   UNL     1     151.861 166.189 186.899  0.00  0.00    +0.040 C 
ATOM      8  C   UNL     1     152.933 166.769 187.844  0.00  0.00    +0.190 C 
ATOM      9  O   UNL     1     153.185 165.894 188.937  0.00  0.00    -0.344 OA
ATOM     10  O   UNL     1     149.880 166.833 188.114  0.00  0.00    -0.458 OA
ATOM     11  C   UNL     1     148.606 166.612 188.505  0.00  0.00    +0.332 C 
ATOM     12  O   UNL     1     147.979 165.570 188.433  0.00  0.00    -0.246 OA
ATOM     13  C   UNL     1     148.074 167.867 189.062  0.00  0.00    +0.021 C 
ATOM     14  C   UNL     1     148.092 168.155 190.378  0.00  0.00    -0.066 C 
ATOM     15  C   UNL     1     148.644 167.231 191.449  0.00  0.00    -0.028 C 
ATOM     16  C   UNL     1     149.849 167.818 192.203  0.00  0.00    -0.031 C 
ATOM     17  C   UNL     1     150.382 166.846 193.221  0.00  0.00    -0.087 C 
ATOM     18  C   UNL     1     151.633 166.370 193.351  0.00  0.00    -0.085 C 
ATOM     19  H   UNL     1     152.612 167.418 191.737  0.00  0.00    +0.034 HD
ATOM     20  H   UNL     1     153.733 164.705 192.624  0.00  0.00    +0.027 HD
ATOM     21  H   UNL     1     154.343 165.685 191.304  0.00  0.00    +0.027 HD
ATOM     22  H   UNL     1     152.994 163.805 190.515  0.00  0.00    +0.029 HD
ATOM     23  H   UNL     1     151.592 164.334 191.439  0.00  0.00    +0.029 HD
ATOM     24  H   UNL     1     151.554 166.463 190.073  0.00  0.00    +0.060 HD
ATOM     25  H   UNL     1     150.172 164.488 189.404  0.00  0.00    +0.033 HD
ATOM     26  H   UNL     1     151.514 163.892 188.411  0.00  0.00    +0.033 HD
ATOM     27  H   UNL     1     149.991 165.128 186.940  0.00  0.00    +0.074 HD
ATOM     28  H   UNL     1     152.274 165.337 186.348  0.00  0.00    +0.035 HD
ATOM     29  H   UNL     1     151.563 166.954 186.170  0.00  0.00    +0.035 HD
ATOM     30  H   UNL     1     147.668 168.549 188.324  0.00  0.00    +0.069 HD
ATOM     31  H   UNL     1     148.931 166.263 191.024  0.00  0.00    +0.031 HD
ATOM     32  H   UNL     1     147.836 167.012 192.161  0.00  0.00    +0.031 HD
ATOM     33  H   UNL     1     149.545 168.724 192.743  0.00  0.00    +0.031 HD
ATOM     34  H   UNL     1     150.617 168.125 191.488  0.00  0.00    +0.031 HD
ATOM     35  H   UNL     1     149.646 166.500 193.949  0.00  0.00    +0.057 HD
ATOM     36  H   UNL     1     151.810 165.670 194.169  0.00  0.00    +0.057 HD
ENDROOT
BRANCH   8  37
ATOM     37  C   UNL     1     154.265 167.032 187.057  0.00  0.00    +0.087 C 
ATOM     38  C   UNL     1     154.440 166.154 185.818  0.00  0.00    +0.026 C 
ATOM     39  S   UNL     1     155.497 164.773 186.349  0.00  0.00    -0.066 S 
ATOM     40  C   UNL     1     156.134 165.652 187.715  0.00  0.00    +0.272 C 
ATOM     41  O   UNL     1     157.075 165.292 188.398  0.00  0.00    -0.263 OA
ATOM     42  N   UNL     1     155.446 166.816 187.884  0.00  0.00    -0.298 N 
ATOM     43  H   UNL     1     154.292 168.092 186.777  0.00  0.00    +0.056 HD
ATOM     44  H   UNL     1     153.505 165.792 185.385  0.00  0.00    +0.040 HD
ATOM     45  H   UNL     1     154.986 166.704 185.044  0.00  0.00    +0.040 HD
ATOM     46  H   UNL     1     155.749 167.459 188.604  0.00  0.00    +0.150 HD
ENDBRANCH   8  37
BRANCH   1  47
ATOM     47  C   UNL     1     153.918 167.335 193.404  0.00  0.00    -0.059 C 
ATOM     48  H   UNL     1     154.591 166.575 193.815  0.00  0.00    +0.024 HD
ATOM     49  H   UNL     1     154.527 168.044 192.833  0.00  0.00    +0.024 HD
ATOM     50  H   UNL     1     153.469 167.876 194.246  0.00  0.00    +0.024 HD
ENDBRANCH   1  47
BRANCH  14  51
ATOM     51  C   UNL     1     147.500 169.450 190.869  0.00  0.00    -0.043 C 
ATOM     52  H   UNL     1     146.775 169.259 191.667  0.00  0.00    +0.027 HD
ATOM     53  H   UNL     1     146.975 169.992 190.074  0.00  0.00    +0.027 HD
ATOM     54  H   UNL     1     148.281 170.111 191.257  0.00  0.00    +0.027 HD
ENDBRANCH  14  51
BRANCH   8  55
ATOM     55  O   UNL     1     152.484 168.024 188.351  0.00  0.00    -0.363 OA
ATOM     56  H   UNL     1     152.525 168.618 187.580  0.00  0.00    +0.213 HD
ENDBRANCH   8  55
TORSDOF 4
ENDMDL
MODEL 6
REMARK VINA RESULT:      -6.0     13.367     15.327
REMARK  Name = Latrunculin B_conf1
REMARK  4 active torsions:
REMARK  status: ('A' for Active; 'I' for Inactive)
REMARK    1  A    between atoms: C_1  and  C_2
REMARK    2  A    between atoms: C_9  and  C_11
REMARK    3  A    between atoms: C_9  and  O_17
REMARK    4  A    between atoms: C_22  and  C_27
REMARK                            x       y       z     vdW  Elec       q    Type
REMARK                         _______ _______ _______ _____ _____    ______ ____
ROOT
ATOM      1  C   UNL     1     155.651 174.121 181.761  0.00  0.00    -0.026 C 
ATOM      2  C   UNL     1     156.231 174.441 183.156  0.00  0.00    -0.045 C 
ATOM      3  C   UNL     1     156.285 173.251 184.130  0.00  0.00    -0.026 C 
ATOM      4  C   UNL     1     157.161 172.094 183.638  0.00  0.00    +0.065 C 
ATOM      5  C   UNL     1     157.135 170.926 184.618  0.00  0.00    +0.011 C 
ATOM      6  C   UNL     1     158.012 169.792 184.086  0.00  0.00    +0.111 C 
ATOM      7  C   UNL     1     159.420 170.323 183.793  0.00  0.00    +0.040 C 
ATOM      8  C   UNL     1     159.412 171.622 182.963  0.00  0.00    +0.190 C 
ATOM      9  O   UNL     1     158.500 172.572 183.501  0.00  0.00    -0.344 OA
ATOM     10  O   UNL     1     157.468 169.253 182.867  0.00  0.00    -0.458 OA
ATOM     11  C   UNL     1     156.382 168.458 182.988  0.00  0.00    +0.332 C 
ATOM     12  O   UNL     1     155.854 168.078 184.019  0.00  0.00    -0.246 OA
ATOM     13  C   UNL     1     155.912 168.116 181.636  0.00  0.00    +0.021 C 
ATOM     14  C   UNL     1     154.943 168.803 180.998  0.00  0.00    -0.066 C 
ATOM     15  C   UNL     1     154.209 169.995 181.585  0.00  0.00    -0.028 C 
ATOM     16  C   UNL     1     154.428 171.298 180.799  0.00  0.00    -0.031 C 
ATOM     17  C   UNL     1     153.716 172.454 181.448  0.00  0.00    -0.087 C 
ATOM     18  C   UNL     1     154.224 173.631 181.853  0.00  0.00    -0.085 C 
ATOM     19  H   UNL     1     156.289 173.378 181.275  0.00  0.00    +0.034 HD
ATOM     20  H   UNL     1     155.636 175.235 183.626  0.00  0.00    +0.027 HD
ATOM     21  H   UNL     1     157.242 174.851 183.038  0.00  0.00    +0.027 HD
ATOM     22  H   UNL     1     156.687 173.626 185.080  0.00  0.00    +0.029 HD
ATOM     23  H   UNL     1     155.270 172.892 184.336  0.00  0.00    +0.029 HD
ATOM     24  H   UNL     1     156.793 171.759 182.664  0.00  0.00    +0.060 HD
ATOM     25  H   UNL     1     156.103 170.589 184.764  0.00  0.00    +0.033 HD
ATOM     26  H   UNL     1     157.525 171.247 185.593  0.00  0.00    +0.033 HD
ATOM     27  H   UNL     1     158.089 168.987 184.826  0.00  0.00    +0.074 HD
ATOM     28  H   UNL     1     159.907 170.503 184.758  0.00  0.00    +0.035 HD
ATOM     29  H   UNL     1     159.994 169.552 183.262  0.00  0.00    +0.035 HD
ATOM     30  H   UNL     1     156.412 167.267 181.188  0.00  0.00    +0.069 HD
ATOM     31  H   UNL     1     154.499 170.160 182.630  0.00  0.00    +0.031 HD
ATOM     32  H   UNL     1     153.137 169.758 181.612  0.00  0.00    +0.031 HD
ATOM     33  H   UNL     1     154.025 171.192 179.784  0.00  0.00    +0.031 HD
ATOM     34  H   UNL     1     155.500 171.486 180.690  0.00  0.00    +0.031 HD
ATOM     35  H   UNL     1     152.644 172.305 181.590  0.00  0.00    +0.057 HD
ATOM     36  H   UNL     1     153.525 174.340 182.300  0.00  0.00    +0.057 HD
ENDROOT
BRANCH   8  37
ATOM     37  C   UNL     1     160.853 172.241 182.908  0.00  0.00    +0.087 C 
ATOM     38  C   UNL     1     161.373 172.480 181.491  0.00  0.00    +0.026 C 
ATOM     39  S   UNL     1     162.413 171.039 181.108  0.00  0.00    -0.066 S 
ATOM     40  C   UNL     1     162.654 170.637 182.789  0.00  0.00    +0.272 C 
ATOM     41  O   UNL     1     163.453 169.818 183.201  0.00  0.00    -0.263 OA
ATOM     42  N   UNL     1     161.841 171.400 183.572  0.00  0.00    -0.298 N 
ATOM     43  H   UNL     1     160.841 173.182 183.472  0.00  0.00    +0.056 HD
ATOM     44  H   UNL     1     160.592 172.615 180.739  0.00  0.00    +0.040 HD
ATOM     45  H   UNL     1     162.020 173.364 181.474  0.00  0.00    +0.040 HD
ATOM     46  H   UNL     1     161.919 171.318 184.578  0.00  0.00    +0.150 HD
ENDBRANCH   8  37
BRANCH   1  47
ATOM     47  C   UNL     1     155.697 175.375 180.881  0.00  0.00    -0.059 C 
ATOM     48  H   UNL     1     155.106 176.181 181.327  0.00  0.00    +0.024 HD
ATOM     49  H   UNL     1     156.725 175.738 180.771  0.00  0.00    +0.024 HD
ATOM     50  H   UNL     1     155.298 175.180 179.878  0.00  0.00    +0.024 HD
ENDBRANCH   1  47
BRANCH  14  51
ATOM     51  C   UNL     1     154.498 168.369 179.626  0.00  0.00    -0.043 C 
ATOM     52  H   UNL     1     153.928 167.436 179.688  0.00  0.00    +0.027 HD
ATOM     53  H   UNL     1     155.345 168.190 178.954  0.00  0.00    +0.027 HD
ATOM     54  H   UNL     1     153.868 169.134 179.163  0.00  0.00    +0.027 HD
ENDBRANCH  14  51
BRANCH   8  55
ATOM     55  O   UNL     1     159.027 171.321 181.623  0.00  0.00    -0.363 OA
ATOM     56  H   UNL     1     159.823 170.916 181.234  0.00  0.00    +0.213 HD
ENDBRANCH   8  55
TORSDOF 4
ENDMDL
MODEL 7
REMARK VINA RESULT:      -5.9     13.409     15.531
REMARK  Name = Latrunculin B_conf1
REMARK  4 active torsions:
REMARK  status: ('A' for Active; 'I' for Inactive)
REMARK    1  A    between atoms: C_1  and  C_2
REMARK    2  A    between atoms: C_9  and  C_11
REMARK    3  A    between atoms: C_9  and  O_17
REMARK    4  A    between atoms: C_22  and  C_27
REMARK                            x       y       z     vdW  Elec       q    Type
REMARK                         _______ _______ _______ _____ _____    ______ ____
ROOT
ATOM      1  C   UNL     1     153.834 171.599 179.729  0.00  0.00    -0.026 C 
ATOM      2  C   UNL     1     153.411 172.934 180.380  0.00  0.00    -0.045 C 
ATOM      3  C   UNL     1     153.807 173.095 181.858  0.00  0.00    -0.026 C 
ATOM      4  C   UNL     1     155.320 173.047 182.096  0.00  0.00    +0.065 C 
ATOM      5  C   UNL     1     155.648 173.160 183.581  0.00  0.00    +0.011 C 
ATOM      6  C   UNL     1     157.164 173.098 183.776  0.00  0.00    +0.111 C 
ATOM      7  C   UNL     1     157.840 174.168 182.910  0.00  0.00    +0.040 C 
ATOM      8  C   UNL     1     157.341 174.161 181.452  0.00  0.00    +0.190 C 
ATOM      9  O   UNL     1     155.920 174.134 181.391  0.00  0.00    -0.344 OA
ATOM     10  O   UNL     1     157.678 171.810 183.390  0.00  0.00    -0.458 OA
ATOM     11  C   UNL     1     157.450 170.787 184.243  0.00  0.00    +0.332 C 
ATOM     12  O   UNL     1     156.928 170.842 185.342  0.00  0.00    -0.246 OA
ATOM     13  C   UNL     1     157.939 169.549 183.613  0.00  0.00    +0.021 C 
ATOM     14  C   UNL     1     157.146 168.719 182.908  0.00  0.00    -0.066 C 
ATOM     15  C   UNL     1     155.660 168.939 182.683  0.00  0.00    -0.028 C 
ATOM     16  C   UNL     1     155.287 169.127 181.203  0.00  0.00    -0.031 C 
ATOM     17  C   UNL     1     153.813 169.385 181.041  0.00  0.00    -0.087 C 
ATOM     18  C   UNL     1     153.204 170.417 180.430  0.00  0.00    -0.085 C 
ATOM     19  H   UNL     1     154.925 171.528 179.746  0.00  0.00    +0.034 HD
ATOM     20  H   UNL     1     152.321 173.047 180.308  0.00  0.00    +0.027 HD
ATOM     21  H   UNL     1     153.839 173.765 179.804  0.00  0.00    +0.027 HD
ATOM     22  H   UNL     1     153.422 174.067 182.193  0.00  0.00    +0.029 HD
ATOM     23  H   UNL     1     153.307 172.330 182.462  0.00  0.00    +0.029 HD
ATOM     24  H   UNL     1     155.711 172.102 181.709  0.00  0.00    +0.060 HD
ATOM     25  H   UNL     1     155.148 172.357 184.133  0.00  0.00    +0.033 HD
ATOM     26  H   UNL     1     155.280 174.117 183.974  0.00  0.00    +0.033 HD
ATOM     27  H   UNL     1     157.423 173.283 184.826  0.00  0.00    +0.074 HD
ATOM     28  H   UNL     1     157.628 175.140 183.370  0.00  0.00    +0.035 HD
ATOM     29  H   UNL     1     158.926 174.013 182.927  0.00  0.00    +0.035 HD
ATOM     30  H   UNL     1     158.995 169.359 183.758  0.00  0.00    +0.069 HD
ATOM     31  H   UNL     1     155.300 169.805 183.251  0.00  0.00    +0.031 HD
ATOM     32  H   UNL     1     155.121 168.074 183.091  0.00  0.00    +0.031 HD
ATOM     33  H   UNL     1     155.524 168.216 180.640  0.00  0.00    +0.031 HD
ATOM     34  H   UNL     1     155.892 169.928 180.769  0.00  0.00    +0.031 HD
ATOM     35  H   UNL     1     153.167 168.618 181.471  0.00  0.00    +0.057 HD
ATOM     36  H   UNL     1     152.113 170.409 180.420  0.00  0.00    +0.057 HD
ENDROOT
BRANCH   8  37
ATOM     37  C   UNL     1     157.881 175.422 180.687  0.00  0.00    +0.087 C 
ATOM     38  C   UNL     1     156.800 176.212 179.949  0.00  0.00    +0.026 C 
ATOM     39  S   UNL     1     156.870 175.635 178.227  0.00  0.00    -0.066 S 
ATOM     40  C   UNL     1     158.501 175.037 178.386  0.00  0.00    +0.272 C 
ATOM     41  O   UNL     1     159.201 174.669 177.460  0.00  0.00    -0.263 OA
ATOM     42  N   UNL     1     158.887 175.074 179.692  0.00  0.00    -0.298 N 
ATOM     43  H   UNL     1     158.394 176.066 181.412  0.00  0.00    +0.056 HD
ATOM     44  H   UNL     1     155.795 176.099 180.364  0.00  0.00    +0.040 HD
ATOM     45  H   UNL     1     157.051 177.278 179.947  0.00  0.00    +0.040 HD
ATOM     46  H   UNL     1     159.837 174.814 179.924  0.00  0.00    +0.150 HD
ENDBRANCH   8  37
BRANCH   1  47
ATOM     47  C   UNL     1     153.421 171.589 178.253  0.00  0.00    -0.059 C 
ATOM     48  H   UNL     1     152.806 170.711 178.030  0.00  0.00    +0.024 HD
ATOM     49  H   UNL     1     152.832 172.479 178.005  0.00  0.00    +0.024 HD
ATOM     50  H   UNL     1     154.294 171.565 177.590  0.00  0.00    +0.024 HD
ENDBRANCH   1  47
BRANCH  14  51
ATOM     51  C   UNL     1     157.719 167.456 182.321  0.00  0.00    -0.043 C 
ATOM     52  H   UNL     1     158.256 167.677 181.393  0.00  0.00    +0.027 HD
ATOM     53  H   UNL     1     156.942 166.722 182.082  0.00  0.00    +0.027 HD
ATOM     54  H   UNL     1     158.412 166.983 183.023  0.00  0.00    +0.027 HD
ENDBRANCH  14  51
BRANCH   8  55
ATOM     55  O   UNL     1     157.854 173.009 180.785  0.00  0.00    -0.363 OA
ATOM     56  H   UNL     1     157.067 172.456 180.631  0.00  0.00    +0.213 HD
ENDBRANCH   8  55
TORSDOF 4
ENDMDL
MODEL 8
REMARK VINA RESULT:      -5.9     13.804     16.661
REMARK  Name = Latrunculin B_conf1
REMARK  4 active torsions:
REMARK  status: ('A' for Active; 'I' for Inactive)
REMARK    1  A    between atoms: C_1  and  C_2
REMARK    2  A    between atoms: C_9  and  C_11
REMARK    3  A    between atoms: C_9  and  O_17
REMARK    4  A    between atoms: C_22  and  C_27
REMARK                            x       y       z     vdW  Elec       q    Type
REMARK                         _______ _______ _______ _____ _____    ______ ____
ROOT
ATOM      1  C   UNL     1     157.311 174.983 180.467  0.00  0.00    -0.026 C 
ATOM      2  C   UNL     1     158.497 175.316 181.396  0.00  0.00    -0.045 C 
ATOM      3  C   UNL     1     158.618 174.428 182.647  0.00  0.00    -0.026 C 
ATOM      4  C   UNL     1     158.822 172.944 182.327  0.00  0.00    +0.065 C 
ATOM      5  C   UNL     1     158.883 172.108 183.602  0.00  0.00    +0.011 C 
ATOM      6  C   UNL     1     159.078 170.635 183.239  0.00  0.00    +0.111 C 
ATOM      7  C   UNL     1     160.312 170.484 182.340  0.00  0.00    +0.040 C 
ATOM      8  C   UNL     1     160.323 171.481 181.165  0.00  0.00    +0.190 C 
ATOM      9  O   UNL     1     160.048 172.804 181.607  0.00  0.00    -0.344 OA
ATOM     10  O   UNL     1     157.934 170.127 182.527  0.00  0.00    -0.458 OA
ATOM     11  C   UNL     1     156.827 169.878 183.261  0.00  0.00    +0.332 C 
ATOM     12  O   UNL     1     156.707 169.958 184.471  0.00  0.00    -0.246 OA
ATOM     13  C   UNL     1     155.746 169.490 182.341  0.00  0.00    +0.021 C 
ATOM     14  C   UNL     1     154.841 170.364 181.856  0.00  0.00    -0.066 C 
ATOM     15  C   UNL     1     154.809 171.842 182.202  0.00  0.00    -0.028 C 
ATOM     16  C   UNL     1     155.036 172.759 180.989  0.00  0.00    -0.031 C 
ATOM     17  C   UNL     1     155.038 174.209 181.394  0.00  0.00    -0.087 C 
ATOM     18  C   UNL     1     155.987 175.138 181.180  0.00  0.00    -0.085 C 
ATOM     19  H   UNL     1     157.434 173.965 180.088  0.00  0.00    +0.034 HD
ATOM     20  H   UNL     1     158.419 176.360 181.730  0.00  0.00    +0.027 HD
ATOM     21  H   UNL     1     159.431 175.252 180.823  0.00  0.00    +0.027 HD
ATOM     22  H   UNL     1     159.478 174.792 183.223  0.00  0.00    +0.029 HD
ATOM     23  H   UNL     1     157.733 174.557 183.281  0.00  0.00    +0.029 HD
ATOM     24  H   UNL     1     157.993 172.596 181.704  0.00  0.00    +0.060 HD
ATOM     25  H   UNL     1     157.965 172.251 184.181  0.00  0.00    +0.033 HD
ATOM     26  H   UNL     1     159.728 172.434 184.222  0.00  0.00    +0.033 HD
ATOM     27  H   UNL     1     159.229 170.034 184.144  0.00  0.00    +0.074 HD
ATOM     28  H   UNL     1     161.194 170.643 182.971  0.00  0.00    +0.035 HD
ATOM     29  H   UNL     1     160.352 169.458 181.952  0.00  0.00    +0.035 HD
ATOM     30  H   UNL     1     155.737 168.440 182.077  0.00  0.00    +0.069 HD
ATOM     31  H   UNL     1     155.553 172.083 182.970  0.00  0.00    +0.031 HD
ATOM     32  H   UNL     1     153.834 172.067 182.655  0.00  0.00    +0.031 HD
ATOM     33  H   UNL     1     154.225 172.623 180.262  0.00  0.00    +0.031 HD
ATOM     34  H   UNL     1     155.961 172.475 180.480  0.00  0.00    +0.031 HD
ATOM     35  H   UNL     1     154.139 174.536 181.918  0.00  0.00    +0.057 HD
ATOM     36  H   UNL     1     155.786 176.143 181.556  0.00  0.00    +0.057 HD
ENDROOT
BRANCH   8  37
ATOM     37  C   UNL     1     161.712 171.443 180.435  0.00  0.00    +0.087 C 
ATOM     38  C   UNL     1     162.572 170.231 180.794  0.00  0.00    +0.026 C 
ATOM     39  S   UNL     1     163.716 170.814 182.082  0.00  0.00    -0.066 S 
ATOM     40  C   UNL     1     163.528 172.490 181.634  0.00  0.00    +0.272 C 
ATOM     41  O   UNL     1     164.219 173.403 182.049  0.00  0.00    -0.263 OA
ATOM     42  N   UNL     1     162.521 172.621 180.726  0.00  0.00    -0.298 N 
ATOM     43  H   UNL     1     161.530 171.472 179.354  0.00  0.00    +0.056 HD
ATOM     44  H   UNL     1     162.006 169.360 181.133  0.00  0.00    +0.040 HD
ATOM     45  H   UNL     1     163.176 169.932 179.931  0.00  0.00    +0.040 HD
ATOM     46  H   UNL     1     162.341 173.534 180.329  0.00  0.00    +0.150 HD
ENDBRANCH   8  37
BRANCH   1  47
ATOM     47  C   UNL     1     157.335 175.908 179.244  0.00  0.00    -0.059 C 
ATOM     48  H   UNL     1     156.423 176.511 179.198  0.00  0.00    +0.024 HD
ATOM     49  H   UNL     1     158.187 176.595 179.291  0.00  0.00    +0.024 HD
ATOM     50  H   UNL     1     157.411 175.339 178.309  0.00  0.00    +0.024 HD
ENDBRANCH   1  47
BRANCH  14  51
ATOM     51  C   UNL     1     153.747 169.879 180.942  0.00  0.00    -0.043 C 
ATOM     52  H   UNL     1     153.752 168.786 180.890  0.00  0.00    +0.027 HD
ATOM     53  H   UNL     1     153.866 170.256 179.920  0.00  0.00    +0.027 HD
ATOM     54  H   UNL     1     152.768 170.209 181.302  0.00  0.00    +0.027 HD
ENDBRANCH  14  51
BRANCH   8  55
ATOM     55  O   UNL     1     159.333 171.097 180.213  0.00  0.00    -0.363 OA
ATOM     56  H   UNL     1     158.517 171.021 180.738  0.00  0.00    +0.213 HD
ENDBRANCH   8  55
TORSDOF 4
ENDMDL
MODEL 9
REMARK VINA RESULT:      -5.8     14.271     16.991
REMARK  Name = Latrunculin B_conf1
REMARK  4 active torsions:
REMARK  status: ('A' for Active; 'I' for Inactive)
REMARK    1  A    between atoms: C_1  and  C_2
REMARK    2  A    between atoms: C_9  and  C_11
REMARK    3  A    between atoms: C_9  and  O_17
REMARK    4  A    between atoms: C_22  and  C_27
REMARK                            x       y       z     vdW  Elec       q    Type
REMARK                         _______ _______ _______ _____ _____    ______ ____
ROOT
ATOM      1  C   UNL     1     157.187 174.067 182.113  0.00  0.00    -0.026 C 
ATOM      2  C   UNL     1     158.572 174.748 182.137  0.00  0.00    -0.045 C 
ATOM      3  C   UNL     1     159.626 174.056 183.019  0.00  0.00    -0.026 C 
ATOM      4  C   UNL     1     159.943 172.621 182.583  0.00  0.00    +0.065 C 
ATOM      5  C   UNL     1     160.954 171.970 183.522  0.00  0.00    +0.011 C 
ATOM      6  C   UNL     1     161.235 170.540 183.058  0.00  0.00    +0.111 C 
ATOM      7  C   UNL     1     161.673 170.551 181.589  0.00  0.00    +0.040 C 
ATOM      8  C   UNL     1     160.739 171.385 180.690  0.00  0.00    +0.190 C 
ATOM      9  O   UNL     1     160.480 172.662 181.260  0.00  0.00    -0.344 OA
ATOM     10  O   UNL     1     160.055 169.723 183.174  0.00  0.00    -0.458 OA
ATOM     11  C   UNL     1     159.710 169.332 184.420  0.00  0.00    +0.332 C 
ATOM     12  O   UNL     1     160.326 169.524 185.454  0.00  0.00    -0.246 OA
ATOM     13  C   UNL     1     158.424 168.621 184.337  0.00  0.00    +0.021 C 
ATOM     14  C   UNL     1     157.234 169.222 184.540  0.00  0.00    -0.066 C 
ATOM     15  C   UNL     1     157.066 170.690 184.890  0.00  0.00    -0.028 C 
ATOM     16  C   UNL     1     156.293 171.488 183.828  0.00  0.00    -0.031 C 
ATOM     17  C   UNL     1     156.193 172.942 184.203  0.00  0.00    -0.087 C 
ATOM     18  C   UNL     1     156.568 174.019 183.491  0.00  0.00    -0.085 C 
ATOM     19  H   UNL     1     157.295 173.061 181.698  0.00  0.00    +0.034 HD
ATOM     20  H   UNL     1     158.465 175.783 182.489  0.00  0.00    +0.027 HD
ATOM     21  H   UNL     1     158.956 174.817 181.111  0.00  0.00    +0.027 HD
ATOM     22  H   UNL     1     160.543 174.658 182.964  0.00  0.00    +0.029 HD
ATOM     23  H   UNL     1     159.302 174.067 184.065  0.00  0.00    +0.029 HD
ATOM     24  H   UNL     1     159.019 172.037 182.583  0.00  0.00    +0.060 HD
ATOM     25  H   UNL     1     160.567 171.982 184.546  0.00  0.00    +0.033 HD
ATOM     26  H   UNL     1     161.894 172.536 183.510  0.00  0.00    +0.033 HD
ATOM     27  H   UNL     1     162.036 170.093 183.658  0.00  0.00    +0.074 HD
ATOM     28  H   UNL     1     162.687 170.964 181.555  0.00  0.00    +0.035 HD
ATOM     29  H   UNL     1     161.714 169.519 181.217  0.00  0.00    +0.035 HD
ATOM     30  H   UNL     1     158.508 167.569 184.092  0.00  0.00    +0.069 HD
ATOM     31  H   UNL     1     158.038 171.169 185.054  0.00  0.00    +0.031 HD
ATOM     32  H   UNL     1     156.541 170.754 185.853  0.00  0.00    +0.031 HD
ATOM     33  H   UNL     1     155.270 171.101 183.742  0.00  0.00    +0.031 HD
ATOM     34  H   UNL     1     156.761 171.349 182.850  0.00  0.00    +0.031 HD
ATOM     35  H   UNL     1     155.744 173.130 185.180  0.00  0.00    +0.057 HD
ATOM     36  H   UNL     1     156.402 174.995 183.951  0.00  0.00    +0.057 HD
ENDROOT
BRANCH   8  37
ATOM     37  C   UNL     1     161.369 171.558 179.263  0.00  0.00    +0.087 C 
ATOM     38  C   UNL     1     162.269 170.399 178.836  0.00  0.00    +0.026 C 
ATOM     39  S   UNL     1     163.964 170.938 179.211  0.00  0.00    -0.066 S 
ATOM     40  C   UNL     1     163.534 172.629 179.223  0.00  0.00    +0.272 C 
ATOM     41  O   UNL     1     164.329 173.550 179.250  0.00  0.00    -0.263 OA
ATOM     42  N   UNL     1     162.179 172.766 179.161  0.00  0.00    -0.298 N 
ATOM     43  H   UNL     1     160.552 171.690 178.543  0.00  0.00    +0.056 HD
ATOM     44  H   UNL     1     162.041 169.447 179.321  0.00  0.00    +0.040 HD
ATOM     45  H   UNL     1     162.205 170.255 177.752  0.00  0.00    +0.040 HD
ATOM     46  H   UNL     1     161.788 173.697 179.097  0.00  0.00    +0.150 HD
ENDBRANCH   8  37
BRANCH   1  47
ATOM     47  C   UNL     1     156.252 174.829 181.167  0.00  0.00    -0.059 C 
ATOM     48  H   UNL     1     156.770 175.086 180.237  0.00  0.00    +0.024 HD
ATOM     49  H   UNL     1     155.380 174.220 180.904  0.00  0.00    +0.024 HD
ATOM     50  H   UNL     1     155.890 175.760 181.620  0.00  0.00    +0.024 HD
ENDBRANCH   1  47
BRANCH  14  51
ATOM     51  C   UNL     1     155.965 168.415 184.466  0.00  0.00    -0.043 C 
ATOM     52  H   UNL     1     155.992 167.596 185.192  0.00  0.00    +0.027 HD
ATOM     53  H   UNL     1     155.817 167.968 183.476  0.00  0.00    +0.027 HD
ATOM     54  H   UNL     1     155.094 169.043 184.676  0.00  0.00    +0.027 HD
ENDBRANCH  14  51
BRANCH   8  55
ATOM     55  O   UNL     1     159.502 170.693 180.526  0.00  0.00    -0.363 OA
ATOM     56  H   UNL     1     158.855 171.253 180.991  0.00  0.00    +0.213 HD
ENDBRANCH   8  55
TORSDOF 4
ENDMDL
MODEL 10
REMARK VINA RESULT:      -5.7      2.957      6.211
REMARK  Name = Latrunculin B_conf1
REMARK  4 active torsions:
REMARK  status: ('A' for Active; 'I' for Inactive)
REMARK    1  A    between atoms: C_1  and  C_2
REMARK    2  A    between atoms: C_9  and  C_11
REMARK    3  A    between atoms: C_9  and  O_17
REMARK    4  A    between atoms: C_22  and  C_27
REMARK                            x       y       z     vdW  Elec       q    Type
REMARK                         _______ _______ _______ _____ _____    ______ ____
ROOT
ATOM      1  C   UNL     1     149.428 166.686 187.648  0.00  0.00    -0.026 C 
ATOM      2  C   UNL     1     147.988 166.515 188.177  0.00  0.00    -0.045 C 
ATOM      3  C   UNL     1     147.880 165.964 189.610  0.00  0.00    -0.026 C 
ATOM      4  C   UNL     1     148.542 166.859 190.663  0.00  0.00    +0.065 C 
ATOM      5  C   UNL     1     148.448 166.238 192.053  0.00  0.00    +0.011 C 
ATOM      6  C   UNL     1     149.127 167.156 193.070  0.00  0.00    +0.111 C 
ATOM      7  C   UNL     1     148.524 168.563 192.979  0.00  0.00    +0.040 C 
ATOM      8  C   UNL     1     148.448 169.090 191.533  0.00  0.00    +0.190 C 
ATOM      9  O   UNL     1     147.877 168.123 190.660  0.00  0.00    -0.344 OA
ATOM     10  O   UNL     1     150.540 167.250 192.812  0.00  0.00    -0.458 OA
ATOM     11  C   UNL     1     151.291 166.183 193.160  0.00  0.00    +0.332 C 
ATOM     12  O   UNL     1     150.924 165.177 193.742  0.00  0.00    -0.246 OA
ATOM     13  C   UNL     1     152.670 166.425 192.704  0.00  0.00    +0.021 C 
ATOM     14  C   UNL     1     153.146 165.975 191.526  0.00  0.00    -0.066 C 
ATOM     15  C   UNL     1     152.339 165.158 190.532  0.00  0.00    -0.028 C 
ATOM     16  C   UNL     1     152.142 165.860 189.179  0.00  0.00    -0.031 C 
ATOM     17  C   UNL     1     151.300 165.027 188.249  0.00  0.00    -0.087 C 
ATOM     18  C   UNL     1     150.167 165.368 187.612  0.00  0.00    -0.085 C 
ATOM     19  H   UNL     1     149.952 167.411 188.277  0.00  0.00    +0.034 HD
ATOM     20  H   UNL     1     147.432 165.840 187.513  0.00  0.00    +0.027 HD
ATOM     21  H   UNL     1     147.470 167.482 188.128  0.00  0.00    +0.027 HD
ATOM     22  H   UNL     1     146.811 165.868 189.842  0.00  0.00    +0.029 HD
ATOM     23  H   UNL     1     148.305 164.955 189.654  0.00  0.00    +0.029 HD
ATOM     24  H   UNL     1     149.594 167.000 190.399  0.00  0.00    +0.060 HD
ATOM     25  H   UNL     1     148.913 165.247 192.047  0.00  0.00    +0.033 HD
ATOM     26  H   UNL     1     147.394 166.114 192.337  0.00  0.00    +0.033 HD
ATOM     27  H   UNL     1     148.977 166.777 194.089  0.00  0.00    +0.074 HD
ATOM     28  H   UNL     1     147.517 168.514 193.409  0.00  0.00    +0.035 HD
ATOM     29  H   UNL     1     149.121 169.252 193.590  0.00  0.00    +0.035 HD
ATOM     30  H   UNL     1     153.275 167.003 193.391  0.00  0.00    +0.069 HD
ATOM     31  H   UNL     1     151.356 164.898 190.942  0.00  0.00    +0.031 HD
ATOM     32  H   UNL     1     152.855 164.201 190.378  0.00  0.00    +0.031 HD
ATOM     33  H   UNL     1     153.114 166.013 188.693  0.00  0.00    +0.031 HD
ATOM     34  H   UNL     1     151.714 166.853 189.339  0.00  0.00    +0.031 HD
ATOM     35  H   UNL     1     151.681 164.020 188.071  0.00  0.00    +0.057 HD
ATOM     36  H   UNL     1     149.713 164.608 186.974  0.00  0.00    +0.057 HD
ENDROOT
BRANCH   8  37
ATOM     37  C   UNL     1     147.606 170.414 191.481  0.00  0.00    +0.087 C 
ATOM     38  C   UNL     1     147.930 171.311 190.286  0.00  0.00    +0.026 C 
ATOM     39  S   UNL     1     149.099 172.553 190.916  0.00  0.00    -0.066 S 
ATOM     40  C   UNL     1     148.616 172.314 192.576  0.00  0.00    +0.272 C 
ATOM     41  O   UNL     1     148.943 173.029 193.506  0.00  0.00    -0.263 OA
ATOM     42  N   UNL     1     147.792 171.234 192.672  0.00  0.00    -0.298 N 
ATOM     43  H   UNL     1     146.543 170.142 191.474  0.00  0.00    +0.056 HD
ATOM     44  H   UNL     1     148.342 170.783 189.423  0.00  0.00    +0.040 HD
ATOM     45  H   UNL     1     147.030 171.844 189.964  0.00  0.00    +0.040 HD
ATOM     46  H   UNL     1     147.383 171.014 193.571  0.00  0.00    +0.150 HD
ENDBRANCH   8  37
BRANCH   1  47
ATOM     47  C   UNL     1     149.393 167.282 186.236  0.00  0.00    -0.059 C 
ATOM     48  H   UNL     1     150.353 167.136 185.731  0.00  0.00    +0.024 HD
ATOM     49  H   UNL     1     148.620 166.801 185.627  0.00  0.00    +0.024 HD
ATOM     50  H   UNL     1     149.184 168.359 186.257  0.00  0.00    +0.024 HD
ENDBRANCH   1  47
BRANCH  14  51
ATOM     51  C   UNL     1     154.579 166.241 191.147  0.00  0.00    -0.043 C 
ATOM     52  H   UNL     1     155.216 165.406 191.457  0.00  0.00    +0.027 HD
ATOM     53  H   UNL     1     154.971 167.146 191.625  0.00  0.00    +0.027 HD
ATOM     54  H   UNL     1     154.675 166.373 190.065  0.00  0.00    +0.027 HD
ENDBRANCH  14  51
BRANCH   8  55
ATOM     55  O   UNL     1     149.762 169.405 191.077  0.00  0.00    -0.363 OA
ATOM     56  H   UNL     1     149.624 170.128 190.439  0.00  0.00    +0.213 HD
ENDBRANCH   8  55
TORSDOF 4
ENDMDL
