MODEL 1
REMARK VINA RESULT:      -6.4      0.000      0.000
REMARK  Name = Lobophorolide_conf1
REMARK  23 active torsions:
REMARK  status: ('A' for Active; 'I' for Inactive)
REMARK    1  A    between atoms: C_1  and  C_2
REMARK    2  A    between atoms: C_4  and  O_53
REMARK    3  A    between atoms: C_6  and  C_8
REMARK    4  A    between atoms: C_8  and  C_9
REMARK    5  A    between atoms: C_9  and  C_10
REMARK    6  A    between atoms: C_10  and  C_11
REMARK    7  A    between atoms: C_10  and  C_12
REMARK    8  A    between atoms: C_12  and  C_13
REMARK    9  A    between atoms: C_12  and  O_52
REMARK   10  A    between atoms: C_13  and  C_14
REMARK   11  A    between atoms: C_13  and  C_15
REMARK   12  A    between atoms: C_16  and  C_51
REMARK   13  A    between atoms: C_17  and  O_49
REMARK   14  A    between atoms: C_19  and  O_47
REMARK   15  A    between atoms: C_23  and  O_45
REMARK   16  A    between atoms: C_32  and  O_43
REMARK   17  A    between atoms: C_33  and  O_42
REMARK   18  A    between atoms: C_35  and  C_41
REMARK   19  A    between atoms: O_43  and  C_44
REMARK   20  A    between atoms: O_45  and  C_46
REMARK   21  A    between atoms: O_47  and  C_48
REMARK   22  A    between atoms: O_49  and  C_50
REMARK   23  A    between atoms: O_53  and  C_54
REMARK                            x       y       z     vdW  Elec       q    Type
REMARK                         _______ _______ _______ _____ _____    ______ ____
ROOT
ATOM      1  C   UNL     1     152.557 165.529 189.414  0.00  0.00    +0.113 C 
ATOM      2  C   UNL     1     151.409 164.699 188.756  0.00  0.00    +0.020 C 
ATOM      3  C   UNL     1     151.887 164.032 187.409  0.00  0.00    +0.067 C 
ATOM      4  C   UNL     1     150.787 163.137 186.806  0.00  0.00    +0.003 C 
ATOM      5  C   UNL     1     151.283 162.099 185.790  0.00  0.00    +0.094 C 
ATOM      6  C   UNL     1     152.070 160.903 186.340  0.00  0.00    +0.145 C 
ATOM      7  C   UNL     1     152.795 160.097 185.269  0.00  0.00    +0.083 C 
ATOM      8  O   UNL     1     153.495 161.006 186.124  0.00  0.00    -0.363 OA
ATOM      9  C   UNL     1     151.715 160.300 187.706  0.00  0.00    +0.094 C 
ATOM     10  C   UNL     1     152.140 158.836 187.941  0.00  0.00    +0.003 C 
ATOM     11  C   UNL     1     153.631 158.520 188.137  0.00  0.00    +0.065 C 
ATOM     12  C   UNL     1     153.764 157.040 188.571  0.00  0.00    -0.008 C 
ATOM     13  C   UNL     1     155.091 156.730 189.186  0.00  0.00    -0.083 C 
ATOM     14  C   UNL     1     155.928 157.713 189.539  0.00  0.00    -0.059 C 
ATOM     15  C   UNL     1     155.619 159.174 189.340  0.00  0.00    +0.080 C 
ATOM     16  O   UNL     1     154.201 159.383 189.125  0.00  0.00    -0.369 OA
ATOM     17  C   UNL     1     156.440 159.798 188.199  0.00  0.00    +0.006 C 
ATOM     18  C   UNL     1     157.974 159.782 188.374  0.00  0.00    +0.090 C 
ATOM     19  C   UNL     1     158.520 160.573 189.601  0.00  0.00    +0.100 C 
ATOM     20  C   UNL     1     157.821 161.883 189.819  0.00  0.00    -0.051 C 
ATOM     21  C   UNL     1     158.115 163.079 189.271  0.00  0.00    -0.052 C 
ATOM     22  C   UNL     1     157.204 164.201 189.437  0.00  0.00    -0.052 C 
ATOM     23  C   UNL     1     155.883 164.066 189.260  0.00  0.00    +0.023 C 
ATOM     24  C   UNL     1     154.946 165.196 189.369  0.00  0.00    +0.332 C 
ATOM     25  O   UNL     1     155.240 166.376 189.377  0.00  0.00    -0.246 OA
ATOM     26  O   UNL     1     153.709 164.650 189.433  0.00  0.00    -0.458 OA
ATOM     27  H   UNL     1     152.791 166.362 188.740  0.00  0.00    +0.074 HD
ATOM     28  H   UNL     1     151.164 163.860 189.417  0.00  0.00    +0.036 HD
ATOM     29  H   UNL     1     152.775 163.417 187.611  0.00  0.00    +0.060 HD
ATOM     30  H   UNL     1     150.062 163.780 186.290  0.00  0.00    +0.032 HD
ATOM     31  H   UNL     1     150.219 162.652 187.601  0.00  0.00    +0.032 HD
ATOM     32  H   UNL     1     151.930 162.615 185.068  0.00  0.00    +0.063 HD
ATOM     33  H   UNL     1     152.956 159.036 185.385  0.00  0.00    +0.059 HD
ATOM     34  H   UNL     1     152.669 160.382 184.230  0.00  0.00    +0.059 HD
ATOM     35  H   UNL     1     152.147 160.950 188.478  0.00  0.00    +0.063 HD
ATOM     36  H   UNL     1     151.627 158.492 188.848  0.00  0.00    +0.032 HD
ATOM     37  H   UNL     1     151.733 158.204 187.140  0.00  0.00    +0.032 HD
ATOM     38  H   UNL     1     154.165 158.660 187.195  0.00  0.00    +0.060 HD
ATOM     39  H   UNL     1     153.008 156.786 189.324  0.00  0.00    +0.033 HD
ATOM     40  H   UNL     1     153.592 156.389 187.705  0.00  0.00    +0.033 HD
ATOM     41  H   UNL     1     155.350 155.694 189.382  0.00  0.00    +0.057 HD
ATOM     42  H   UNL     1     156.873 157.471 190.021  0.00  0.00    +0.059 HD
ATOM     43  H   UNL     1     155.831 159.698 190.278  0.00  0.00    +0.064 HD
ATOM     44  H   UNL     1     156.217 159.281 187.255  0.00  0.00    +0.032 HD
ATOM     45  H   UNL     1     156.088 160.821 188.010  0.00  0.00    +0.032 HD
ATOM     46  H   UNL     1     158.289 158.734 188.462  0.00  0.00    +0.063 HD
ATOM     47  H   UNL     1     159.596 160.732 189.498  0.00  0.00    +0.066 HD
ATOM     48  H   UNL     1     156.933 161.801 190.450  0.00  0.00    +0.060 HD
ATOM     49  H   UNL     1     157.638 165.172 189.661  0.00  0.00    +0.062 HD
ATOM     50  H   UNL     1     155.438 163.112 189.000  0.00  0.00    +0.069 HD
ENDROOT
BRANCH  21  51
ATOM     51  C   UNL     1     159.299 163.367 188.393  0.00  0.00    -0.040 C 
ATOM     52  H   UNL     1     159.086 164.210 187.730  0.00  0.00    +0.028 HD
ATOM     53  H   UNL     1     159.587 162.523 187.765  0.00  0.00    +0.028 HD
ATOM     54  H   UNL     1     160.170 163.622 189.003  0.00  0.00    +0.028 HD
ENDBRANCH  21  51
BRANCH   2  55
ATOM     55  C   UNL     1     150.147 165.541 188.539  0.00  0.00    -0.057 C 
ATOM     56  H   UNL     1     149.272 164.911 188.344  0.00  0.00    +0.023 HD
ATOM     57  H   UNL     1     150.269 166.228 187.706  0.00  0.00    +0.023 HD
ATOM     58  H   UNL     1     149.916 166.177 189.396  0.00  0.00    +0.023 HD
ENDBRANCH   2  55
BRANCH   1  59
ATOM     59  C   UNL     1     152.355 166.104 190.858  0.00  0.00    +0.020 C 
ATOM     60  H   UNL     1     151.365 165.759 191.177  0.00  0.00    +0.036 HD
BRANCH  59  61
ATOM     61  C   UNL     1     153.310 165.464 191.874  0.00  0.00    -0.057 C 
ATOM     62  H   UNL     1     153.130 165.854 192.880  0.00  0.00    +0.023 HD
ATOM     63  H   UNL     1     153.245 164.379 191.909  0.00  0.00    +0.023 HD
ATOM     64  H   UNL     1     154.345 165.707 191.613  0.00  0.00    +0.023 HD
ENDBRANCH  59  61
BRANCH  59  65
ATOM     65  C   UNL     1     152.329 167.653 191.012  0.00  0.00    +0.064 C 
ATOM     66  H   UNL     1     153.341 167.981 191.289  0.00  0.00    +0.060 HD
BRANCH  65  67
ATOM     67  C   UNL     1     151.373 168.200 192.108  0.00  0.00    -0.017 C 
ATOM     68  H   UNL     1     151.672 167.813 193.085  0.00  0.00    +0.032 HD
BRANCH  67  69
ATOM     69  C   UNL     1     151.439 169.734 192.170  0.00  0.00    -0.060 C 
ATOM     70  H   UNL     1     150.687 170.127 192.865  0.00  0.00    +0.023 HD
ATOM     71  H   UNL     1     151.250 170.173 191.185  0.00  0.00    +0.023 HD
ATOM     72  H   UNL     1     152.407 170.094 192.521  0.00  0.00    +0.023 HD
ENDBRANCH  67  69
BRANCH  67  73
ATOM     73  C   UNL     1     149.894 167.786 191.899  0.00  0.00    -0.046 C 
ATOM     74  H   UNL     1     149.272 168.295 192.646  0.00  0.00    +0.027 HD
ATOM     75  H   UNL     1     149.542 168.132 190.919  0.00  0.00    +0.027 HD
BRANCH  73  76
ATOM     76  C   UNL     1     149.664 166.278 192.053  0.00  0.00    -0.026 C 
ATOM     77  H   UNL     1     148.947 165.913 191.311  0.00  0.00    +0.029 HD
ATOM     78  H   UNL     1     150.599 165.737 191.852  0.00  0.00    +0.029 HD
BRANCH  76  83
ATOM     79  C   UNL     1     147.469 166.415 195.029  0.00  0.00    +0.059 C 
ATOM     80  C   UNL     1     148.334 165.603 195.999  0.00  0.00    -0.000 C 
ATOM     81  C   UNL     1     149.784 166.068 195.921  0.00  0.00    +0.063 C 
ATOM     82  C   UNL     1     150.322 165.896 194.493  0.00  0.00    -0.000 C 
ATOM     83  C   UNL     1     149.194 165.889 193.458  0.00  0.00    +0.061 C 
ATOM     84  O   UNL     1     148.186 166.825 193.857  0.00  0.00    -0.373 OA
ATOM     85  H   UNL     1     147.167 167.342 195.530  0.00  0.00    +0.059 HD
ATOM     86  H   UNL     1     147.950 165.686 197.023  0.00  0.00    +0.032 HD
ATOM     87  H   UNL     1     148.292 164.529 195.763  0.00  0.00    +0.032 HD
ATOM     88  H   UNL     1     149.824 167.128 196.208  0.00  0.00    +0.060 HD
ATOM     89  H   UNL     1     151.015 166.728 194.293  0.00  0.00    +0.032 HD
ATOM     90  H   UNL     1     150.919 164.979 194.396  0.00  0.00    +0.032 HD
ATOM     91  H   UNL     1     148.742 164.888 193.399  0.00  0.00    +0.060 HD
BRANCH  79  92
ATOM     92  C   UNL     1     146.208 165.669 194.620  0.00  0.00    -0.039 C 
ATOM     93  H   UNL     1     146.214 165.437 193.551  0.00  0.00    +0.025 HD
ATOM     94  H   UNL     1     146.127 164.734 195.185  0.00  0.00    +0.025 HD
ATOM     95  H   UNL     1     145.308 166.251 194.848  0.00  0.00    +0.025 HD
ENDBRANCH  79  92
BRANCH  81  96
ATOM     96  O   UNL     1     150.550 165.300 196.856  0.00  0.00    -0.380 OA
BRANCH  96  97
ATOM     97  C   UNL     1     150.902 164.013 196.361  0.00  0.00    +0.037 C 
ATOM     98  H   UNL     1     150.144 163.713 195.632  0.00  0.00    +0.052 HD
ATOM     99  H   UNL     1     150.914 163.279 197.171  0.00  0.00    +0.052 HD
ATOM    100  H   UNL     1     151.873 164.039 195.857  0.00  0.00    +0.052 HD
ENDBRANCH  96  97
ENDBRANCH  81  96
ENDBRANCH  76  83
ENDBRANCH  73  76
ENDBRANCH  67  73
ENDBRANCH  65  67
BRANCH  65 101
ATOM    101  O   UNL     1     152.047 168.274 189.765  0.00  0.00    -0.391 OA
ATOM    102  H   UNL     1     152.576 167.828 189.082  0.00  0.00    +0.210 HD
ENDBRANCH  65 101
ENDBRANCH  59  65
ENDBRANCH   1  59
BRANCH  19 103
ATOM    103  O   UNL     1     158.329 159.796 190.787  0.00  0.00    -0.385 OA
ATOM    104  H   UNL     1     159.172 159.800 191.272  0.00  0.00    +0.210 HD
ENDBRANCH  19 103
BRANCH  18 105
ATOM    105  O   UNL     1     158.525 160.325 187.158  0.00  0.00    -0.377 OA
BRANCH 105 106
ATOM    106  C   UNL     1     157.531 160.767 186.241  0.00  0.00    +0.037 C 
ATOM    107  H   UNL     1     157.328 159.986 185.500  0.00  0.00    +0.052 HD
ATOM    108  H   UNL     1     157.837 161.689 185.739  0.00  0.00    +0.052 HD
ATOM    109  H   UNL     1     156.611 160.964 186.797  0.00  0.00    +0.052 HD
ENDBRANCH 105 106
ENDBRANCH  18 105
BRANCH   9 110
ATOM    110  O   UNL     1     150.277 160.304 187.833  0.00  0.00    -0.377 OA
BRANCH 110 111
ATOM    111  C   UNL     1     149.783 159.402 188.817  0.00  0.00    +0.037 C 
ATOM    112  H   UNL     1     150.132 158.395 188.564  0.00  0.00    +0.052 HD
ATOM    113  H   UNL     1     148.690 159.392 188.817  0.00  0.00    +0.052 HD
ATOM    114  H   UNL     1     150.162 159.653 189.809  0.00  0.00    +0.052 HD
ENDBRANCH 110 111
ENDBRANCH   9 110
BRANCH   5 115
ATOM    115  O   UNL     1     150.160 161.565 185.061  0.00  0.00    -0.377 OA
BRANCH 115 116
ATOM    116  C   UNL     1     149.954 162.197 183.806  0.00  0.00    +0.037 C 
ATOM    117  H   UNL     1     148.892 162.434 183.717  0.00  0.00    +0.052 HD
ATOM    118  H   UNL     1     150.524 163.124 183.730  0.00  0.00    +0.052 HD
ATOM    119  H   UNL     1     150.226 161.521 182.989  0.00  0.00    +0.052 HD
ENDBRANCH 115 116
ENDBRANCH   5 115
BRANCH   3 120
ATOM    120  O   UNL     1     152.177 165.075 186.462  0.00  0.00    -0.379 OA
BRANCH 120 121
ATOM    121  C   UNL     1     153.478 164.986 185.899  0.00  0.00    +0.037 C 
ATOM    122  H   UNL     1     154.075 164.312 186.523  0.00  0.00    +0.052 HD
ATOM    123  H   UNL     1     153.969 165.965 185.881  0.00  0.00    +0.052 HD
ATOM    124  H   UNL     1     153.436 164.568 184.887  0.00  0.00    +0.052 HD
ENDBRANCH 120 121
ENDBRANCH   3 120
TORSDOF 23
ENDMDL
MODEL 2
REMARK VINA RESULT:      -6.2      2.068      3.379
REMARK  Name = Lobophorolide_conf1
REMARK  23 active torsions:
REMARK  status: ('A' for Active; 'I' for Inactive)
REMARK    1  A    between atoms: C_1  and  C_2
REMARK    2  A    between atoms: C_4  and  O_53
REMARK    3  A    between atoms: C_6  and  C_8
REMARK    4  A    between atoms: C_8  and  C_9
REMARK    5  A    between atoms: C_9  and  C_10
REMARK    6  A    between atoms: C_10  and  C_11
REMARK    7  A    between atoms: C_10  and  C_12
REMARK    8  A    between atoms: C_12  and  C_13
REMARK    9  A    between atoms: C_12  and  O_52
REMARK   10  A    between atoms: C_13  and  C_14
REMARK   11  A    between atoms: C_13  and  C_15
REMARK   12  A    between atoms: C_16  and  C_51
REMARK   13  A    between atoms: C_17  and  O_49
REMARK   14  A    between atoms: C_19  and  O_47
REMARK   15  A    between atoms: C_23  and  O_45
REMARK   16  A    between atoms: C_32  and  O_43
REMARK   17  A    between atoms: C_33  and  O_42
REMARK   18  A    between atoms: C_35  and  C_41
REMARK   19  A    between atoms: O_43  and  C_44
REMARK   20  A    between atoms: O_45  and  C_46
REMARK   21  A    between atoms: O_47  and  C_48
REMARK   22  A    between atoms: O_49  and  C_50
REMARK   23  A    between atoms: O_53  and  C_54
REMARK                            x       y       z     vdW  Elec       q    Type
REMARK                         _______ _______ _______ _____ _____    ______ ____
ROOT
ATOM      1  C   UNL     1     154.462 164.169 188.666  0.00  0.00    +0.113 C 
ATOM      2  C   UNL     1     153.678 163.051 187.909  0.00  0.00    +0.020 C 
ATOM      3  C   UNL     1     154.649 162.158 187.045  0.00  0.00    +0.067 C 
ATOM      4  C   UNL     1     153.891 160.996 186.371  0.00  0.00    +0.003 C 
ATOM      5  C   UNL     1     154.775 159.829 185.911  0.00  0.00    +0.094 C 
ATOM      6  C   UNL     1     155.360 158.923 187.003  0.00  0.00    +0.145 C 
ATOM      7  C   UNL     1     156.465 157.998 186.508  0.00  0.00    +0.083 C 
ATOM      8  O   UNL     1     156.757 159.175 187.268  0.00  0.00    -0.363 OA
ATOM      9  C   UNL     1     154.557 158.618 188.275  0.00  0.00    +0.094 C 
ATOM     10  C   UNL     1     154.934 157.329 189.032  0.00  0.00    +0.003 C 
ATOM     11  C   UNL     1     156.261 157.285 189.804  0.00  0.00    +0.065 C 
ATOM     12  C   UNL     1     156.295 155.987 190.645  0.00  0.00    -0.008 C 
ATOM     13  C   UNL     1     157.316 156.026 191.736  0.00  0.00    -0.083 C 
ATOM     14  C   UNL     1     157.917 157.173 192.071  0.00  0.00    -0.059 C 
ATOM     15  C   UNL     1     157.634 158.486 191.387  0.00  0.00    +0.080 C 
ATOM     16  O   UNL     1     156.386 158.432 190.651  0.00  0.00    -0.369 OA
ATOM     17  C   UNL     1     158.786 158.931 190.471  0.00  0.00    +0.006 C 
ATOM     18  C   UNL     1     160.148 159.177 191.158  0.00  0.00    +0.090 C 
ATOM     19  C   UNL     1     160.166 160.307 192.232  0.00  0.00    +0.100 C 
ATOM     20  C   UNL     1     159.374 161.518 191.829  0.00  0.00    -0.051 C 
ATOM     21  C   UNL     1     159.791 162.578 191.110  0.00  0.00    -0.052 C 
ATOM     22  C   UNL     1     158.832 163.565 190.640  0.00  0.00    -0.052 C 
ATOM     23  C   UNL     1     157.677 163.204 190.067  0.00  0.00    +0.023 C 
ATOM     24  C   UNL     1     156.712 164.180 189.534  0.00  0.00    +0.332 C 
ATOM     25  O   UNL     1     156.927 165.359 189.319  0.00  0.00    -0.246 OA
ATOM     26  O   UNL     1     155.567 163.494 189.318  0.00  0.00    -0.458 OA
ATOM     27  H   UNL     1     154.887 164.842 187.912  0.00  0.00    +0.074 HD
ATOM     28  H   UNL     1     153.246 162.367 188.649  0.00  0.00    +0.036 HD
ATOM     29  H   UNL     1     155.427 161.742 187.698  0.00  0.00    +0.060 HD
ATOM     30  H   UNL     1     153.378 161.387 185.483  0.00  0.00    +0.032 HD
ATOM     31  H   UNL     1     153.095 160.639 187.024  0.00  0.00    +0.032 HD
ATOM     32  H   UNL     1     155.617 160.246 185.343  0.00  0.00    +0.063 HD
ATOM     33  H   UNL     1     156.623 157.030 186.958  0.00  0.00    +0.059 HD
ATOM     34  H   UNL     1     156.718 158.007 185.453  0.00  0.00    +0.059 HD
ATOM     35  H   UNL     1     154.642 159.489 188.938  0.00  0.00    +0.063 HD
ATOM     36  H   UNL     1     154.140 157.141 189.766  0.00  0.00    +0.032 HD
ATOM     37  H   UNL     1     154.880 156.473 188.345  0.00  0.00    +0.032 HD
ATOM     38  H   UNL     1     157.097 157.272 189.102  0.00  0.00    +0.060 HD
ATOM     39  H   UNL     1     155.328 155.813 191.133  0.00  0.00    +0.033 HD
ATOM     40  H   UNL     1     156.485 155.130 189.986  0.00  0.00    +0.033 HD
ATOM     41  H   UNL     1     157.534 155.114 192.285  0.00  0.00    +0.057 HD
ATOM     42  H   UNL     1     158.628 157.191 192.894  0.00  0.00    +0.059 HD
ATOM     43  H   UNL     1     157.460 159.242 192.159  0.00  0.00    +0.064 HD
ATOM     44  H   UNL     1     158.951 158.178 189.688  0.00  0.00    +0.032 HD
ATOM     45  H   UNL     1     158.481 159.818 189.901  0.00  0.00    +0.032 HD
ATOM     46  H   UNL     1     160.457 158.237 191.632  0.00  0.00    +0.063 HD
ATOM     47  H   UNL     1     161.195 160.589 192.464  0.00  0.00    +0.066 HD
ATOM     48  H   UNL     1     158.321 161.462 192.115  0.00  0.00    +0.060 HD
ATOM     49  H   UNL     1     159.106 164.613 190.725  0.00  0.00    +0.062 HD
ATOM     50  H   UNL     1     157.404 162.161 189.941  0.00  0.00    +0.069 HD
ENDROOT
BRANCH  21  51
ATOM     51  C   UNL     1     161.201 162.816 190.647  0.00  0.00    -0.040 C 
ATOM     52  H   UNL     1     161.341 163.865 190.374  0.00  0.00    +0.028 HD
ATOM     53  H   UNL     1     161.479 162.213 189.780  0.00  0.00    +0.028 HD
ATOM     54  H   UNL     1     161.908 162.571 191.444  0.00  0.00    +0.028 HD
ENDBRANCH  21  51
BRANCH   2  55
ATOM     55  C   UNL     1     152.545 163.627 187.051  0.00  0.00    -0.057 C 
ATOM     56  H   UNL     1     152.849 163.735 186.004  0.00  0.00    +0.023 HD
ATOM     57  H   UNL     1     152.227 164.598 187.420  0.00  0.00    +0.023 HD
ATOM     58  H   UNL     1     151.646 163.008 187.076  0.00  0.00    +0.023 HD
ENDBRANCH   2  55
BRANCH   1  59
ATOM     59  C   UNL     1     153.716 165.036 189.737  0.00  0.00    +0.020 C 
ATOM     60  H   UNL     1     152.653 164.791 189.628  0.00  0.00    +0.036 HD
BRANCH  59  61
ATOM     61  C   UNL     1     154.046 164.596 191.169  0.00  0.00    -0.057 C 
ATOM     62  H   UNL     1     154.236 165.461 191.811  0.00  0.00    +0.023 HD
ATOM     63  H   UNL     1     153.269 163.991 191.630  0.00  0.00    +0.023 HD
ATOM     64  H   UNL     1     154.957 163.988 191.169  0.00  0.00    +0.023 HD
ENDBRANCH  59  61
BRANCH  59  65
ATOM     65  C   UNL     1     153.806 166.584 189.592  0.00  0.00    +0.064 C 
ATOM     66  H   UNL     1     154.240 166.984 190.518  0.00  0.00    +0.060 HD
BRANCH  65  67
ATOM     67  C   UNL     1     152.451 167.316 189.387  0.00  0.00    -0.017 C 
ATOM     68  H   UNL     1     152.603 168.396 189.451  0.00  0.00    +0.032 HD
BRANCH  67  69
ATOM     69  C   UNL     1     151.870 167.004 188.000  0.00  0.00    -0.060 C 
ATOM     70  H   UNL     1     151.611 165.941 187.917  0.00  0.00    +0.023 HD
ATOM     71  H   UNL     1     152.593 167.238 187.212  0.00  0.00    +0.023 HD
ATOM     72  H   UNL     1     150.955 167.564 187.797  0.00  0.00    +0.023 HD
ENDBRANCH  67  69
BRANCH  67  73
ATOM     73  C   UNL     1     151.386 166.952 190.453  0.00  0.00    -0.046 C 
ATOM     74  H   UNL     1     150.405 167.310 190.114  0.00  0.00    +0.027 HD
ATOM     75  H   UNL     1     151.301 165.862 190.542  0.00  0.00    +0.027 HD
BRANCH  73  76
ATOM     76  C   UNL     1     151.663 167.586 191.821  0.00  0.00    -0.026 C 
ATOM     77  H   UNL     1     152.662 167.318 192.181  0.00  0.00    +0.029 HD
ATOM     78  H   UNL     1     151.666 168.680 191.730  0.00  0.00    +0.029 HD
BRANCH  76  83
ATOM     79  C   UNL     1     150.048 165.400 194.332  0.00  0.00    +0.059 C 
ATOM     80  C   UNL     1     148.751 166.191 194.535  0.00  0.00    -0.000 C 
ATOM     81  C   UNL     1     148.172 166.600 193.184  0.00  0.00    +0.063 C 
ATOM     82  C   UNL     1     149.181 167.466 192.415  0.00  0.00    -0.000 C 
ATOM     83  C   UNL     1     150.618 167.209 192.875  0.00  0.00    +0.061 C 
ATOM     84  O   UNL     1     150.775 165.816 193.168  0.00  0.00    -0.373 OA
ATOM     85  H   UNL     1     149.788 164.350 194.158  0.00  0.00    +0.059 HD
ATOM     86  H   UNL     1     148.025 165.604 195.110  0.00  0.00    +0.032 HD
ATOM     87  H   UNL     1     148.928 167.096 195.134  0.00  0.00    +0.032 HD
ATOM     88  H   UNL     1     147.950 165.689 192.612  0.00  0.00    +0.060 HD
ATOM     89  H   UNL     1     149.078 167.228 191.344  0.00  0.00    +0.032 HD
ATOM     90  H   UNL     1     148.947 168.535 192.508  0.00  0.00    +0.032 HD
ATOM     91  H   UNL     1     150.831 167.787 193.786  0.00  0.00    +0.060 HD
BRANCH  79  92
ATOM     92  C   UNL     1     150.957 165.465 195.551  0.00  0.00    -0.039 C 
ATOM     93  H   UNL     1     151.347 164.475 195.807  0.00  0.00    +0.025 HD
ATOM     94  H   UNL     1     151.799 166.137 195.355  0.00  0.00    +0.025 HD
ATOM     95  H   UNL     1     150.429 165.870 196.421  0.00  0.00    +0.025 HD
ENDBRANCH  79  92
BRANCH  81  96
ATOM     96  O   UNL     1     146.954 167.316 193.420  0.00  0.00    -0.380 OA
BRANCH  96  97
ATOM     97  C   UNL     1     145.822 166.462 193.535  0.00  0.00    +0.037 C 
ATOM     98  H   UNL     1     145.667 166.248 194.596  0.00  0.00    +0.052 HD
ATOM     99  H   UNL     1     145.996 165.518 193.012  0.00  0.00    +0.052 HD
ATOM    100  H   UNL     1     144.922 166.950 193.148  0.00  0.00    +0.052 HD
ENDBRANCH  96  97
ENDBRANCH  81  96
ENDBRANCH  76  83
ENDBRANCH  73  76
ENDBRANCH  67  73
ENDBRANCH  65  67
BRANCH  65 101
ATOM    101  O   UNL     1     154.712 166.935 188.554  0.00  0.00    -0.391 OA
ATOM    102  H   UNL     1     154.227 167.468 187.901  0.00  0.00    +0.210 HD
ENDBRANCH  65 101
ENDBRANCH  59  65
ENDBRANCH   1  59
BRANCH  19 103
ATOM    103  O   UNL     1     159.588 159.816 193.444  0.00  0.00    -0.385 OA
ATOM    104  H   UNL     1     159.293 160.589 193.955  0.00  0.00    +0.210 HD
ENDBRANCH  19 103
BRANCH  18 105
ATOM    105  O   UNL     1     161.080 159.488 190.105  0.00  0.00    -0.377 OA
BRANCH 105 106
ATOM    106  C   UNL     1     160.475 159.547 188.818  0.00  0.00    +0.037 C 
ATOM    107  H   UNL     1     161.138 160.060 188.114  0.00  0.00    +0.052 HD
ATOM    108  H   UNL     1     159.507 160.053 188.859  0.00  0.00    +0.052 HD
ATOM    109  H   UNL     1     160.318 158.525 188.464  0.00  0.00    +0.052 HD
ENDBRANCH 105 106
ENDBRANCH  18 105
BRANCH   9 110
ATOM    110  O   UNL     1     153.174 158.446 187.895  0.00  0.00    -0.377 OA
BRANCH 110 111
ATOM    111  C   UNL     1     152.774 157.085 187.782  0.00  0.00    +0.037 C 
ATOM    112  H   UNL     1     151.682 157.042 187.850  0.00  0.00    +0.052 HD
ATOM    113  H   UNL     1     153.188 156.492 188.602  0.00  0.00    +0.052 HD
ATOM    114  H   UNL     1     153.070 156.664 186.819  0.00  0.00    +0.052 HD
ENDBRANCH 110 111
ENDBRANCH   9 110
BRANCH   5 115
ATOM    115  O   UNL     1     154.026 158.982 185.018  0.00  0.00    -0.377 OA
BRANCH 115 116
ATOM    116  C   UNL     1     152.817 159.574 184.564  0.00  0.00    +0.037 C 
ATOM    117  H   UNL     1     152.577 160.405 185.229  0.00  0.00    +0.052 HD
ATOM    118  H   UNL     1     152.921 159.959 183.549  0.00  0.00    +0.052 HD
ATOM    119  H   UNL     1     151.998 158.849 184.608  0.00  0.00    +0.052 HD
ENDBRANCH 115 116
ENDBRANCH   5 115
BRANCH   3 120
ATOM    120  O   UNL     1     155.217 162.976 186.006  0.00  0.00    -0.379 OA
BRANCH 120 121
ATOM    121  C   UNL     1     156.637 162.945 185.972  0.00  0.00    +0.037 C 
ATOM    122  H   UNL     1     156.962 161.922 186.193  0.00  0.00    +0.052 HD
ATOM    123  H   UNL     1     157.065 163.613 186.726  0.00  0.00    +0.052 HD
ATOM    124  H   UNL     1     157.006 163.215 184.976  0.00  0.00    +0.052 HD
ENDBRANCH 120 121
ENDBRANCH   3 120
TORSDOF 23
ENDMDL
MODEL 3
REMARK VINA RESULT:      -6.2      2.778      3.904
REMARK  Name = Lobophorolide_conf1
REMARK  23 active torsions:
REMARK  status: ('A' for Active; 'I' for Inactive)
REMARK    1  A    between atoms: C_1  and  C_2
REMARK    2  A    between atoms: C_4  and  O_53
REMARK    3  A    between atoms: C_6  and  C_8
REMARK    4  A    between atoms: C_8  and  C_9
REMARK    5  A    between atoms: C_9  and  C_10
REMARK    6  A    between atoms: C_10  and  C_11
REMARK    7  A    between atoms: C_10  and  C_12
REMARK    8  A    between atoms: C_12  and  C_13
REMARK    9  A    between atoms: C_12  and  O_52
REMARK   10  A    between atoms: C_13  and  C_14
REMARK   11  A    between atoms: C_13  and  C_15
REMARK   12  A    between atoms: C_16  and  C_51
REMARK   13  A    between atoms: C_17  and  O_49
REMARK   14  A    between atoms: C_19  and  O_47
REMARK   15  A    between atoms: C_23  and  O_45
REMARK   16  A    between atoms: C_32  and  O_43
REMARK   17  A    between atoms: C_33  and  O_42
REMARK   18  A    between atoms: C_35  and  C_41
REMARK   19  A    between atoms: O_43  and  C_44
REMARK   20  A    between atoms: O_45  and  C_46
REMARK   21  A    between atoms: O_47  and  C_48
REMARK   22  A    between atoms: O_49  and  C_50
REMARK   23  A    between atoms: O_53  and  C_54
REMARK                            x       y       z     vdW  Elec       q    Type
REMARK                         _______ _______ _______ _____ _____    ______ ____
ROOT
ATOM      1  C   UNL     1     154.670 164.135 188.273  0.00  0.00    +0.113 C 
ATOM      2  C   UNL     1     153.940 163.057 187.410  0.00  0.00    +0.020 C 
ATOM      3  C   UNL     1     154.972 162.174 186.607  0.00  0.00    +0.067 C 
ATOM      4  C   UNL     1     154.260 161.050 185.829  0.00  0.00    +0.003 C 
ATOM      5  C   UNL     1     155.163 159.882 185.411  0.00  0.00    +0.094 C 
ATOM      6  C   UNL     1     155.632 158.930 186.519  0.00  0.00    +0.145 C 
ATOM      7  C   UNL     1     156.764 158.001 186.095  0.00  0.00    +0.083 C 
ATOM      8  O   UNL     1     157.004 159.147 186.918  0.00  0.00    -0.363 OA
ATOM      9  C   UNL     1     154.713 158.599 187.702  0.00  0.00    +0.094 C 
ATOM     10  C   UNL     1     154.999 157.279 188.446  0.00  0.00    +0.003 C 
ATOM     11  C   UNL     1     156.250 157.185 189.333  0.00  0.00    +0.065 C 
ATOM     12  C   UNL     1     156.187 155.859 190.129  0.00  0.00    -0.008 C 
ATOM     13  C   UNL     1     157.105 155.844 191.309  0.00  0.00    -0.083 C 
ATOM     14  C   UNL     1     157.692 156.969 191.735  0.00  0.00    -0.059 C 
ATOM     15  C   UNL     1     157.492 158.308 191.073  0.00  0.00    +0.080 C 
ATOM     16  O   UNL     1     156.316 158.301 190.227  0.00  0.00    -0.369 OA
ATOM     17  C   UNL     1     158.730 158.760 190.281  0.00  0.00    +0.006 C 
ATOM     18  C   UNL     1     160.027 158.959 191.096  0.00  0.00    +0.090 C 
ATOM     19  C   UNL     1     159.966 160.052 192.204  0.00  0.00    +0.100 C 
ATOM     20  C   UNL     1     159.233 161.290 191.774  0.00  0.00    -0.051 C 
ATOM     21  C   UNL     1     159.731 162.365 191.131  0.00  0.00    -0.052 C 
ATOM     22  C   UNL     1     158.833 163.385 190.611  0.00  0.00    -0.052 C 
ATOM     23  C   UNL     1     157.729 163.064 189.923  0.00  0.00    +0.023 C 
ATOM     24  C   UNL     1     156.833 164.076 189.340  0.00  0.00    +0.332 C 
ATOM     25  O   UNL     1     157.085 165.256 189.185  0.00  0.00    -0.246 OA
ATOM     26  O   UNL     1     155.701 163.418 188.998  0.00  0.00    -0.458 OA
ATOM     27  H   UNL     1     155.173 164.824 187.583  0.00  0.00    +0.074 HD
ATOM     28  H   UNL     1     153.433 162.358 188.085  0.00  0.00    +0.036 HD
ATOM     29  H   UNL     1     155.681 161.723 187.313  0.00  0.00    +0.060 HD
ATOM     30  H   UNL     1     153.836 161.479 184.912  0.00  0.00    +0.032 HD
ATOM     31  H   UNL     1     153.402 160.686 186.395  0.00  0.00    +0.032 HD
ATOM     32  H   UNL     1     156.060 160.300 184.935  0.00  0.00    +0.063 HD
ATOM     33  H   UNL     1     156.864 157.016 186.524  0.00  0.00    +0.059 HD
ATOM     34  H   UNL     1     157.111 158.039 185.068  0.00  0.00    +0.059 HD
ATOM     35  H   UNL     1     154.752 159.446 188.400  0.00  0.00    +0.063 HD
ATOM     36  H   UNL     1     154.139 157.082 189.099  0.00  0.00    +0.032 HD
ATOM     37  H   UNL     1     154.994 156.447 187.729  0.00  0.00    +0.032 HD
ATOM     38  H   UNL     1     157.146 157.179 188.709  0.00  0.00    +0.060 HD
ATOM     39  H   UNL     1     155.177 155.689 190.521  0.00  0.00    +0.033 HD
ATOM     40  H   UNL     1     156.422 155.022 189.461  0.00  0.00    +0.033 HD
ATOM     41  H   UNL     1     157.258 154.911 191.844  0.00  0.00    +0.057 HD
ATOM     42  H   UNL     1     158.325 156.946 192.619  0.00  0.00    +0.059 HD
ATOM     43  H   UNL     1     157.261 159.042 191.852  0.00  0.00    +0.064 HD
ATOM     44  H   UNL     1     158.953 158.030 189.490  0.00  0.00    +0.032 HD
ATOM     45  H   UNL     1     158.491 159.672 189.716  0.00  0.00    +0.032 HD
ATOM     46  H   UNL     1     160.277 157.998 191.563  0.00  0.00    +0.063 HD
ATOM     47  H   UNL     1     160.974 160.308 192.537  0.00  0.00    +0.066 HD
ATOM     48  H   UNL     1     158.158 161.245 191.961  0.00  0.00    +0.060 HD
ATOM     49  H   UNL     1     159.115 164.424 190.755  0.00  0.00    +0.062 HD
ATOM     50  H   UNL     1     157.453 162.032 189.739  0.00  0.00    +0.069 HD
ENDROOT
BRANCH  21  51
ATOM     51  C   UNL     1     161.180 162.591 190.805  0.00  0.00    -0.040 C 
ATOM     52  H   UNL     1     161.309 163.543 190.281  0.00  0.00    +0.028 HD
ATOM     53  H   UNL     1     161.608 161.810 190.175  0.00  0.00    +0.028 HD
ATOM     54  H   UNL     1     161.775 162.621 191.723  0.00  0.00    +0.028 HD
ENDBRANCH  21  51
BRANCH   2  55
ATOM     55  C   UNL     1     152.899 163.682 186.474  0.00  0.00    -0.057 C 
ATOM     56  H   UNL     1     153.291 164.577 185.978  0.00  0.00    +0.023 HD
ATOM     57  H   UNL     1     151.997 163.954 187.014  0.00  0.00    +0.023 HD
ATOM     58  H   UNL     1     152.566 162.989 185.698  0.00  0.00    +0.023 HD
ENDBRANCH   2  55
BRANCH   1  59
ATOM     59  C   UNL     1     153.844 164.980 189.301  0.00  0.00    +0.020 C 
ATOM     60  H   UNL     1     152.792 164.781 189.070  0.00  0.00    +0.036 HD
BRANCH  59  61
ATOM     61  C   UNL     1     154.007 164.465 190.737  0.00  0.00    -0.057 C 
ATOM     62  H   UNL     1     153.961 165.287 191.456  0.00  0.00    +0.023 HD
ATOM     63  H   UNL     1     153.265 163.720 191.019  0.00  0.00    +0.023 HD
ATOM     64  H   UNL     1     154.986 163.989 190.851  0.00  0.00    +0.023 HD
ENDBRANCH  59  61
BRANCH  59  65
ATOM     65  C   UNL     1     154.000 166.529 189.241  0.00  0.00    +0.064 C 
ATOM     66  H   UNL     1     154.417 166.863 190.201  0.00  0.00    +0.060 HD
BRANCH  65  67
ATOM     67  C   UNL     1     152.682 167.326 189.032  0.00  0.00    -0.017 C 
ATOM     68  H   UNL     1     152.877 168.395 189.146  0.00  0.00    +0.032 HD
BRANCH  67  69
ATOM     69  C   UNL     1     152.128 167.097 187.618  0.00  0.00    -0.060 C 
ATOM     70  H   UNL     1     152.944 166.951 186.899  0.00  0.00    +0.023 HD
ATOM     71  H   UNL     1     151.537 167.957 187.286  0.00  0.00    +0.023 HD
ATOM     72  H   UNL     1     151.497 166.208 187.558  0.00  0.00    +0.023 HD
ENDBRANCH  67  69
BRANCH  67  73
ATOM     73  C   UNL     1     151.574 166.963 190.054  0.00  0.00    -0.046 C 
ATOM     74  H   UNL     1     150.613 167.348 189.687  0.00  0.00    +0.027 HD
ATOM     75  H   UNL     1     151.464 165.874 190.117  0.00  0.00    +0.027 HD
BRANCH  73  76
ATOM     76  C   UNL     1     151.816 167.565 191.442  0.00  0.00    -0.026 C 
ATOM     77  H   UNL     1     152.022 166.780 192.178  0.00  0.00    +0.029 HD
ATOM     78  H   UNL     1     152.714 168.196 191.423  0.00  0.00    +0.029 HD
BRANCH  76  83
ATOM     79  C   UNL     1     148.388 168.955 191.352  0.00  0.00    +0.059 C 
ATOM     80  C   UNL     1     148.556 170.067 192.393  0.00  0.00    -0.000 C 
ATOM     81  C   UNL     1     149.850 170.832 192.135  0.00  0.00    +0.063 C 
ATOM     82  C   UNL     1     151.053 169.880 192.209  0.00  0.00    -0.000 C 
ATOM     83  C   UNL     1     150.650 168.431 191.927  0.00  0.00    +0.061 C 
ATOM     84  O   UNL     1     149.641 168.414 190.911  0.00  0.00    -0.373 OA
ATOM     85  H   UNL     1     147.921 169.386 190.460  0.00  0.00    +0.059 HD
ATOM     86  H   UNL     1     147.693 170.743 192.380  0.00  0.00    +0.032 HD
ATOM     87  H   UNL     1     148.584 169.656 193.412  0.00  0.00    +0.032 HD
ATOM     88  H   UNL     1     149.793 171.283 191.135  0.00  0.00    +0.060 HD
ATOM     89  H   UNL     1     151.794 170.218 191.467  0.00  0.00    +0.032 HD
ATOM     90  H   UNL     1     151.556 169.942 193.183  0.00  0.00    +0.032 HD
ATOM     91  H   UNL     1     150.240 167.970 192.838  0.00  0.00    +0.060 HD
BRANCH  79  92
ATOM     92  C   UNL     1     147.495 167.829 191.854  0.00  0.00    -0.039 C 
ATOM     93  H   UNL     1     147.189 167.172 191.035  0.00  0.00    +0.025 HD
ATOM     94  H   UNL     1     148.027 167.235 192.604  0.00  0.00    +0.025 HD
ATOM     95  H   UNL     1     146.598 168.221 192.345  0.00  0.00    +0.025 HD
ENDBRANCH  79  92
BRANCH  81  96
ATOM     96  O   UNL     1     149.957 171.872 193.114  0.00  0.00    -0.380 OA
BRANCH  96  97
ATOM     97  C   UNL     1     148.780 172.666 193.211  0.00  0.00    +0.037 C 
ATOM     98  H   UNL     1     147.916 172.007 193.090  0.00  0.00    +0.052 HD
ATOM     99  H   UNL     1     148.756 173.419 192.418  0.00  0.00    +0.052 HD
ATOM    100  H   UNL     1     148.711 173.147 194.192  0.00  0.00    +0.052 HD
ENDBRANCH  96  97
ENDBRANCH  81  96
ENDBRANCH  76  83
ENDBRANCH  73  76
ENDBRANCH  67  73
ENDBRANCH  65  67
BRANCH  65 101
ATOM    101  O   UNL     1     154.954 166.896 188.253  0.00  0.00    -0.391 OA
ATOM    102  H   UNL     1     155.835 166.649 188.581  0.00  0.00    +0.210 HD
ENDBRANCH  65 101
ENDBRANCH  59  65
ENDBRANCH   1  59
BRANCH  19 103
ATOM    103  O   UNL     1     159.273 159.533 193.343  0.00  0.00    -0.385 OA
ATOM    104  H   UNL     1     158.590 160.182 193.584  0.00  0.00    +0.210 HD
ENDBRANCH  19 103
BRANCH  18 105
ATOM    105  O   UNL     1     161.057 159.286 190.141  0.00  0.00    -0.377 OA
BRANCH 105 106
ATOM    106  C   UNL     1     160.573 159.389 188.807  0.00  0.00    +0.037 C 
ATOM    107  H   UNL     1     161.399 159.612 188.124  0.00  0.00    +0.052 HD
ATOM    108  H   UNL     1     159.801 160.158 188.724  0.00  0.00    +0.052 HD
ATOM    109  H   UNL     1     160.138 158.427 188.523  0.00  0.00    +0.052 HD
ENDBRANCH 105 106
ENDBRANCH  18 105
BRANCH   9 110
ATOM    110  O   UNL     1     153.368 158.466 187.194  0.00  0.00    -0.377 OA
BRANCH 110 111
ATOM    111  C   UNL     1     152.961 157.116 186.991  0.00  0.00    +0.037 C 
ATOM    112  H   UNL     1     153.434 156.750 186.074  0.00  0.00    +0.052 HD
ATOM    113  H   UNL     1     151.877 157.057 186.860  0.00  0.00    +0.052 HD
ATOM    114  H   UNL     1     153.282 156.478 187.816  0.00  0.00    +0.052 HD
ENDBRANCH 110 111
ENDBRANCH   9 110
BRANCH   5 115
ATOM    115  O   UNL     1     154.485 159.078 184.425  0.00  0.00    -0.377 OA
BRANCH 115 116
ATOM    116  C   UNL     1     153.345 159.716 183.869  0.00  0.00    +0.037 C 
ATOM    117  H   UNL     1     153.028 159.142 182.997  0.00  0.00    +0.052 HD
ATOM    118  H   UNL     1     152.520 159.747 184.583  0.00  0.00    +0.052 HD
ATOM    119  H   UNL     1     153.597 160.730 183.542  0.00  0.00    +0.052 HD
ENDBRANCH 115 116
ENDBRANCH   5 115
BRANCH   3 120
ATOM    120  O   UNL     1     155.645 163.014 185.653  0.00  0.00    -0.379 OA
BRANCH 120 121
ATOM    121  C   UNL     1     157.061 162.953 185.740  0.00  0.00    +0.037 C 
ATOM    122  H   UNL     1     157.324 162.217 186.509  0.00  0.00    +0.052 HD
ATOM    123  H   UNL     1     157.482 163.921 186.031  0.00  0.00    +0.052 HD
ATOM    124  H   UNL     1     157.495 162.624 184.789  0.00  0.00    +0.052 HD
ENDBRANCH 120 121
ENDBRANCH   3 120
TORSDOF 23
ENDMDL
MODEL 4
REMARK VINA RESULT:      -6.2      1.386      2.275
REMARK  Name = Lobophorolide_conf1
REMARK  23 active torsions:
REMARK  status: ('A' for Active; 'I' for Inactive)
REMARK    1  A    between atoms: C_1  and  C_2
REMARK    2  A    between atoms: C_4  and  O_53
REMARK    3  A    between atoms: C_6  and  C_8
REMARK    4  A    between atoms: C_8  and  C_9
REMARK    5  A    between atoms: C_9  and  C_10
REMARK    6  A    between atoms: C_10  and  C_11
REMARK    7  A    between atoms: C_10  and  C_12
REMARK    8  A    between atoms: C_12  and  C_13
REMARK    9  A    between atoms: C_12  and  O_52
REMARK   10  A    between atoms: C_13  and  C_14
REMARK   11  A    between atoms: C_13  and  C_15
REMARK   12  A    between atoms: C_16  and  C_51
REMARK   13  A    between atoms: C_17  and  O_49
REMARK   14  A    between atoms: C_19  and  O_47
REMARK   15  A    between atoms: C_23  and  O_45
REMARK   16  A    between atoms: C_32  and  O_43
REMARK   17  A    between atoms: C_33  and  O_42
REMARK   18  A    between atoms: C_35  and  C_41
REMARK   19  A    between atoms: O_43  and  C_44
REMARK   20  A    between atoms: O_45  and  C_46
REMARK   21  A    between atoms: O_47  and  C_48
REMARK   22  A    between atoms: O_49  and  C_50
REMARK   23  A    between atoms: O_53  and  C_54
REMARK                            x       y       z     vdW  Elec       q    Type
REMARK                         _______ _______ _______ _____ _____    ______ ____
ROOT
ATOM      1  C   UNL     1     152.042 165.849 189.580  0.00  0.00    +0.113 C 
ATOM      2  C   UNL     1     150.867 164.961 189.060  0.00  0.00    +0.020 C 
ATOM      3  C   UNL     1     151.210 164.325 187.658  0.00  0.00    +0.067 C 
ATOM      4  C   UNL     1     150.093 163.374 187.185  0.00  0.00    +0.003 C 
ATOM      5  C   UNL     1     150.514 162.368 186.106  0.00  0.00    +0.094 C 
ATOM      6  C   UNL     1     151.424 161.214 186.543  0.00  0.00    +0.145 C 
ATOM      7  C   UNL     1     152.053 160.451 185.383  0.00  0.00    +0.083 C 
ATOM      8  O   UNL     1     152.804 161.393 186.155  0.00  0.00    -0.363 OA
ATOM      9  C   UNL     1     151.273 160.588 187.936  0.00  0.00    +0.094 C 
ATOM     10  C   UNL     1     151.800 159.148 188.103  0.00  0.00    +0.003 C 
ATOM     11  C   UNL     1     153.318 158.911 188.110  0.00  0.00    +0.065 C 
ATOM     12  C   UNL     1     153.582 157.440 188.510  0.00  0.00    -0.008 C 
ATOM     13  C   UNL     1     154.988 157.199 188.955  0.00  0.00    -0.083 C 
ATOM     14  C   UNL     1     155.810 158.224 189.212  0.00  0.00    -0.059 C 
ATOM     15  C   UNL     1     155.402 159.667 189.067  0.00  0.00    +0.080 C 
ATOM     16  O   UNL     1     153.959 159.801 189.030  0.00  0.00    -0.369 OA
ATOM     17  C   UNL     1     156.042 160.338 187.840  0.00  0.00    +0.006 C 
ATOM     18  C   UNL     1     157.585 160.403 187.826  0.00  0.00    +0.090 C 
ATOM     19  C   UNL     1     158.236 161.218 188.984  0.00  0.00    +0.100 C 
ATOM     20  C   UNL     1     157.501 162.489 189.299  0.00  0.00    -0.051 C 
ATOM     21  C   UNL     1     157.661 163.700 188.732  0.00  0.00    -0.052 C 
ATOM     22  C   UNL     1     156.720 164.771 189.019  0.00  0.00    -0.052 C 
ATOM     23  C   UNL     1     155.397 164.566 189.005  0.00  0.00    +0.023 C 
ATOM     24  C   UNL     1     154.421 165.644 189.239  0.00  0.00    +0.332 C 
ATOM     25  O   UNL     1     154.652 166.839 189.222  0.00  0.00    -0.246 OA
ATOM     26  O   UNL     1     153.232 165.032 189.448  0.00  0.00    -0.458 OA
ATOM     27  H   UNL     1     152.147 166.696 188.891  0.00  0.00    +0.074 HD
ATOM     28  H   UNL     1     150.750 164.108 189.738  0.00  0.00    +0.036 HD
ATOM     29  H   UNL     1     152.147 163.758 187.743  0.00  0.00    +0.060 HD
ATOM     30  H   UNL     1     149.277 163.979 186.768  0.00  0.00    +0.032 HD
ATOM     31  H   UNL     1     149.654 162.857 188.039  0.00  0.00    +0.032 HD
ATOM     32  H   UNL     1     151.039 162.920 185.315  0.00  0.00    +0.063 HD
ATOM     33  H   UNL     1     152.283 159.401 185.467  0.00  0.00    +0.059 HD
ATOM     34  H   UNL     1     151.786 160.733 184.370  0.00  0.00    +0.059 HD
ATOM     35  H   UNL     1     151.762 161.258 188.656  0.00  0.00    +0.063 HD
ATOM     36  H   UNL     1     151.422 158.774 189.062  0.00  0.00    +0.032 HD
ATOM     37  H   UNL     1     151.331 158.498 187.352  0.00  0.00    +0.032 HD
ATOM     38  H   UNL     1     153.724 159.083 187.111  0.00  0.00    +0.060 HD
ATOM     39  H   UNL     1     152.938 157.143 189.348  0.00  0.00    +0.033 HD
ATOM     40  H   UNL     1     153.338 156.783 187.666  0.00  0.00    +0.033 HD
ATOM     41  H   UNL     1     155.324 156.178 189.107  0.00  0.00    +0.057 HD
ATOM     42  H   UNL     1     156.818 158.031 189.572  0.00  0.00    +0.059 HD
ATOM     43  H   UNL     1     155.700 160.198 189.978  0.00  0.00    +0.064 HD
ATOM     44  H   UNL     1     155.732 159.813 186.926  0.00  0.00    +0.032 HD
ATOM     45  H   UNL     1     155.616 161.341 187.706  0.00  0.00    +0.032 HD
ATOM     46  H   UNL     1     157.963 159.374 187.864  0.00  0.00    +0.063 HD
ATOM     47  H   UNL     1     159.281 161.435 188.751  0.00  0.00    +0.066 HD
ATOM     48  H   UNL     1     156.702 162.357 190.033  0.00  0.00    +0.060 HD
ATOM     49  H   UNL     1     157.126 165.763 189.198  0.00  0.00    +0.062 HD
ATOM     50  H   UNL     1     154.974 163.591 188.791  0.00  0.00    +0.069 HD
ENDROOT
BRANCH  21  51
ATOM     51  C   UNL     1     158.712 164.054 187.717  0.00  0.00    -0.040 C 
ATOM     52  H   UNL     1     158.276 164.094 186.715  0.00  0.00    +0.028 HD
ATOM     53  H   UNL     1     159.539 163.344 187.686  0.00  0.00    +0.028 HD
ATOM     54  H   UNL     1     159.142 165.034 187.944  0.00  0.00    +0.028 HD
ENDBRANCH  21  51
BRANCH   2  55
ATOM     55  C   UNL     1     149.545 165.735 189.008  0.00  0.00    -0.057 C 
ATOM     56  H   UNL     1     149.549 166.483 188.207  0.00  0.00    +0.023 HD
ATOM     57  H   UNL     1     149.346 166.238 189.950  0.00  0.00    +0.023 HD
ATOM     58  H   UNL     1     148.684 165.081 188.850  0.00  0.00    +0.023 HD
ENDBRANCH   2  55
BRANCH   1  59
ATOM     59  C   UNL     1     151.989 166.407 191.043  0.00  0.00    +0.020 C 
ATOM     60  H   UNL     1     150.985 166.171 191.414  0.00  0.00    +0.036 HD
BRANCH  59  61
ATOM     61  C   UNL     1     152.918 165.636 191.990  0.00  0.00    -0.057 C 
ATOM     62  H   UNL     1     153.949 165.652 191.627  0.00  0.00    +0.023 HD
ATOM     63  H   UNL     1     152.908 166.011 193.012  0.00  0.00    +0.023 HD
ATOM     64  H   UNL     1     152.608 164.587 192.040  0.00  0.00    +0.023 HD
ENDBRANCH  59  61
BRANCH  59  65
ATOM     65  C   UNL     1     152.153 167.945 191.227  0.00  0.00    +0.064 C 
ATOM     66  H   UNL     1     153.149 168.129 191.653  0.00  0.00    +0.060 HD
BRANCH  65  67
ATOM     67  C   UNL     1     151.132 168.616 192.187  0.00  0.00    -0.017 C 
ATOM     68  H   UNL     1     151.418 168.421 193.223  0.00  0.00    +0.032 HD
BRANCH  67  69
ATOM     69  C   UNL     1     151.114 170.138 191.982  0.00  0.00    -0.060 C 
ATOM     70  H   UNL     1     152.043 170.478 191.507  0.00  0.00    +0.023 HD
ATOM     71  H   UNL     1     151.015 170.660 192.940  0.00  0.00    +0.023 HD
ATOM     72  H   UNL     1     150.297 170.461 191.335  0.00  0.00    +0.023 HD
ENDBRANCH  67  69
BRANCH  67  73
ATOM     73  C   UNL     1     149.685 168.085 192.018  0.00  0.00    -0.046 C 
ATOM     74  H   UNL     1     148.991 168.936 192.021  0.00  0.00    +0.027 HD
ATOM     75  H   UNL     1     149.575 167.602 191.039  0.00  0.00    +0.027 HD
BRANCH  73  76
ATOM     76  C   UNL     1     149.259 167.134 193.142  0.00  0.00    -0.026 C 
ATOM     77  H   UNL     1     149.729 166.152 193.023  0.00  0.00    +0.029 HD
ATOM     78  H   UNL     1     149.614 167.517 194.108  0.00  0.00    +0.029 HD
BRANCH  76  83
ATOM     79  C   UNL     1     146.100 165.299 193.731  0.00  0.00    +0.059 C 
ATOM     80  C   UNL     1     145.116 166.340 193.187  0.00  0.00    -0.000 C 
ATOM     81  C   UNL     1     145.614 166.880 191.850  0.00  0.00    +0.063 C 
ATOM     82  C   UNL     1     146.996 167.527 192.020  0.00  0.00    -0.000 C 
ATOM     83  C   UNL     1     147.739 166.969 193.237  0.00  0.00    +0.061 C 
ATOM     84  O   UNL     1     147.458 165.570 193.357  0.00  0.00    -0.373 OA
ATOM     85  H   UNL     1     145.859 164.328 193.282  0.00  0.00    +0.059 HD
ATOM     86  H   UNL     1     144.113 165.909 193.086  0.00  0.00    +0.032 HD
ATOM     87  H   UNL     1     145.000 167.179 193.888  0.00  0.00    +0.032 HD
ATOM     88  H   UNL     1     145.678 166.044 191.140  0.00  0.00    +0.060 HD
ATOM     89  H   UNL     1     147.573 167.331 191.102  0.00  0.00    +0.032 HD
ATOM     90  H   UNL     1     146.922 168.620 192.100  0.00  0.00    +0.032 HD
ATOM     91  H   UNL     1     147.400 167.476 194.151  0.00  0.00    +0.060 HD
BRANCH  79  92
ATOM     92  C   UNL     1     146.007 165.155 195.243  0.00  0.00    -0.039 C 
ATOM     93  H   UNL     1     146.956 165.409 195.724  0.00  0.00    +0.025 HD
ATOM     94  H   UNL     1     145.224 165.813 195.634  0.00  0.00    +0.025 HD
ATOM     95  H   UNL     1     145.729 164.135 195.530  0.00  0.00    +0.025 HD
ENDBRANCH  79  92
BRANCH  81  96
ATOM     96  O   UNL     1     144.657 167.831 191.369  0.00  0.00    -0.380 OA
BRANCH  96  97
ATOM     97  C   UNL     1     143.320 167.505 191.731  0.00  0.00    +0.037 C 
ATOM     98  H   UNL     1     143.306 167.273 192.799  0.00  0.00    +0.052 HD
ATOM     99  H   UNL     1     142.975 166.626 191.180  0.00  0.00    +0.052 HD
ATOM    100  H   UNL     1     142.649 168.351 191.554  0.00  0.00    +0.052 HD
ENDBRANCH  96  97
ENDBRANCH  81  96
ENDBRANCH  76  83
ENDBRANCH  73  76
ENDBRANCH  67  73
ENDBRANCH  65  67
BRANCH  65 101
ATOM    101  O   UNL     1     152.142 168.602 189.967  0.00  0.00    -0.391 OA
ATOM    102  H   UNL     1     151.309 169.098 189.895  0.00  0.00    +0.210 HD
ENDBRANCH  65 101
ENDBRANCH  59  65
ENDBRANCH   1  59
BRANCH  19 103
ATOM    103  O   UNL     1     158.233 160.428 190.176  0.00  0.00    -0.385 OA
ATOM    104  H   UNL     1     158.911 160.798 190.767  0.00  0.00    +0.210 HD
ENDBRANCH  19 103
BRANCH  18 105
ATOM    105  O   UNL     1     157.952 160.979 186.556  0.00  0.00    -0.377 OA
BRANCH 105 106
ATOM    106  C   UNL     1     156.831 161.360 185.767  0.00  0.00    +0.037 C 
ATOM    107  H   UNL     1     156.170 162.014 186.345  0.00  0.00    +0.052 HD
ATOM    108  H   UNL     1     156.280 160.485 185.415  0.00  0.00    +0.052 HD
ATOM    109  H   UNL     1     157.194 161.915 184.898  0.00  0.00    +0.052 HD
ENDBRANCH 105 106
ENDBRANCH  18 105
BRANCH   9 110
ATOM    110  O   UNL     1     149.863 160.515 188.238  0.00  0.00    -0.377 OA
BRANCH 110 111
ATOM    111  C   UNL     1     149.496 159.366 188.994  0.00  0.00    +0.037 C 
ATOM    112  H   UNL     1     149.960 159.443 189.983  0.00  0.00    +0.052 HD
ATOM    113  H   UNL     1     149.866 158.455 188.516  0.00  0.00    +0.052 HD
ATOM    114  H   UNL     1     148.414 159.311 189.131  0.00  0.00    +0.052 HD
ENDBRANCH 110 111
ENDBRANCH   9 110
BRANCH   5 115
ATOM    115  O   UNL     1     149.339 161.777 185.515  0.00  0.00    -0.377 OA
BRANCH 115 116
ATOM    116  C   UNL     1     148.145 162.488 185.808  0.00  0.00    +0.037 C 
ATOM    117  H   UNL     1     148.198 163.458 185.312  0.00  0.00    +0.052 HD
ATOM    118  H   UNL     1     147.267 161.956 185.440  0.00  0.00    +0.052 HD
ATOM    119  H   UNL     1     148.058 162.657 186.886  0.00  0.00    +0.052 HD
ENDBRANCH 115 116
ENDBRANCH   5 115
BRANCH   3 120
ATOM    120  O   UNL     1     151.326 165.385 186.692  0.00  0.00    -0.379 OA
BRANCH 120 121
ATOM    121  C   UNL     1     152.550 165.368 185.973  0.00  0.00    +0.037 C 
ATOM    122  H   UNL     1     152.997 164.372 186.081  0.00  0.00    +0.052 HD
ATOM    123  H   UNL     1     153.254 166.106 186.371  0.00  0.00    +0.052 HD
ATOM    124  H   UNL     1     152.376 165.550 184.906  0.00  0.00    +0.052 HD
ENDBRANCH 120 121
ENDBRANCH   3 120
TORSDOF 23
ENDMDL
MODEL 5
REMARK VINA RESULT:      -6.0      1.582      1.893
REMARK  Name = Lobophorolide_conf1
REMARK  23 active torsions:
REMARK  status: ('A' for Active; 'I' for Inactive)
REMARK    1  A    between atoms: C_1  and  C_2
REMARK    2  A    between atoms: C_4  and  O_53
REMARK    3  A    between atoms: C_6  and  C_8
REMARK    4  A    between atoms: C_8  and  C_9
REMARK    5  A    between atoms: C_9  and  C_10
REMARK    6  A    between atoms: C_10  and  C_11
REMARK    7  A    between atoms: C_10  and  C_12
REMARK    8  A    between atoms: C_12  and  C_13
REMARK    9  A    between atoms: C_12  and  O_52
REMARK   10  A    between atoms: C_13  and  C_14
REMARK   11  A    between atoms: C_13  and  C_15
REMARK   12  A    between atoms: C_16  and  C_51
REMARK   13  A    between atoms: C_17  and  O_49
REMARK   14  A    between atoms: C_19  and  O_47
REMARK   15  A    between atoms: C_23  and  O_45
REMARK   16  A    between atoms: C_32  and  O_43
REMARK   17  A    between atoms: C_33  and  O_42
REMARK   18  A    between atoms: C_35  and  C_41
REMARK   19  A    between atoms: O_43  and  C_44
REMARK   20  A    between atoms: O_45  and  C_46
REMARK   21  A    between atoms: O_47  and  C_48
REMARK   22  A    between atoms: O_49  and  C_50
REMARK   23  A    between atoms: O_53  and  C_54
REMARK                            x       y       z     vdW  Elec       q    Type
REMARK                         _______ _______ _______ _____ _____    ______ ____
ROOT
ATOM      1  C   UNL     1     153.899 165.284 188.279  0.00  0.00    +0.113 C 
ATOM      2  C   UNL     1     152.948 164.410 187.401  0.00  0.00    +0.020 C 
ATOM      3  C   UNL     1     153.762 163.543 186.366  0.00  0.00    +0.067 C 
ATOM      4  C   UNL     1     152.833 162.611 185.563  0.00  0.00    +0.003 C 
ATOM      5  C   UNL     1     153.535 161.423 184.891  0.00  0.00    +0.094 C 
ATOM      6  C   UNL     1     154.019 160.289 185.804  0.00  0.00    +0.145 C 
ATOM      7  C   UNL     1     154.973 159.314 185.122  0.00  0.00    +0.083 C 
ATOM      8  O   UNL     1     155.445 160.310 186.035  0.00  0.00    -0.363 OA
ATOM      9  C   UNL     1     153.217 159.899 187.053  0.00  0.00    +0.094 C 
ATOM     10  C   UNL     1     153.434 158.469 187.588  0.00  0.00    +0.003 C 
ATOM     11  C   UNL     1     154.763 158.131 188.279  0.00  0.00    +0.065 C 
ATOM     12  C   UNL     1     154.642 156.724 188.913  0.00  0.00    -0.008 C 
ATOM     13  C   UNL     1     155.687 156.458 189.947  0.00  0.00    -0.083 C 
ATOM     14  C   UNL     1     156.450 157.450 190.421  0.00  0.00    -0.059 C 
ATOM     15  C   UNL     1     156.332 158.879 189.957  0.00  0.00    +0.080 C 
ATOM     16  O   UNL     1     155.069 159.105 189.283  0.00  0.00    -0.369 OA
ATOM     17  C   UNL     1     157.509 159.304 189.063  0.00  0.00    +0.006 C 
ATOM     18  C   UNL     1     158.910 159.259 189.713  0.00  0.00    +0.090 C 
ATOM     19  C   UNL     1     159.113 160.196 190.942  0.00  0.00    +0.100 C 
ATOM     20  C   UNL     1     158.485 161.548 190.765  0.00  0.00    -0.051 C 
ATOM     21  C   UNL     1     159.024 162.643 190.194  0.00  0.00    -0.052 C 
ATOM     22  C   UNL     1     158.197 163.809 189.925  0.00  0.00    -0.052 C 
ATOM     23  C   UNL     1     156.988 163.697 189.360  0.00  0.00    +0.023 C 
ATOM     24  C   UNL     1     156.153 164.863 189.028  0.00  0.00    +0.332 C 
ATOM     25  O   UNL     1     156.522 166.022 188.982  0.00  0.00    -0.246 OA
ATOM     26  O   UNL     1     154.918 164.376 188.767  0.00  0.00    -0.458 OA
ATOM     27  H   UNL     1     154.393 166.004 187.615  0.00  0.00    +0.074 HD
ATOM     28  H   UNL     1     152.447 163.683 188.050  0.00  0.00    +0.036 HD
ATOM     29  H   UNL     1     154.494 162.932 186.911  0.00  0.00    +0.060 HD
ATOM     30  H   UNL     1     152.354 163.199 184.770  0.00  0.00    +0.032 HD
ATOM     31  H   UNL     1     152.013 162.264 186.193  0.00  0.00    +0.032 HD
ATOM     32  H   UNL     1     154.410 161.808 184.351  0.00  0.00    +0.063 HD
ATOM     33  H   UNL     1     155.008 158.276 185.413  0.00  0.00    +0.059 HD
ATOM     34  H   UNL     1     155.194 159.454 184.070  0.00  0.00    +0.059 HD
ATOM     35  H   UNL     1     153.440 160.636 187.834  0.00  0.00    +0.063 HD
ATOM     36  H   UNL     1     152.643 158.275 188.323  0.00  0.00    +0.032 HD
ATOM     37  H   UNL     1     153.244 157.744 186.784  0.00  0.00    +0.032 HD
ATOM     38  H   UNL     1     155.570 158.117 187.543  0.00  0.00    +0.060 HD
ATOM     39  H   UNL     1     153.673 156.606 189.416  0.00  0.00    +0.033 HD
ATOM     40  H   UNL     1     154.693 155.963 188.125  0.00  0.00    +0.033 HD
ATOM     41  H   UNL     1     155.793 155.451 190.341  0.00  0.00    +0.057 HD
ATOM     42  H   UNL     1     157.180 157.245 191.202  0.00  0.00    +0.059 HD
ATOM     43  H   UNL     1     156.286 159.522 190.842  0.00  0.00    +0.064 HD
ATOM     44  H   UNL     1     157.547 158.668 188.169  0.00  0.00    +0.032 HD
ATOM     45  H   UNL     1     157.313 160.302 188.649  0.00  0.00    +0.032 HD
ATOM     46  H   UNL     1     159.099 158.224 190.024  0.00  0.00    +0.063 HD
ATOM     47  H   UNL     1     160.178 160.300 191.163  0.00  0.00    +0.066 HD
ATOM     48  H   UNL     1     157.443 161.588 191.090  0.00  0.00    +0.060 HD
ATOM     49  H   UNL     1     158.616 164.785 190.153  0.00  0.00    +0.062 HD
ATOM     50  H   UNL     1     156.571 162.732 189.093  0.00  0.00    +0.069 HD
ENDROOT
BRANCH  21  51
ATOM     51  C   UNL     1     160.440 162.762 189.704  0.00  0.00    -0.040 C 
ATOM     52  H   UNL     1     161.123 162.245 190.383  0.00  0.00    +0.028 HD
ATOM     53  H   UNL     1     160.782 163.794 189.619  0.00  0.00    +0.028 HD
ATOM     54  H   UNL     1     160.536 162.312 188.712  0.00  0.00    +0.028 HD
ENDBRANCH  21  51
BRANCH   2  55
ATOM     55  C   UNL     1     151.882 165.257 186.696  0.00  0.00    -0.057 C 
ATOM     56  H   UNL     1     151.213 165.743 187.416  0.00  0.00    +0.023 HD
ATOM     57  H   UNL     1     151.282 164.653 186.021  0.00  0.00    +0.023 HD
ATOM     58  H   UNL     1     152.317 166.037 186.066  0.00  0.00    +0.023 HD
ENDBRANCH   2  55
BRANCH   1  59
ATOM     59  C   UNL     1     153.310 166.064 189.503  0.00  0.00    +0.020 C 
ATOM     60  H   UNL     1     154.174 166.489 190.027  0.00  0.00    +0.036 HD
BRANCH  59  61
ATOM     61  C   UNL     1     152.504 167.296 189.070  0.00  0.00    -0.057 C 
ATOM     62  H   UNL     1     152.137 167.849 189.939  0.00  0.00    +0.023 HD
ATOM     63  H   UNL     1     153.064 167.982 188.437  0.00  0.00    +0.023 HD
ATOM     64  H   UNL     1     151.629 166.982 188.492  0.00  0.00    +0.023 HD
ENDBRANCH  59  61
BRANCH  59  65
ATOM     65  C   UNL     1     152.536 165.237 190.572  0.00  0.00    +0.064 C 
ATOM     66  H   UNL     1     151.473 165.238 190.294  0.00  0.00    +0.060 HD
BRANCH  65  67
ATOM     67  C   UNL     1     152.613 165.785 192.025  0.00  0.00    -0.017 C 
ATOM     68  H   UNL     1     152.540 164.957 192.734  0.00  0.00    +0.032 HD
BRANCH  67  69
ATOM     69  C   UNL     1     153.952 166.496 192.267  0.00  0.00    -0.060 C 
ATOM     70  H   UNL     1     154.317 166.302 193.284  0.00  0.00    +0.023 HD
ATOM     71  H   UNL     1     153.847 167.579 192.148  0.00  0.00    +0.023 HD
ATOM     72  H   UNL     1     154.733 166.155 191.585  0.00  0.00    +0.023 HD
ENDBRANCH  67  69
BRANCH  67  73
ATOM     73  C   UNL     1     151.469 166.772 192.373  0.00  0.00    -0.046 C 
ATOM     74  H   UNL     1     151.497 166.984 193.449  0.00  0.00    +0.027 HD
ATOM     75  H   UNL     1     151.634 167.731 191.867  0.00  0.00    +0.027 HD
BRANCH  73  76
ATOM     76  C   UNL     1     150.077 166.219 192.044  0.00  0.00    -0.026 C 
ATOM     77  H   UNL     1     149.526 166.907 191.394  0.00  0.00    +0.029 HD
ATOM     78  H   UNL     1     150.173 165.286 191.473  0.00  0.00    +0.029 HD
BRANCH  76  83
ATOM     79  C   UNL     1     147.413 166.811 194.543  0.00  0.00    +0.059 C 
ATOM     80  C   UNL     1     147.836 165.775 195.590  0.00  0.00    -0.000 C 
ATOM     81  C   UNL     1     149.340 165.861 195.832  0.00  0.00    +0.063 C 
ATOM     82  C   UNL     1     150.103 165.604 194.524  0.00  0.00    -0.000 C 
ATOM     83  C   UNL     1     149.247 165.916 193.295  0.00  0.00    +0.061 C 
ATOM     84  O   UNL     1     148.435 167.064 193.569  0.00  0.00    -0.373 OA
ATOM     85  H   UNL     1     147.247 167.767 195.052  0.00  0.00    +0.059 HD
ATOM     86  H   UNL     1     147.281 165.920 196.524  0.00  0.00    +0.032 HD
ATOM     87  H   UNL     1     147.587 164.756 195.262  0.00  0.00    +0.032 HD
ATOM     88  H   UNL     1     149.574 166.866 196.208  0.00  0.00    +0.060 HD
ATOM     89  H   UNL     1     151.002 166.239 194.531  0.00  0.00    +0.032 HD
ATOM     90  H   UNL     1     150.468 164.569 194.468  0.00  0.00    +0.032 HD
ATOM     91  H   UNL     1     148.589 165.065 193.067  0.00  0.00    +0.060 HD
BRANCH  79  92
ATOM     92  C   UNL     1     146.121 166.422 193.839  0.00  0.00    -0.039 C 
ATOM     93  H   UNL     1     146.316 165.744 193.002  0.00  0.00    +0.025 HD
ATOM     94  H   UNL     1     145.445 165.928 194.544  0.00  0.00    +0.025 HD
ATOM     95  H   UNL     1     145.592 167.303 193.462  0.00  0.00    +0.025 HD
ENDBRANCH  79  92
BRANCH  81  96
ATOM     96  O   UNL     1     149.687 164.893 196.829  0.00  0.00    -0.380 OA
BRANCH  96  97
ATOM     97  C   UNL     1     150.821 164.111 196.473  0.00  0.00    +0.037 C 
ATOM     98  H   UNL     1     151.711 164.604 196.872  0.00  0.00    +0.052 HD
ATOM     99  H   UNL     1     150.918 164.045 195.385  0.00  0.00    +0.052 HD
ATOM    100  H   UNL     1     150.758 163.109 196.909  0.00  0.00    +0.052 HD
ENDBRANCH  96  97
ENDBRANCH  81  96
ENDBRANCH  76  83
ENDBRANCH  73  76
ENDBRANCH  67  73
ENDBRANCH  65  67
BRANCH  65 101
ATOM    101  O   UNL     1     152.945 163.877 190.542  0.00  0.00    -0.391 OA
ATOM    102  H   UNL     1     152.358 163.374 191.131  0.00  0.00    +0.210 HD
ENDBRANCH  65 101
ENDBRANCH  59  65
ENDBRANCH   1  59
BRANCH  19 103
ATOM    103  O   UNL     1     158.507 159.602 192.093  0.00  0.00    -0.385 OA
ATOM    104  H   UNL     1     159.227 159.319 192.683  0.00  0.00    +0.210 HD
ENDBRANCH  19 103
BRANCH  18 105
ATOM    105  O   UNL     1     159.847 159.605 188.674  0.00  0.00    -0.377 OA
BRANCH 105 106
ATOM    106  C   UNL     1     159.221 159.931 187.438  0.00  0.00    +0.037 C 
ATOM    107  H   UNL     1     158.201 160.287 187.616  0.00  0.00    +0.052 HD
ATOM    108  H   UNL     1     159.205 159.071 186.763  0.00  0.00    +0.052 HD
ATOM    109  H   UNL     1     159.791 160.734 186.964  0.00  0.00    +0.052 HD
ENDBRANCH 105 106
ENDBRANCH  18 105
BRANCH   9 110
ATOM    110  O   UNL     1     151.814 159.972 186.719  0.00  0.00    -0.377 OA
BRANCH 110 111
ATOM    111  C   UNL     1     150.958 160.079 187.851  0.00  0.00    +0.037 C 
ATOM    112  H   UNL     1     151.548 160.459 188.692  0.00  0.00    +0.052 HD
ATOM    113  H   UNL     1     150.563 159.098 188.130  0.00  0.00    +0.052 HD
ATOM    114  H   UNL     1     150.142 160.779 187.666  0.00  0.00    +0.052 HD
ENDBRANCH 110 111
ENDBRANCH   9 110
BRANCH   5 115
ATOM    115  O   UNL     1     152.651 160.831 183.917  0.00  0.00    -0.377 OA
BRANCH 115 116
ATOM    116  C   UNL     1     151.549 161.661 183.582  0.00  0.00    +0.037 C 
ATOM    117  H   UNL     1     151.405 162.376 184.393  0.00  0.00    +0.052 HD
ATOM    118  H   UNL     1     151.735 162.213 182.660  0.00  0.00    +0.052 HD
ATOM    119  H   UNL     1     150.637 161.063 183.484  0.00  0.00    +0.052 HD
ENDBRANCH 115 116
ENDBRANCH   5 115
BRANCH   3 120
ATOM    120  O   UNL     1     154.409 164.430 185.436  0.00  0.00    -0.379 OA
BRANCH 120 121
ATOM    121  C   UNL     1     155.809 164.219 185.330  0.00  0.00    +0.037 C 
ATOM    122  H   UNL     1     156.287 165.188 185.144  0.00  0.00    +0.052 HD
ATOM    123  H   UNL     1     156.046 163.552 184.495  0.00  0.00    +0.052 HD
ATOM    124  H   UNL     1     156.212 163.811 186.263  0.00  0.00    +0.052 HD
ENDBRANCH 120 121
ENDBRANCH   3 120
TORSDOF 23
ENDMDL
MODEL 6
REMARK VINA RESULT:      -6.0      4.650     10.173
REMARK  Name = Lobophorolide_conf1
REMARK  23 active torsions:
REMARK  status: ('A' for Active; 'I' for Inactive)
REMARK    1  A    between atoms: C_1  and  C_2
REMARK    2  A    between atoms: C_4  and  O_53
REMARK    3  A    between atoms: C_6  and  C_8
REMARK    4  A    between atoms: C_8  and  C_9
REMARK    5  A    between atoms: C_9  and  C_10
REMARK    6  A    between atoms: C_10  and  C_11
REMARK    7  A    between atoms: C_10  and  C_12
REMARK    8  A    between atoms: C_12  and  C_13
REMARK    9  A    between atoms: C_12  and  O_52
REMARK   10  A    between atoms: C_13  and  C_14
REMARK   11  A    between atoms: C_13  and  C_15
REMARK   12  A    between atoms: C_16  and  C_51
REMARK   13  A    between atoms: C_17  and  O_49
REMARK   14  A    between atoms: C_19  and  O_47
REMARK   15  A    between atoms: C_23  and  O_45
REMARK   16  A    between atoms: C_32  and  O_43
REMARK   17  A    between atoms: C_33  and  O_42
REMARK   18  A    between atoms: C_35  and  C_41
REMARK   19  A    between atoms: O_43  and  C_44
REMARK   20  A    between atoms: O_45  and  C_46
REMARK   21  A    between atoms: O_47  and  C_48
REMARK   22  A    between atoms: O_49  and  C_50
REMARK   23  A    between atoms: O_53  and  C_54
REMARK                            x       y       z     vdW  Elec       q    Type
REMARK                         _______ _______ _______ _____ _____    ______ ____
ROOT
ATOM      1  C   UNL     1     155.190 164.944 187.329  0.00  0.00    +0.113 C 
ATOM      2  C   UNL     1     154.274 164.471 186.155  0.00  0.00    +0.020 C 
ATOM      3  C   UNL     1     153.102 163.556 186.679  0.00  0.00    +0.067 C 
ATOM      4  C   UNL     1     152.143 163.165 185.536  0.00  0.00    +0.003 C 
ATOM      5  C   UNL     1     150.756 162.692 185.991  0.00  0.00    +0.094 C 
ATOM      6  C   UNL     1     149.799 163.758 186.539  0.00  0.00    +0.145 C 
ATOM      7  C   UNL     1     148.583 163.183 187.257  0.00  0.00    +0.083 C 
ATOM      8  O   UNL     1     149.686 163.739 187.980  0.00  0.00    -0.363 OA
ATOM      9  C   UNL     1     149.801 165.179 185.959  0.00  0.00    +0.094 C 
ATOM     10  C   UNL     1     148.509 165.999 186.149  0.00  0.00    +0.003 C 
ATOM     11  C   UNL     1     148.163 166.522 187.551  0.00  0.00    +0.065 C 
ATOM     12  C   UNL     1     146.959 167.487 187.430  0.00  0.00    -0.008 C 
ATOM     13  C   UNL     1     146.795 168.368 188.627  0.00  0.00    -0.083 C 
ATOM     14  C   UNL     1     147.760 168.456 189.550  0.00  0.00    -0.059 C 
ATOM     15  C   UNL     1     149.054 167.688 189.469  0.00  0.00    +0.080 C 
ATOM     16  O   UNL     1     149.287 167.197 188.126  0.00  0.00    -0.369 OA
ATOM     17  C   UNL     1     149.117 166.537 190.487  0.00  0.00    +0.006 C 
ATOM     18  C   UNL     1     149.035 166.938 191.977  0.00  0.00    +0.090 C 
ATOM     19  C   UNL     1     150.186 167.854 192.491  0.00  0.00    +0.100 C 
ATOM     20  C   UNL     1     151.536 167.463 191.961  0.00  0.00    -0.051 C 
ATOM     21  C   UNL     1     152.398 166.565 192.475  0.00  0.00    -0.052 C 
ATOM     22  C   UNL     1     153.572 166.163 191.717  0.00  0.00    -0.052 C 
ATOM     23  C   UNL     1     153.496 165.850 190.417  0.00  0.00    +0.023 C 
ATOM     24  C   UNL     1     154.658 165.390 189.639  0.00  0.00    +0.332 C 
ATOM     25  O   UNL     1     155.720 165.006 190.092  0.00  0.00    -0.246 OA
ATOM     26  O   UNL     1     154.288 165.461 188.339  0.00  0.00    -0.458 OA
ATOM     27  H   UNL     1     155.676 164.053 187.747  0.00  0.00    +0.074 HD
ATOM     28  H   UNL     1     153.779 165.349 185.726  0.00  0.00    +0.036 HD
ATOM     29  H   UNL     1     152.537 164.103 187.445  0.00  0.00    +0.060 HD
ATOM     30  H   UNL     1     152.599 162.344 184.968  0.00  0.00    +0.032 HD
ATOM     31  H   UNL     1     152.053 163.986 184.824  0.00  0.00    +0.032 HD
ATOM     32  H   UNL     1     150.896 161.938 186.777  0.00  0.00    +0.063 HD
ATOM     33  H   UNL     1     147.639 163.706 187.256  0.00  0.00    +0.059 HD
ATOM     34  H   UNL     1     148.457 162.107 187.285  0.00  0.00    +0.059 HD
ATOM     35  H   UNL     1     150.658 165.712 186.391  0.00  0.00    +0.063 HD
ATOM     36  H   UNL     1     148.586 166.879 185.498  0.00  0.00    +0.032 HD
ATOM     37  H   UNL     1     147.656 165.436 185.747  0.00  0.00    +0.032 HD
ATOM     38  H   UNL     1     147.883 165.689 188.198  0.00  0.00    +0.060 HD
ATOM     39  H   UNL     1     147.081 168.156 186.569  0.00  0.00    +0.033 HD
ATOM     40  H   UNL     1     146.043 166.907 187.264  0.00  0.00    +0.033 HD
ATOM     41  H   UNL     1     145.896 168.969 188.718  0.00  0.00    +0.057 HD
ATOM     42  H   UNL     1     147.641 169.132 190.394  0.00  0.00    +0.059 HD
ATOM     43  H   UNL     1     149.878 168.387 189.649  0.00  0.00    +0.064 HD
ATOM     44  H   UNL     1     148.299 165.828 190.298  0.00  0.00    +0.032 HD
ATOM     45  H   UNL     1     150.015 165.933 190.303  0.00  0.00    +0.032 HD
ATOM     46  H   UNL     1     148.079 167.453 192.131  0.00  0.00    +0.063 HD
ATOM     47  H   UNL     1     150.199 167.865 193.584  0.00  0.00    +0.066 HD
ATOM     48  H   UNL     1     151.780 167.936 191.007  0.00  0.00    +0.060 HD
ATOM     49  H   UNL     1     154.513 166.077 192.254  0.00  0.00    +0.062 HD
ATOM     50  H   UNL     1     152.558 165.895 189.874  0.00  0.00    +0.069 HD
ENDROOT
BRANCH  21  51
ATOM     51  C   UNL     1     152.222 165.834 193.777  0.00  0.00    -0.040 C 
ATOM     52  H   UNL     1     153.024 166.096 194.472  0.00  0.00    +0.028 HD
ATOM     53  H   UNL     1     152.227 164.748 193.666  0.00  0.00    +0.028 HD
ATOM     54  H   UNL     1     151.267 166.103 194.236  0.00  0.00    +0.028 HD
ENDBRANCH  21  51
BRANCH   2  55
ATOM     55  C   UNL     1     155.075 163.768 185.052  0.00  0.00    -0.057 C 
ATOM     56  H   UNL     1     155.355 162.750 185.345  0.00  0.00    +0.023 HD
ATOM     57  H   UNL     1     155.980 164.319 184.811  0.00  0.00    +0.023 HD
ATOM     58  H   UNL     1     154.524 163.706 184.111  0.00  0.00    +0.023 HD
ENDBRANCH   2  55
BRANCH   1  59
ATOM     59  C   UNL     1     156.291 166.024 187.054  0.00  0.00    +0.020 C 
ATOM     60  H   UNL     1     156.311 166.659 187.946  0.00  0.00    +0.036 HD
BRANCH  59  61
ATOM     61  C   UNL     1     157.699 165.416 187.007  0.00  0.00    -0.057 C 
ATOM     62  H   UNL     1     158.429 166.082 187.474  0.00  0.00    +0.023 HD
ATOM     63  H   UNL     1     157.768 164.440 187.484  0.00  0.00    +0.023 HD
ATOM     64  H   UNL     1     158.007 165.276 185.965  0.00  0.00    +0.023 HD
ENDBRANCH  59  61
BRANCH  59  65
ATOM     65  C   UNL     1     156.059 166.991 185.856  0.00  0.00    +0.064 C 
ATOM     66  H   UNL     1     155.391 166.490 185.142  0.00  0.00    +0.060 HD
BRANCH  65  67
ATOM     67  C   UNL     1     157.334 167.390 185.061  0.00  0.00    -0.017 C 
ATOM     68  H   UNL     1     158.219 166.992 185.562  0.00  0.00    +0.032 HD
BRANCH  67  69
ATOM     69  C   UNL     1     157.294 166.804 183.642  0.00  0.00    -0.060 C 
ATOM     70  H   UNL     1     156.356 167.071 183.138  0.00  0.00    +0.023 HD
ATOM     71  H   UNL     1     157.364 165.712 183.667  0.00  0.00    +0.023 HD
ATOM     72  H   UNL     1     158.103 167.181 183.014  0.00  0.00    +0.023 HD
ENDBRANCH  67  69
BRANCH  67  73
ATOM     73  C   UNL     1     157.537 168.923 184.949  0.00  0.00    -0.046 C 
ATOM     74  H   UNL     1     157.077 169.276 184.017  0.00  0.00    +0.027 HD
ATOM     75  H   UNL     1     157.008 169.431 185.764  0.00  0.00    +0.027 HD
BRANCH  73  76
ATOM     76  C   UNL     1     159.013 169.333 184.923  0.00  0.00    -0.026 C 
ATOM     77  H   UNL     1     159.387 169.513 185.937  0.00  0.00    +0.029 HD
ATOM     78  H   UNL     1     159.621 168.509 184.526  0.00  0.00    +0.029 HD
BRANCH  76  83
ATOM     79  C   UNL     1     160.981 172.183 183.622  0.00  0.00    +0.059 C 
ATOM     80  C   UNL     1     159.869 172.910 182.858  0.00  0.00    -0.000 C 
ATOM     81  C   UNL     1     158.613 172.995 183.720  0.00  0.00    +0.063 C 
ATOM     82  C   UNL     1     158.134 171.586 184.099  0.00  0.00    -0.000 C 
ATOM     83  C   UNL     1     159.273 170.565 184.052  0.00  0.00    +0.061 C 
ATOM     84  O   UNL     1     160.477 171.185 184.519  0.00  0.00    -0.373 OA
ATOM     85  H   UNL     1     161.500 172.914 184.254  0.00  0.00    +0.059 HD
ATOM     86  H   UNL     1     160.200 173.909 182.550  0.00  0.00    +0.032 HD
ATOM     87  H   UNL     1     159.624 172.386 181.923  0.00  0.00    +0.032 HD
ATOM     88  H   UNL     1     158.854 173.564 184.628  0.00  0.00    +0.060 HD
ATOM     89  H   UNL     1     157.713 171.638 185.116  0.00  0.00    +0.032 HD
ATOM     90  H   UNL     1     157.311 171.253 183.452  0.00  0.00    +0.032 HD
ATOM     91  H   UNL     1     159.431 170.224 183.019  0.00  0.00    +0.060 HD
BRANCH  79  92
ATOM     92  C   UNL     1     162.007 171.558 182.687  0.00  0.00    -0.039 C 
ATOM     93  H   UNL     1     162.498 172.319 182.074  0.00  0.00    +0.025 HD
ATOM     94  H   UNL     1     162.767 171.025 183.268  0.00  0.00    +0.025 HD
ATOM     95  H   UNL     1     161.544 170.818 182.025  0.00  0.00    +0.025 HD
ENDBRANCH  79  92
BRANCH  81  96
ATOM     96  O   UNL     1     157.610 173.698 182.977  0.00  0.00    -0.380 OA
BRANCH  96  97
ATOM     97  C   UNL     1     156.499 174.086 183.776  0.00  0.00    +0.037 C 
ATOM     98  H   UNL     1     155.889 173.198 183.962  0.00  0.00    +0.052 HD
ATOM     99  H   UNL     1     155.886 174.824 183.251  0.00  0.00    +0.052 HD
ATOM    100  H   UNL     1     156.829 174.484 184.740  0.00  0.00    +0.052 HD
ENDBRANCH  96  97
ENDBRANCH  81  96
ENDBRANCH  76  83
ENDBRANCH  73  76
ENDBRANCH  67  73
ENDBRANCH  65  67
BRANCH  65 101
ATOM    101  O   UNL     1     155.367 168.157 186.283  0.00  0.00    -0.391 OA
ATOM    102  H   UNL     1     154.750 167.897 186.987  0.00  0.00    +0.210 HD
ENDBRANCH  65 101
ENDBRANCH  59  65
ENDBRANCH   1  59
BRANCH  19 103
ATOM    103  O   UNL     1     149.945 169.199 192.067  0.00  0.00    -0.385 OA
ATOM    104  H   UNL     1     150.809 169.593 191.859  0.00  0.00    +0.210 HD
ENDBRANCH  19 103
BRANCH  18 105
ATOM    105  O   UNL     1     149.019 165.706 192.725  0.00  0.00    -0.377 OA
BRANCH 105 106
ATOM    106  C   UNL     1     148.511 165.858 194.046  0.00  0.00    +0.037 C 
ATOM    107  H   UNL     1     147.758 165.090 194.250  0.00  0.00    +0.052 HD
ATOM    108  H   UNL     1     148.082 166.853 194.193  0.00  0.00    +0.052 HD
ATOM    109  H   UNL     1     149.338 165.729 194.750  0.00  0.00    +0.052 HD
ENDBRANCH 105 106
ENDBRANCH  18 105
BRANCH   9 110
ATOM    110  O   UNL     1     149.979 165.073 184.530  0.00  0.00    -0.377 OA
BRANCH 110 111
ATOM    111  C   UNL     1     148.785 165.284 183.785  0.00  0.00    +0.037 C 
ATOM    112  H   UNL     1     147.990 164.677 184.231  0.00  0.00    +0.052 HD
ATOM    113  H   UNL     1     148.916 164.962 182.748  0.00  0.00    +0.052 HD
ATOM    114  H   UNL     1     148.474 166.330 183.823  0.00  0.00    +0.052 HD
ENDBRANCH 110 111
ENDBRANCH   9 110
BRANCH   5 115
ATOM    115  O   UNL     1     150.083 162.049 184.890  0.00  0.00    -0.377 OA
BRANCH 115 116
ATOM    116  C   UNL     1     150.948 161.738 183.807  0.00  0.00    +0.037 C 
ATOM    117  H   UNL     1     151.428 160.782 184.021  0.00  0.00    +0.052 HD
ATOM    118  H   UNL     1     150.395 161.648 182.871  0.00  0.00    +0.052 HD
ATOM    119  H   UNL     1     151.727 162.502 183.711  0.00  0.00    +0.052 HD
ENDBRANCH 115 116
ENDBRANCH   5 115
BRANCH   3 120
ATOM    120  O   UNL     1     153.671 162.346 187.211  0.00  0.00    -0.379 OA
BRANCH 120 121
ATOM    121  C   UNL     1     153.263 162.064 188.542  0.00  0.00    +0.037 C 
ATOM    122  H   UNL     1     154.067 161.505 189.034  0.00  0.00    +0.052 HD
ATOM    123  H   UNL     1     152.357 161.449 188.556  0.00  0.00    +0.052 HD
ATOM    124  H   UNL     1     153.097 162.991 189.102  0.00  0.00    +0.052 HD
ENDBRANCH 120 121
ENDBRANCH   3 120
TORSDOF 23
ENDMDL
MODEL 7
REMARK VINA RESULT:      -5.9      2.050      3.354
REMARK  Name = Lobophorolide_conf1
REMARK  23 active torsions:
REMARK  status: ('A' for Active; 'I' for Inactive)
REMARK    1  A    between atoms: C_1  and  C_2
REMARK    2  A    between atoms: C_4  and  O_53
REMARK    3  A    between atoms: C_6  and  C_8
REMARK    4  A    between atoms: C_8  and  C_9
REMARK    5  A    between atoms: C_9  and  C_10
REMARK    6  A    between atoms: C_10  and  C_11
REMARK    7  A    between atoms: C_10  and  C_12
REMARK    8  A    between atoms: C_12  and  C_13
REMARK    9  A    between atoms: C_12  and  O_52
REMARK   10  A    between atoms: C_13  and  C_14
REMARK   11  A    between atoms: C_13  and  C_15
REMARK   12  A    between atoms: C_16  and  C_51
REMARK   13  A    between atoms: C_17  and  O_49
REMARK   14  A    between atoms: C_19  and  O_47
REMARK   15  A    between atoms: C_23  and  O_45
REMARK   16  A    between atoms: C_32  and  O_43
REMARK   17  A    between atoms: C_33  and  O_42
REMARK   18  A    between atoms: C_35  and  C_41
REMARK   19  A    between atoms: O_43  and  C_44
REMARK   20  A    between atoms: O_45  and  C_46
REMARK   21  A    between atoms: O_47  and  C_48
REMARK   22  A    between atoms: O_49  and  C_50
REMARK   23  A    between atoms: O_53  and  C_54
REMARK                            x       y       z     vdW  Elec       q    Type
REMARK                         _______ _______ _______ _____ _____    ______ ____
ROOT
ATOM      1  C   UNL     1     152.568 165.345 189.193  0.00  0.00    +0.113 C 
ATOM      2  C   UNL     1     151.465 164.480 188.504  0.00  0.00    +0.020 C 
ATOM      3  C   UNL     1     152.013 163.794 187.194  0.00  0.00    +0.067 C 
ATOM      4  C   UNL     1     150.955 162.866 186.564  0.00  0.00    +0.003 C 
ATOM      5  C   UNL     1     151.513 161.816 185.593  0.00  0.00    +0.094 C 
ATOM      6  C   UNL     1     152.295 160.646 186.203  0.00  0.00    +0.145 C 
ATOM      7  C   UNL     1     153.080 159.831 185.182  0.00  0.00    +0.083 C 
ATOM      8  O   UNL     1     153.726 160.770 186.047  0.00  0.00    -0.363 OA
ATOM      9  C   UNL     1     151.892 160.066 187.566  0.00  0.00    +0.094 C 
ATOM     10  C   UNL     1     152.331 158.615 187.851  0.00  0.00    +0.003 C 
ATOM     11  C   UNL     1     153.816 158.330 188.118  0.00  0.00    +0.065 C 
ATOM     12  C   UNL     1     153.956 156.863 188.590  0.00  0.00    -0.008 C 
ATOM     13  C   UNL     1     155.259 156.591 189.269  0.00  0.00    -0.083 C 
ATOM     14  C   UNL     1     156.064 157.595 189.636  0.00  0.00    -0.059 C 
ATOM     15  C   UNL     1     155.739 159.047 189.392  0.00  0.00    +0.080 C 
ATOM     16  O   UNL     1     154.328 159.225 189.111  0.00  0.00    -0.369 OA
ATOM     17  C   UNL     1     156.598 159.660 188.273  0.00  0.00    +0.006 C 
ATOM     18  C   UNL     1     158.123 159.676 188.515  0.00  0.00    +0.090 C 
ATOM     19  C   UNL     1     158.602 160.502 189.747  0.00  0.00    +0.100 C 
ATOM     20  C   UNL     1     157.871 161.804 189.905  0.00  0.00    -0.051 C 
ATOM     21  C   UNL     1     158.168 162.993 189.345  0.00  0.00    -0.052 C 
ATOM     22  C   UNL     1     157.232 164.102 189.445  0.00  0.00    -0.052 C 
ATOM     23  C   UNL     1     155.923 163.939 189.215  0.00  0.00    +0.023 C 
ATOM     24  C   UNL     1     154.962 165.054 189.258  0.00  0.00    +0.332 C 
ATOM     25  O   UNL     1     155.236 166.240 189.252  0.00  0.00    -0.246 OA
ATOM     26  O   UNL     1     153.733 164.487 189.280  0.00  0.00    -0.458 OA
ATOM     27  H   UNL     1     152.817 166.168 188.511  0.00  0.00    +0.074 HD
ATOM     28  H   UNL     1     151.205 163.652 189.172  0.00  0.00    +0.036 HD
ATOM     29  H   UNL     1     152.901 163.199 187.447  0.00  0.00    +0.060 HD
ATOM     30  H   UNL     1     150.243 163.484 186.002  0.00  0.00    +0.032 HD
ATOM     31  H   UNL     1     150.362 162.388 187.344  0.00  0.00    +0.032 HD
ATOM     32  H   UNL     1     152.182 162.328 184.889  0.00  0.00    +0.063 HD
ATOM     33  H   UNL     1     153.254 158.776 185.328  0.00  0.00    +0.059 HD
ATOM     34  H   UNL     1     152.995 160.091 184.133  0.00  0.00    +0.059 HD
ATOM     35  H   UNL     1     152.278 160.740 188.341  0.00  0.00    +0.063 HD
ATOM     36  H   UNL     1     151.785 158.282 188.743  0.00  0.00    +0.032 HD
ATOM     37  H   UNL     1     151.969 157.959 187.048  0.00  0.00    +0.032 HD
ATOM     38  H   UNL     1     154.389 158.460 187.197  0.00  0.00    +0.060 HD
ATOM     39  H   UNL     1     153.172 156.611 189.315  0.00  0.00    +0.033 HD
ATOM     40  H   UNL     1     153.833 156.191 187.733  0.00  0.00    +0.033 HD
ATOM     41  H   UNL     1     155.528 155.564 189.499  0.00  0.00    +0.057 HD
ATOM     42  H   UNL     1     156.990 157.381 190.163  0.00  0.00    +0.059 HD
ATOM     43  H   UNL     1     155.900 159.594 190.326  0.00  0.00    +0.064 HD
ATOM     44  H   UNL     1     156.425 159.120 187.333  0.00  0.00    +0.032 HD
ATOM     45  H   UNL     1     156.237 160.672 188.047  0.00  0.00    +0.032 HD
ATOM     46  H   UNL     1     158.451 158.636 188.640  0.00  0.00    +0.063 HD
ATOM     47  H   UNL     1     159.678 160.678 189.687  0.00  0.00    +0.066 HD
ATOM     48  H   UNL     1     156.958 161.720 190.499  0.00  0.00    +0.060 HD
ATOM     49  H   UNL     1     157.639 165.085 189.667  0.00  0.00    +0.062 HD
ATOM     50  H   UNL     1     155.506 162.972 188.957  0.00  0.00    +0.069 HD
ENDROOT
BRANCH  21  51
ATOM     51  C   UNL     1     159.385 163.284 188.512  0.00  0.00    -0.040 C 
ATOM     52  H   UNL     1     159.176 164.086 187.799  0.00  0.00    +0.028 HD
ATOM     53  H   UNL     1     159.734 162.422 187.941  0.00  0.00    +0.028 HD
ATOM     54  H   UNL     1     160.214 163.600 189.151  0.00  0.00    +0.028 HD
ENDBRANCH  21  51
BRANCH   2  55
ATOM     55  C   UNL     1     150.199 165.295 188.213  0.00  0.00    -0.057 C 
ATOM     56  H   UNL     1     149.296 164.758 188.524  0.00  0.00    +0.023 HD
ATOM     57  H   UNL     1     150.114 165.528 187.156  0.00  0.00    +0.023 HD
ATOM     58  H   UNL     1     150.201 166.264 188.717  0.00  0.00    +0.023 HD
ENDBRANCH   2  55
BRANCH   1  59
ATOM     59  C   UNL     1     152.294 165.947 190.613  0.00  0.00    +0.020 C 
ATOM     60  H   UNL     1     151.259 165.677 190.853  0.00  0.00    +0.036 HD
BRANCH  59  61
ATOM     61  C   UNL     1     153.116 165.251 191.705  0.00  0.00    -0.057 C 
ATOM     62  H   UNL     1     152.708 165.461 192.697  0.00  0.00    +0.023 HD
ATOM     63  H   UNL     1     153.180 164.172 191.581  0.00  0.00    +0.023 HD
ATOM     64  H   UNL     1     154.144 165.628 191.691  0.00  0.00    +0.023 HD
ENDBRANCH  59  61
BRANCH  59  65
ATOM     65  C   UNL     1     152.367 167.495 190.758  0.00  0.00    +0.064 C 
ATOM     66  H   UNL     1     153.358 167.749 191.159  0.00  0.00    +0.060 HD
BRANCH  65  67
ATOM     67  C   UNL     1     151.326 168.127 191.723  0.00  0.00    -0.017 C 
ATOM     68  H   UNL     1     151.294 167.557 192.655  0.00  0.00    +0.032 HD
BRANCH  67  69
ATOM     69  C   UNL     1     151.711 169.572 192.069  0.00  0.00    -0.060 C 
ATOM     70  H   UNL     1     152.181 170.066 191.208  0.00  0.00    +0.023 HD
ATOM     71  H   UNL     1     152.423 169.599 192.901  0.00  0.00    +0.023 HD
ATOM     72  H   UNL     1     150.847 170.180 192.343  0.00  0.00    +0.023 HD
ENDBRANCH  67  69
BRANCH  67  73
ATOM     73  C   UNL     1     149.882 168.131 191.156  0.00  0.00    -0.046 C 
ATOM     74  H   UNL     1     149.881 168.653 190.190  0.00  0.00    +0.027 HD
ATOM     75  H   UNL     1     149.557 167.104 190.951  0.00  0.00    +0.027 HD
BRANCH  73  76
ATOM     76  C   UNL     1     148.880 168.843 192.070  0.00  0.00    -0.026 C 
ATOM     77  H   UNL     1     147.994 168.221 192.240  0.00  0.00    +0.029 HD
ATOM     78  H   UNL     1     149.326 169.000 193.061  0.00  0.00    +0.029 HD
BRANCH  76  83
ATOM     79  C   UNL     1     147.775 172.366 192.320  0.00  0.00    +0.059 C 
ATOM     80  C   UNL     1     147.394 172.599 190.854  0.00  0.00    -0.000 C 
ATOM     81  C   UNL     1     146.569 171.426 190.336  0.00  0.00    +0.063 C 
ATOM     82  C   UNL     1     147.370 170.121 190.452  0.00  0.00    -0.000 C 
ATOM     83  C   UNL     1     148.451 170.211 191.532  0.00  0.00    +0.061 C 
ATOM     84  O   UNL     1     147.950 170.978 192.633  0.00  0.00    -0.373 OA
ATOM     85  H   UNL     1     146.946 172.709 192.950  0.00  0.00    +0.059 HD
ATOM     86  H   UNL     1     146.847 173.543 190.742  0.00  0.00    +0.032 HD
ATOM     87  H   UNL     1     148.290 172.709 190.225  0.00  0.00    +0.032 HD
ATOM     88  H   UNL     1     145.652 171.355 190.936  0.00  0.00    +0.060 HD
ATOM     89  H   UNL     1     146.661 169.313 190.693  0.00  0.00    +0.032 HD
ATOM     90  H   UNL     1     147.827 169.843 189.493  0.00  0.00    +0.032 HD
ATOM     91  H   UNL     1     149.343 170.713 191.131  0.00  0.00    +0.060 HD
BRANCH  79  92
ATOM     92  C   UNL     1     149.022 173.141 192.720  0.00  0.00    -0.039 C 
ATOM     93  H   UNL     1     149.114 174.067 192.144  0.00  0.00    +0.025 HD
ATOM     94  H   UNL     1     148.983 173.389 193.786  0.00  0.00    +0.025 HD
ATOM     95  H   UNL     1     149.928 172.543 192.571  0.00  0.00    +0.025 HD
ENDBRANCH  79  92
BRANCH  81  96
ATOM     96  O   UNL     1     146.218 171.695 188.973  0.00  0.00    -0.380 OA
BRANCH  96  97
ATOM     97  C   UNL     1     146.069 170.514 188.195  0.00  0.00    +0.037 C 
ATOM     98  H   UNL     1     147.067 170.139 187.953  0.00  0.00    +0.052 HD
ATOM     99  H   UNL     1     145.544 170.731 187.260  0.00  0.00    +0.052 HD
ATOM    100  H   UNL     1     145.538 169.739 188.756  0.00  0.00    +0.052 HD
ENDBRANCH  96  97
ENDBRANCH  81  96
ENDBRANCH  76  83
ENDBRANCH  73  76
ENDBRANCH  67  73
ENDBRANCH  65  67
BRANCH  65 101
ATOM    101  O   UNL     1     152.292 168.120 189.484  0.00  0.00    -0.391 OA
ATOM    102  H   UNL     1     152.280 169.082 189.622  0.00  0.00    +0.210 HD
ENDBRANCH  65 101
ENDBRANCH  59  65
ENDBRANCH   1  59
BRANCH  19 103
ATOM    103  O   UNL     1     158.372 159.748 190.940  0.00  0.00    -0.385 OA
ATOM    104  H   UNL     1     159.066 159.996 191.575  0.00  0.00    +0.210 HD
ENDBRANCH  19 103
BRANCH  18 105
ATOM    105  O   UNL     1     158.717 160.202 187.312  0.00  0.00    -0.377 OA
BRANCH 105 106
ATOM    106  C   UNL     1     157.757 160.596 186.339  0.00  0.00    +0.037 C 
ATOM    107  H   UNL     1     157.595 161.678 186.387  0.00  0.00    +0.052 HD
ATOM    108  H   UNL     1     156.811 160.069 186.479  0.00  0.00    +0.052 HD
ATOM    109  H   UNL     1     158.149 160.349 185.348  0.00  0.00    +0.052 HD
ENDBRANCH 105 106
ENDBRANCH  18 105
BRANCH   9 110
ATOM    110  O   UNL     1     150.449 160.047 187.629  0.00  0.00    -0.377 OA
BRANCH 110 111
ATOM    111  C   UNL     1     149.933 159.372 188.772  0.00  0.00    +0.037 C 
ATOM    112  H   UNL     1     149.680 160.122 189.528  0.00  0.00    +0.052 HD
ATOM    113  H   UNL     1     150.686 158.702 189.196  0.00  0.00    +0.052 HD
ATOM    114  H   UNL     1     149.025 158.818 188.526  0.00  0.00    +0.052 HD
ENDBRANCH 110 111
ENDBRANCH   9 110
BRANCH   5 115
ATOM    115  O   UNL     1     150.432 161.246 184.828  0.00  0.00    -0.377 OA
BRANCH 115 116
ATOM    116  C   UNL     1     150.290 161.826 183.539  0.00  0.00    +0.037 C 
ATOM    117  H   UNL     1     149.872 161.070 182.873  0.00  0.00    +0.052 HD
ATOM    118  H   UNL     1     149.614 162.682 183.562  0.00  0.00    +0.052 HD
ATOM    119  H   UNL     1     151.266 162.129 183.148  0.00  0.00    +0.052 HD
ENDBRANCH 115 116
ENDBRANCH   5 115
BRANCH   3 120
ATOM    120  O   UNL     1     152.326 164.821 186.237  0.00  0.00    -0.379 OA
BRANCH 120 121
ATOM    121  C   UNL     1     153.650 164.742 185.731  0.00  0.00    +0.037 C 
ATOM    122  H   UNL     1     154.270 164.228 186.475  0.00  0.00    +0.052 HD
ATOM    123  H   UNL     1     154.070 165.740 185.562  0.00  0.00    +0.052 HD
ATOM    124  H   UNL     1     153.677 164.161 184.802  0.00  0.00    +0.052 HD
ENDBRANCH 120 121
ENDBRANCH   3 120
TORSDOF 23
ENDMDL
MODEL 8
REMARK VINA RESULT:      -5.9      4.540     10.089
REMARK  Name = Lobophorolide_conf1
REMARK  23 active torsions:
REMARK  status: ('A' for Active; 'I' for Inactive)
REMARK    1  A    between atoms: C_1  and  C_2
REMARK    2  A    between atoms: C_4  and  O_53
REMARK    3  A    between atoms: C_6  and  C_8
REMARK    4  A    between atoms: C_8  and  C_9
REMARK    5  A    between atoms: C_9  and  C_10
REMARK    6  A    between atoms: C_10  and  C_11
REMARK    7  A    between atoms: C_10  and  C_12
REMARK    8  A    between atoms: C_12  and  C_13
REMARK    9  A    between atoms: C_12  and  O_52
REMARK   10  A    between atoms: C_13  and  C_14
REMARK   11  A    between atoms: C_13  and  C_15
REMARK   12  A    between atoms: C_16  and  C_51
REMARK   13  A    between atoms: C_17  and  O_49
REMARK   14  A    between atoms: C_19  and  O_47
REMARK   15  A    between atoms: C_23  and  O_45
REMARK   16  A    between atoms: C_32  and  O_43
REMARK   17  A    between atoms: C_33  and  O_42
REMARK   18  A    between atoms: C_35  and  C_41
REMARK   19  A    between atoms: O_43  and  C_44
REMARK   20  A    between atoms: O_45  and  C_46
REMARK   21  A    between atoms: O_47  and  C_48
REMARK   22  A    between atoms: O_49  and  C_50
REMARK   23  A    between atoms: O_53  and  C_54
REMARK                            x       y       z     vdW  Elec       q    Type
REMARK                         _______ _______ _______ _____ _____    ______ ____
ROOT
ATOM      1  C   UNL     1     154.485 164.705 187.190  0.00  0.00    +0.113 C 
ATOM      2  C   UNL     1     153.474 164.331 186.061  0.00  0.00    +0.020 C 
ATOM      3  C   UNL     1     152.256 163.509 186.635  0.00  0.00    +0.067 C 
ATOM      4  C   UNL     1     151.210 163.219 185.540  0.00  0.00    +0.003 C 
ATOM      5  C   UNL     1     149.813 162.857 186.060  0.00  0.00    +0.094 C 
ATOM      6  C   UNL     1     148.979 163.992 186.671  0.00  0.00    +0.145 C 
ATOM      7  C   UNL     1     147.758 163.510 187.445  0.00  0.00    +0.083 C 
ATOM      8  O   UNL     1     148.939 163.960 188.115  0.00  0.00    -0.363 OA
ATOM      9  C   UNL     1     149.073 165.416 186.108  0.00  0.00    +0.094 C 
ATOM     10  C   UNL     1     147.866 166.340 186.374  0.00  0.00    +0.003 C 
ATOM     11  C   UNL     1     147.639 166.868 187.799  0.00  0.00    +0.065 C 
ATOM     12  C   UNL     1     146.516 167.933 187.752  0.00  0.00    -0.008 C 
ATOM     13  C   UNL     1     146.490 168.805 188.966  0.00  0.00    -0.083 C 
ATOM     14  C   UNL     1     147.505 168.797 189.838  0.00  0.00    -0.059 C 
ATOM     15  C   UNL     1     148.723 167.923 189.681  0.00  0.00    +0.080 C 
ATOM     16  O   UNL     1     148.844 167.436 188.321  0.00  0.00    -0.369 OA
ATOM     17  C   UNL     1     148.739 166.755 190.681  0.00  0.00    +0.006 C 
ATOM     18  C   UNL     1     148.769 167.138 192.177  0.00  0.00    +0.090 C 
ATOM     19  C   UNL     1     150.018 167.945 192.641  0.00  0.00    +0.100 C 
ATOM     20  C   UNL     1     151.300 167.451 192.037  0.00  0.00    -0.051 C 
ATOM     21  C   UNL     1     152.108 166.474 192.494  0.00  0.00    -0.052 C 
ATOM     22  C   UNL     1     153.204 165.987 191.671  0.00  0.00    -0.052 C 
ATOM     23  C   UNL     1     153.034 165.702 190.374  0.00  0.00    +0.023 C 
ATOM     24  C   UNL     1     154.111 165.158 189.530  0.00  0.00    +0.332 C 
ATOM     25  O   UNL     1     155.159 164.679 189.923  0.00  0.00    -0.246 OA
ATOM     26  O   UNL     1     153.684 165.281 188.252  0.00  0.00    -0.458 OA
ATOM     27  H   UNL     1     154.914 163.771 187.573  0.00  0.00    +0.074 HD
ATOM     28  H   UNL     1     153.034 165.254 185.668  0.00  0.00    +0.036 HD
ATOM     29  H   UNL     1     151.779 164.090 187.436  0.00  0.00    +0.060 HD
ATOM     30  H   UNL     1     151.565 162.371 184.939  0.00  0.00    +0.032 HD
ATOM     31  H   UNL     1     151.154 164.056 184.843  0.00  0.00    +0.032 HD
ATOM     32  H   UNL     1     149.928 162.082 186.830  0.00  0.00    +0.063 HD
ATOM     33  H   UNL     1     146.862 164.111 187.499  0.00  0.00    +0.059 HD
ATOM     34  H   UNL     1     147.541 162.448 187.467  0.00  0.00    +0.059 HD
ATOM     35  H   UNL     1     149.993 165.869 186.500  0.00  0.00    +0.063 HD
ATOM     36  H   UNL     1     147.985 167.221 185.731  0.00  0.00    +0.032 HD
ATOM     37  H   UNL     1     146.949 165.857 186.011  0.00  0.00    +0.032 HD
ATOM     38  H   UNL     1     147.322 166.051 188.450  0.00  0.00    +0.060 HD
ATOM     39  H   UNL     1     146.651 168.602 186.894  0.00  0.00    +0.033 HD
ATOM     40  H   UNL     1     145.547 167.435 187.627  0.00  0.00    +0.033 HD
ATOM     41  H   UNL     1     145.650 169.479 189.110  0.00  0.00    +0.057 HD
ATOM     42  H   UNL     1     147.486 169.466 190.695  0.00  0.00    +0.059 HD
ATOM     43  H   UNL     1     149.611 168.548 189.825  0.00  0.00    +0.064 HD
ATOM     44  H   UNL     1     147.855 166.121 190.527  0.00  0.00    +0.032 HD
ATOM     45  H   UNL     1     149.572 166.080 190.443  0.00  0.00    +0.032 HD
ATOM     46  H   UNL     1     147.869 167.729 192.387  0.00  0.00    +0.063 HD
ATOM     47  H   UNL     1     150.087 167.938 193.731  0.00  0.00    +0.066 HD
ATOM     48  H   UNL     1     151.535 167.916 191.077  0.00  0.00    +0.060 HD
ATOM     49  H   UNL     1     154.160 165.813 192.157  0.00  0.00    +0.062 HD
ATOM     50  H   UNL     1     152.077 165.835 189.881  0.00  0.00    +0.069 HD
ENDROOT
BRANCH  21  51
ATOM     51  C   UNL     1     151.937 165.740 193.795  0.00  0.00    -0.040 C 
ATOM     52  H   UNL     1     152.177 166.395 194.637  0.00  0.00    +0.028 HD
ATOM     53  H   UNL     1     152.571 164.856 193.878  0.00  0.00    +0.028 HD
ATOM     54  H   UNL     1     150.903 165.403 193.906  0.00  0.00    +0.028 HD
ENDBRANCH  21  51
BRANCH   2  55
ATOM     55  C   UNL     1     154.154 163.581 184.910  0.00  0.00    -0.057 C 
ATOM     56  H   UNL     1     153.419 163.111 184.246  0.00  0.00    +0.023 HD
ATOM     57  H   UNL     1     154.824 162.810 185.283  0.00  0.00    +0.023 HD
ATOM     58  H   UNL     1     154.785 164.232 184.302  0.00  0.00    +0.023 HD
ENDBRANCH   2  55
BRANCH   1  59
ATOM     59  C   UNL     1     155.658 165.693 186.871  0.00  0.00    +0.020 C 
ATOM     60  H   UNL     1     155.932 166.147 187.829  0.00  0.00    +0.036 HD
BRANCH  59  61
ATOM     61  C   UNL     1     156.933 164.956 186.439  0.00  0.00    -0.057 C 
ATOM     62  H   UNL     1     157.789 165.266 187.044  0.00  0.00    +0.023 HD
ATOM     63  H   UNL     1     156.849 163.873 186.492  0.00  0.00    +0.023 HD
ATOM     64  H   UNL     1     157.167 165.201 185.397  0.00  0.00    +0.023 HD
ENDBRANCH  59  61
BRANCH  59  65
ATOM     65  C   UNL     1     155.350 166.884 185.916  0.00  0.00    +0.064 C 
ATOM     66  H   UNL     1     154.435 166.640 185.358  0.00  0.00    +0.060 HD
BRANCH  65  67
ATOM     67  C   UNL     1     156.444 167.192 184.856  0.00  0.00    -0.017 C 
ATOM     68  H   UNL     1     157.229 166.435 184.907  0.00  0.00    +0.032 HD
BRANCH  67  69
ATOM     69  C   UNL     1     155.851 167.163 183.440  0.00  0.00    -0.060 C 
ATOM     70  H   UNL     1     155.486 168.157 183.150  0.00  0.00    +0.023 HD
ATOM     71  H   UNL     1     155.009 166.466 183.383  0.00  0.00    +0.023 HD
ATOM     72  H   UNL     1     156.585 166.870 182.688  0.00  0.00    +0.023 HD
ENDBRANCH  67  69
BRANCH  67  73
ATOM     73  C   UNL     1     157.135 168.564 185.066  0.00  0.00    -0.046 C 
ATOM     74  H   UNL     1     156.957 168.900 186.096  0.00  0.00    +0.027 HD
ATOM     75  H   UNL     1     158.222 168.456 184.962  0.00  0.00    +0.027 HD
BRANCH  73  76
ATOM     76  C   UNL     1     156.608 169.653 184.125  0.00  0.00    -0.026 C 
ATOM     77  H   UNL     1     156.513 169.274 183.102  0.00  0.00    +0.029 HD
ATOM     78  H   UNL     1     155.594 169.947 184.427  0.00  0.00    +0.029 HD
BRANCH  76  83
ATOM     79  C   UNL     1     157.625 173.045 183.051  0.00  0.00    +0.059 C 
ATOM     80  C   UNL     1     159.000 173.104 183.725  0.00  0.00    -0.000 C 
ATOM     81  C   UNL     1     159.763 171.808 183.471  0.00  0.00    +0.063 C 
ATOM     82  C   UNL     1     158.975 170.612 184.026  0.00  0.00    -0.000 C 
ATOM     83  C   UNL     1     157.478 170.914 184.127  0.00  0.00    +0.061 C 
ATOM     84  O   UNL     1     157.086 171.717 183.008  0.00  0.00    -0.373 OA
ATOM     85  H   UNL     1     157.740 173.352 182.005  0.00  0.00    +0.059 HD
ATOM     86  H   UNL     1     159.570 173.969 183.366  0.00  0.00    +0.032 HD
ATOM     87  H   UNL     1     158.904 173.253 184.810  0.00  0.00    +0.032 HD
ATOM     88  H   UNL     1     159.900 171.692 182.388  0.00  0.00    +0.060 HD
ATOM     89  H   UNL     1     159.144 169.757 183.353  0.00  0.00    +0.032 HD
ATOM     90  H   UNL     1     159.356 170.299 185.008  0.00  0.00    +0.032 HD
ATOM     91  H   UNL     1     157.266 171.470 185.051  0.00  0.00    +0.060 HD
BRANCH  79  92
ATOM     92  C   UNL     1     156.622 173.982 183.709  0.00  0.00    -0.039 C 
ATOM     93  H   UNL     1     157.046 174.982 183.844  0.00  0.00    +0.025 HD
ATOM     94  H   UNL     1     155.721 174.059 183.092  0.00  0.00    +0.025 HD
ATOM     95  H   UNL     1     156.302 173.601 184.685  0.00  0.00    +0.025 HD
ENDBRANCH  79  92
BRANCH  81  96
ATOM     96  O   UNL     1     161.046 171.914 184.099  0.00  0.00    -0.380 OA
BRANCH  96  97
ATOM     97  C   UNL     1     162.010 172.569 183.283  0.00  0.00    +0.037 C 
ATOM     98  H   UNL     1     162.675 171.807 182.868  0.00  0.00    +0.052 HD
ATOM     99  H   UNL     1     162.608 173.266 183.877  0.00  0.00    +0.052 HD
ATOM    100  H   UNL     1     161.529 173.095 182.453  0.00  0.00    +0.052 HD
ENDBRANCH  96  97
ENDBRANCH  81  96
ENDBRANCH  76  83
ENDBRANCH  73  76
ENDBRANCH  67  73
ENDBRANCH  65  67
BRANCH  65 101
ATOM    101  O   UNL     1     155.049 168.056 186.662  0.00  0.00    -0.391 OA
ATOM    102  H   UNL     1     154.766 168.744 186.036  0.00  0.00    +0.210 HD
ENDBRANCH  65 101
ENDBRANCH  59  65
ENDBRANCH   1  59
BRANCH  19 103
ATOM    103  O   UNL     1     149.871 169.312 192.246  0.00  0.00    -0.385 OA
ATOM    104  H   UNL     1     149.074 169.366 191.691  0.00  0.00    +0.210 HD
ENDBRANCH  19 103
BRANCH  18 105
ATOM    105  O   UNL     1     148.686 165.900 192.911  0.00  0.00    -0.377 OA
BRANCH 105 106
ATOM    106  C   UNL     1     148.251 166.072 194.255  0.00  0.00    +0.037 C 
ATOM    107  H   UNL     1     147.164 165.951 194.317  0.00  0.00    +0.052 HD
ATOM    108  H   UNL     1     148.541 167.052 194.643  0.00  0.00    +0.052 HD
ATOM    109  H   UNL     1     148.721 165.301 194.871  0.00  0.00    +0.052 HD
ENDBRANCH 105 106
ENDBRANCH  18 105
BRANCH   9 110
ATOM    110  O   UNL     1     149.168 165.319 184.671  0.00  0.00    -0.377 OA
BRANCH 110 111
ATOM    111  C   UNL     1     147.964 165.660 183.990  0.00  0.00    +0.037 C 
ATOM    112  H   UNL     1     147.477 166.470 184.542  0.00  0.00    +0.052 HD
ATOM    113  H   UNL     1     147.281 164.807 183.965  0.00  0.00    +0.052 HD
ATOM    114  H   UNL     1     148.169 166.014 182.978  0.00  0.00    +0.052 HD
ENDBRANCH 110 111
ENDBRANCH   9 110
BRANCH   5 115
ATOM    115  O   UNL     1     149.032 162.291 184.989  0.00  0.00    -0.377 OA
BRANCH 115 116
ATOM    116  C   UNL     1     149.810 161.929 183.858  0.00  0.00    +0.037 C 
ATOM    117  H   UNL     1     150.534 161.176 184.172  0.00  0.00    +0.052 HD
ATOM    118  H   UNL     1     149.189 161.506 183.068  0.00  0.00    +0.052 HD
ATOM    119  H   UNL     1     150.359 162.798 183.479  0.00  0.00    +0.052 HD
ENDBRANCH 115 116
ENDBRANCH   5 115
BRANCH   3 120
ATOM    120  O   UNL     1     152.746 162.247 187.122  0.00  0.00    -0.379 OA
BRANCH 120 121
ATOM    121  C   UNL     1     152.391 161.983 188.472  0.00  0.00    +0.037 C 
ATOM    122  H   UNL     1     151.311 162.134 188.577  0.00  0.00    +0.052 HD
ATOM    123  H   UNL     1     152.903 162.668 189.157  0.00  0.00    +0.052 HD
ATOM    124  H   UNL     1     152.620 160.945 188.737  0.00  0.00    +0.052 HD
ENDBRANCH 120 121
ENDBRANCH   3 120
TORSDOF 23
ENDMDL
MODEL 9
REMARK VINA RESULT:      -5.7      3.008      5.757
REMARK  Name = Lobophorolide_conf1
REMARK  23 active torsions:
REMARK  status: ('A' for Active; 'I' for Inactive)
REMARK    1  A    between atoms: C_1  and  C_2
REMARK    2  A    between atoms: C_4  and  O_53
REMARK    3  A    between atoms: C_6  and  C_8
REMARK    4  A    between atoms: C_8  and  C_9
REMARK    5  A    between atoms: C_9  and  C_10
REMARK    6  A    between atoms: C_10  and  C_11
REMARK    7  A    between atoms: C_10  and  C_12
REMARK    8  A    between atoms: C_12  and  C_13
REMARK    9  A    between atoms: C_12  and  O_52
REMARK   10  A    between atoms: C_13  and  C_14
REMARK   11  A    between atoms: C_13  and  C_15
REMARK   12  A    between atoms: C_16  and  C_51
REMARK   13  A    between atoms: C_17  and  O_49
REMARK   14  A    between atoms: C_19  and  O_47
REMARK   15  A    between atoms: C_23  and  O_45
REMARK   16  A    between atoms: C_32  and  O_43
REMARK   17  A    between atoms: C_33  and  O_42
REMARK   18  A    between atoms: C_35  and  C_41
REMARK   19  A    between atoms: O_43  and  C_44
REMARK   20  A    between atoms: O_45  and  C_46
REMARK   21  A    between atoms: O_47  and  C_48
REMARK   22  A    between atoms: O_49  and  C_50
REMARK   23  A    between atoms: O_53  and  C_54
REMARK                            x       y       z     vdW  Elec       q    Type
REMARK                         _______ _______ _______ _____ _____    ______ ____
ROOT
ATOM      1  C   UNL     1     155.403 164.475 188.552  0.00  0.00    +0.113 C 
ATOM      2  C   UNL     1     155.430 162.960 188.929  0.00  0.00    +0.020 C 
ATOM      3  C   UNL     1     155.934 162.080 187.721  0.00  0.00    +0.067 C 
ATOM      4  C   UNL     1     156.052 160.596 188.120  0.00  0.00    +0.003 C 
ATOM      5  C   UNL     1     156.953 159.751 187.210  0.00  0.00    +0.094 C 
ATOM      6  C   UNL     1     158.466 159.984 187.314  0.00  0.00    +0.145 C 
ATOM      7  C   UNL     1     159.265 159.357 186.177  0.00  0.00    +0.083 C 
ATOM      8  O   UNL     1     159.002 160.763 186.222  0.00  0.00    -0.363 OA
ATOM      9  C   UNL     1     159.110 160.326 188.664  0.00  0.00    +0.094 C 
ATOM     10  C   UNL     1     160.613 160.010 188.807  0.00  0.00    +0.003 C 
ATOM     11  C   UNL     1     161.627 160.881 188.051  0.00  0.00    +0.065 C 
ATOM     12  C   UNL     1     163.049 160.505 188.533  0.00  0.00    -0.008 C 
ATOM     13  C   UNL     1     164.072 161.542 188.195  0.00  0.00    -0.083 C 
ATOM     14  C   UNL     1     163.702 162.753 187.762  0.00  0.00    -0.059 C 
ATOM     15  C   UNL     1     162.264 163.160 187.572  0.00  0.00    +0.080 C 
ATOM     16  O   UNL     1     161.371 162.269 188.286  0.00  0.00    -0.369 OA
ATOM     17  C   UNL     1     161.871 163.251 186.088  0.00  0.00    +0.006 C 
ATOM     18  C   UNL     1     162.645 164.283 185.239  0.00  0.00    +0.090 C 
ATOM     19  C   UNL     1     162.491 165.770 185.681  0.00  0.00    +0.100 C 
ATOM     20  C   UNL     1     161.088 166.127 186.078  0.00  0.00    -0.051 C 
ATOM     21  C   UNL     1     160.085 166.550 185.284  0.00  0.00    -0.052 C 
ATOM     22  C   UNL     1     158.732 166.653 185.808  0.00  0.00    -0.052 C 
ATOM     23  C   UNL     1     158.188 165.676 186.544  0.00  0.00    +0.023 C 
ATOM     24  C   UNL     1     156.803 165.731 187.042  0.00  0.00    +0.332 C 
ATOM     25  O   UNL     1     155.934 166.495 186.665  0.00  0.00    -0.246 OA
ATOM     26  O   UNL     1     156.701 164.753 187.971  0.00  0.00    -0.458 OA
ATOM     27  H   UNL     1     154.654 164.605 187.760  0.00  0.00    +0.074 HD
ATOM     28  H   UNL     1     156.174 162.812 189.719  0.00  0.00    +0.036 HD
ATOM     29  H   UNL     1     156.922 162.442 187.405  0.00  0.00    +0.060 HD
ATOM     30  H   UNL     1     155.049 160.150 188.092  0.00  0.00    +0.032 HD
ATOM     31  H   UNL     1     156.371 160.510 189.159  0.00  0.00    +0.032 HD
ATOM     32  H   UNL     1     156.660 159.946 186.169  0.00  0.00    +0.063 HD
ATOM     33  H   UNL     1     160.273 159.006 186.334  0.00  0.00    +0.059 HD
ATOM     34  H   UNL     1     158.738 158.772 185.432  0.00  0.00    +0.059 HD
ATOM     35  H   UNL     1     158.923 161.390 188.860  0.00  0.00    +0.063 HD
ATOM     36  H   UNL     1     160.861 160.097 189.873  0.00  0.00    +0.032 HD
ATOM     37  H   UNL     1     160.788 158.952 188.571  0.00  0.00    +0.032 HD
ATOM     38  H   UNL     1     161.555 160.685 186.979  0.00  0.00    +0.060 HD
ATOM     39  H   UNL     1     163.073 160.393 189.624  0.00  0.00    +0.033 HD
ATOM     40  H   UNL     1     163.338 159.540 188.100  0.00  0.00    +0.033 HD
ATOM     41  H   UNL     1     165.123 161.312 188.345  0.00  0.00    +0.057 HD
ATOM     42  H   UNL     1     164.458 163.508 187.558  0.00  0.00    +0.059 HD
ATOM     43  H   UNL     1     162.118 164.132 188.055  0.00  0.00    +0.064 HD
ATOM     44  H   UNL     1     162.003 162.272 185.608  0.00  0.00    +0.032 HD
ATOM     45  H   UNL     1     160.789 163.423 186.005  0.00  0.00    +0.032 HD
ATOM     46  H   UNL     1     163.708 164.014 185.275  0.00  0.00    +0.063 HD
ATOM     47  H   UNL     1     162.839 166.436 184.888  0.00  0.00    +0.066 HD
ATOM     48  H   UNL     1     160.876 165.942 187.133  0.00  0.00    +0.060 HD
ATOM     49  H   UNL     1     158.155 167.534 185.539  0.00  0.00    +0.062 HD
ATOM     50  H   UNL     1     158.737 164.774 186.789  0.00  0.00    +0.069 HD
ENDROOT
BRANCH  21  51
ATOM     51  C   UNL     1     160.207 166.861 183.818  0.00  0.00    -0.040 C 
ATOM     52  H   UNL     1     161.041 167.546 183.642  0.00  0.00    +0.028 HD
ATOM     53  H   UNL     1     159.311 167.322 183.399  0.00  0.00    +0.028 HD
ATOM     54  H   UNL     1     160.388 165.944 183.250  0.00  0.00    +0.028 HD
ENDBRANCH  21  51
BRANCH   2  55
ATOM     55  C   UNL     1     154.068 162.473 189.438  0.00  0.00    -0.057 C 
ATOM     56  H   UNL     1     153.447 163.306 189.785  0.00  0.00    +0.023 HD
ATOM     57  H   UNL     1     154.182 161.765 190.254  0.00  0.00    +0.023 HD
ATOM     58  H   UNL     1     153.505 161.934 188.673  0.00  0.00    +0.023 HD
ENDBRANCH   2  55
BRANCH   1  59
ATOM     59  C   UNL     1     155.128 165.538 189.670  0.00  0.00    +0.020 C 
ATOM     60  H   UNL     1     154.793 164.968 190.543  0.00  0.00    +0.036 HD
BRANCH  59  61
ATOM     61  C   UNL     1     156.416 166.218 190.151  0.00  0.00    -0.057 C 
ATOM     62  H   UNL     1     156.776 165.764 191.078  0.00  0.00    +0.023 HD
ATOM     63  H   UNL     1     157.221 166.192 189.420  0.00  0.00    +0.023 HD
ATOM     64  H   UNL     1     156.220 167.275 190.362  0.00  0.00    +0.023 HD
ENDBRANCH  59  61
BRANCH  59  65
ATOM     65  C   UNL     1     154.009 166.586 189.399  0.00  0.00    +0.064 C 
ATOM     66  H   UNL     1     154.472 167.582 189.405  0.00  0.00    +0.060 HD
BRANCH  65  67
ATOM     67  C   UNL     1     152.863 166.627 190.448  0.00  0.00    -0.017 C 
ATOM     68  H   UNL     1     152.715 167.653 190.793  0.00  0.00    +0.032 HD
BRANCH  67  69
ATOM     69  C   UNL     1     151.542 166.145 189.829  0.00  0.00    -0.060 C 
ATOM     70  H   UNL     1     150.955 165.575 190.560  0.00  0.00    +0.023 HD
ATOM     71  H   UNL     1     151.729 165.495 188.967  0.00  0.00    +0.023 HD
ATOM     72  H   UNL     1     150.911 166.971 189.498  0.00  0.00    +0.023 HD
ENDBRANCH  67  69
BRANCH  67  73
ATOM     73  C   UNL     1     153.150 165.771 191.708  0.00  0.00    -0.046 C 
ATOM     74  H   UNL     1     152.583 164.833 191.638  0.00  0.00    +0.027 HD
ATOM     75  H   UNL     1     154.209 165.488 191.737  0.00  0.00    +0.027 HD
BRANCH  73  76
ATOM     76  C   UNL     1     152.739 166.464 193.012  0.00  0.00    -0.026 C 
ATOM     77  H   UNL     1     153.493 166.310 193.792  0.00  0.00    +0.029 HD
ATOM     78  H   UNL     1     152.693 167.550 192.857  0.00  0.00    +0.029 HD
BRANCH  76  83
ATOM     79  C   UNL     1     149.090 166.730 193.564  0.00  0.00    +0.059 C 
ATOM     80  C   UNL     1     148.918 165.583 194.565  0.00  0.00    -0.000 C 
ATOM     81  C   UNL     1     150.003 165.655 195.635  0.00  0.00    +0.063 C 
ATOM     82  C   UNL     1     151.393 165.562 194.988  0.00  0.00    -0.000 C 
ATOM     83  C   UNL     1     151.370 166.008 193.524  0.00  0.00    +0.061 C 
ATOM     84  O   UNL     1     150.462 167.106 193.382  0.00  0.00    -0.373 OA
ATOM     85  H   UNL     1     148.591 167.618 193.968  0.00  0.00    +0.059 HD
ATOM     86  H   UNL     1     147.920 165.611 195.019  0.00  0.00    +0.032 HD
ATOM     87  H   UNL     1     148.979 164.606 194.064  0.00  0.00    +0.032 HD
ATOM     88  H   UNL     1     149.903 166.612 196.166  0.00  0.00    +0.060 HD
ATOM     89  H   UNL     1     152.076 166.202 195.568  0.00  0.00    +0.032 HD
ATOM     90  H   UNL     1     151.803 164.545 195.060  0.00  0.00    +0.032 HD
ATOM     91  H   UNL     1     151.027 165.182 192.884  0.00  0.00    +0.060 HD
BRANCH  79  92
ATOM     92  C   UNL     1     148.465 166.412 192.214  0.00  0.00    -0.039 C 
ATOM     93  H   UNL     1     147.759 165.579 192.291  0.00  0.00    +0.025 HD
ATOM     94  H   UNL     1     147.935 167.290 191.830  0.00  0.00    +0.025 HD
ATOM     95  H   UNL     1     149.229 166.158 191.471  0.00  0.00    +0.025 HD
ENDBRANCH  79  92
BRANCH  81  96
ATOM     96  O   UNL     1     149.792 164.581 196.559  0.00  0.00    -0.380 OA
BRANCH  96  97
ATOM     97  C   UNL     1     150.888 163.676 196.617  0.00  0.00    +0.037 C 
ATOM     98  H   UNL     1     150.936 163.267 197.630  0.00  0.00    +0.052 HD
ATOM     99  H   UNL     1     151.828 164.195 196.408  0.00  0.00    +0.052 HD
ATOM    100  H   UNL     1     150.749 162.846 195.918  0.00  0.00    +0.052 HD
ENDBRANCH  96  97
ENDBRANCH  81  96
ENDBRANCH  76  83
ENDBRANCH  73  76
ENDBRANCH  67  73
ENDBRANCH  65  67
BRANCH  65 101
ATOM    101  O   UNL     1     153.470 166.415 188.095  0.00  0.00    -0.391 OA
ATOM    102  H   UNL     1     153.830 167.117 187.527  0.00  0.00    +0.210 HD
ENDBRANCH  65 101
ENDBRANCH  59  65
ENDBRANCH   1  59
BRANCH  19 103
ATOM    103  O   UNL     1     163.321 166.013 186.819  0.00  0.00    -0.385 OA
ATOM    104  H   UNL     1     162.952 166.783 187.285  0.00  0.00    +0.210 HD
ENDBRANCH  19 103
BRANCH  18 105
ATOM    105  O   UNL     1     162.177 164.124 183.885  0.00  0.00    -0.377 OA
BRANCH 105 106
ATOM    106  C   UNL     1     161.144 163.153 183.759  0.00  0.00    +0.037 C 
ATOM    107  H   UNL     1     160.654 163.250 182.785  0.00  0.00    +0.052 HD
ATOM    108  H   UNL     1     160.409 163.250 184.561  0.00  0.00    +0.052 HD
ATOM    109  H   UNL     1     161.596 162.159 183.821  0.00  0.00    +0.052 HD
ENDBRANCH 105 106
ENDBRANCH  18 105
BRANCH   9 110
ATOM    110  O   UNL     1     158.456 159.535 189.680  0.00  0.00    -0.377 OA
BRANCH 110 111
ATOM    111  C   UNL     1     159.181 158.369 190.056  0.00  0.00    +0.037 C 
ATOM    112  H   UNL     1     159.048 157.615 189.273  0.00  0.00    +0.052 HD
ATOM    113  H   UNL     1     158.791 157.958 190.992  0.00  0.00    +0.052 HD
ATOM    114  H   UNL     1     160.248 158.579 190.147  0.00  0.00    +0.052 HD
ENDBRANCH 110 111
ENDBRANCH   9 110
BRANCH   5 115
ATOM    115  O   UNL     1     156.723 158.352 187.470  0.00  0.00    -0.377 OA
BRANCH 115 116
ATOM    116  C   UNL     1     155.553 158.108 188.237  0.00  0.00    +0.037 C 
ATOM    117  H   UNL     1     155.767 158.377 189.273  0.00  0.00    +0.052 HD
ATOM    118  H   UNL     1     154.716 158.713 187.887  0.00  0.00    +0.052 HD
ATOM    119  H   UNL     1     155.290 157.046 188.203  0.00  0.00    +0.052 HD
ENDBRANCH 115 116
ENDBRANCH   5 115
BRANCH   3 120
ATOM    120  O   UNL     1     154.974 162.176 186.654  0.00  0.00    -0.379 OA
BRANCH 120 121
ATOM    121  C   UNL     1     155.542 162.568 185.413  0.00  0.00    +0.037 C 
ATOM    122  H   UNL     1     156.559 162.931 185.601  0.00  0.00    +0.052 HD
ATOM    123  H   UNL     1     154.966 163.378 184.953  0.00  0.00    +0.052 HD
ATOM    124  H   UNL     1     155.603 161.715 184.728  0.00  0.00    +0.052 HD
ENDBRANCH 120 121
ENDBRANCH   3 120
TORSDOF 23
ENDMDL
MODEL 10
REMARK VINA RESULT:      -5.7      2.809     10.287
REMARK  Name = Lobophorolide_conf1
REMARK  23 active torsions:
REMARK  status: ('A' for Active; 'I' for Inactive)
REMARK    1  A    between atoms: C_1  and  C_2
REMARK    2  A    between atoms: C_4  and  O_53
REMARK    3  A    between atoms: C_6  and  C_8
REMARK    4  A    between atoms: C_8  and  C_9
REMARK    5  A    between atoms: C_9  and  C_10
REMARK    6  A    between atoms: C_10  and  C_11
REMARK    7  A    between atoms: C_10  and  C_12
REMARK    8  A    between atoms: C_12  and  C_13
REMARK    9  A    between atoms: C_12  and  O_52
REMARK   10  A    between atoms: C_13  and  C_14
REMARK   11  A    between atoms: C_13  and  C_15
REMARK   12  A    between atoms: C_16  and  C_51
REMARK   13  A    between atoms: C_17  and  O_49
REMARK   14  A    between atoms: C_19  and  O_47
REMARK   15  A    between atoms: C_23  and  O_45
REMARK   16  A    between atoms: C_32  and  O_43
REMARK   17  A    between atoms: C_33  and  O_42
REMARK   18  A    between atoms: C_35  and  C_41
REMARK   19  A    between atoms: O_43  and  C_44
REMARK   20  A    between atoms: O_45  and  C_46
REMARK   21  A    between atoms: O_47  and  C_48
REMARK   22  A    between atoms: O_49  and  C_50
REMARK   23  A    between atoms: O_53  and  C_54
REMARK                            x       y       z     vdW  Elec       q    Type
REMARK                         _______ _______ _______ _____ _____    ______ ____
ROOT
ATOM      1  C   UNL     1     152.355 163.526 188.442  0.00  0.00    +0.113 C 
ATOM      2  C   UNL     1     152.816 164.057 189.837  0.00  0.00    +0.020 C 
ATOM      3  C   UNL     1     152.464 165.584 190.011  0.00  0.00    +0.067 C 
ATOM      4  C   UNL     1     152.833 166.087 191.421  0.00  0.00    +0.003 C 
ATOM      5  C   UNL     1     152.127 167.379 191.852  0.00  0.00    +0.094 C 
ATOM      6  C   UNL     1     150.633 167.280 192.189  0.00  0.00    +0.145 C 
ATOM      7  C   UNL     1     149.935 168.630 192.295  0.00  0.00    +0.083 C 
ATOM      8  O   UNL     1     149.775 167.793 191.146  0.00  0.00    -0.363 OA
ATOM      9  C   UNL     1     150.069 166.021 192.861  0.00  0.00    +0.094 C 
ATOM     10  C   UNL     1     148.750 166.193 193.643  0.00  0.00    +0.003 C 
ATOM     11  C   UNL     1     147.448 166.414 192.858  0.00  0.00    +0.065 C 
ATOM     12  C   UNL     1     146.261 166.332 193.848  0.00  0.00    -0.008 C 
ATOM     13  C   UNL     1     144.949 166.115 193.168  0.00  0.00    -0.083 C 
ATOM     14  C   UNL     1     144.895 165.773 191.875  0.00  0.00    -0.059 C 
ATOM     15  C   UNL     1     146.121 165.593 191.016  0.00  0.00    +0.080 C 
ATOM     16  O   UNL     1     147.309 165.429 191.830  0.00  0.00    -0.369 OA
ATOM     17  C   UNL     1     146.305 166.742 190.010  0.00  0.00    +0.006 C 
ATOM     18  C   UNL     1     145.173 166.932 188.976  0.00  0.00    +0.090 C 
ATOM     19  C   UNL     1     144.930 165.729 188.015  0.00  0.00    +0.100 C 
ATOM     20  C   UNL     1     146.201 165.094 187.529  0.00  0.00    -0.051 C 
ATOM     21  C   UNL     1     146.941 165.440 186.457  0.00  0.00    -0.052 C 
ATOM     22  C   UNL     1     148.253 164.845 186.253  0.00  0.00    -0.052 C 
ATOM     23  C   UNL     1     149.138 164.736 187.252  0.00  0.00    +0.023 C 
ATOM     24  C   UNL     1     150.490 164.187 187.062  0.00  0.00    +0.332 C 
ATOM     25  O   UNL     1     151.050 164.008 185.996  0.00  0.00    -0.246 OA
ATOM     26  O   UNL     1     150.976 163.953 188.302  0.00  0.00    -0.458 OA
ATOM     27  H   UNL     1     152.940 164.052 187.678  0.00  0.00    +0.074 HD
ATOM     28  H   UNL     1     152.239 163.542 190.613  0.00  0.00    +0.036 HD
ATOM     29  H   UNL     1     151.386 165.722 189.856  0.00  0.00    +0.060 HD
ATOM     30  H   UNL     1     153.914 166.281 191.447  0.00  0.00    +0.032 HD
ATOM     31  H   UNL     1     152.669 165.298 192.156  0.00  0.00    +0.032 HD
ATOM     32  H   UNL     1     152.233 168.110 191.039  0.00  0.00    +0.063 HD
ATOM     33  H   UNL     1     149.098 168.773 192.961  0.00  0.00    +0.059 HD
ATOM     34  H   UNL     1     150.526 169.532 192.180  0.00  0.00    +0.059 HD
ATOM     35  H   UNL     1     149.954 165.253 192.084  0.00  0.00    +0.063 HD
ATOM     36  H   UNL     1     148.606 165.281 194.236  0.00  0.00    +0.032 HD
ATOM     37  H   UNL     1     148.870 166.989 194.389  0.00  0.00    +0.032 HD
ATOM     38  H   UNL     1     147.457 167.405 192.400  0.00  0.00    +0.060 HD
ATOM     39  H   UNL     1     146.391 165.493 194.543  0.00  0.00    +0.033 HD
ATOM     40  H   UNL     1     146.224 167.249 194.450  0.00  0.00    +0.033 HD
ATOM     41  H   UNL     1     144.035 166.199 193.749  0.00  0.00    +0.057 HD
ATOM     42  H   UNL     1     143.933 165.581 191.406  0.00  0.00    +0.059 HD
ATOM     43  H   UNL     1     146.025 164.643 190.481  0.00  0.00    +0.064 HD
ATOM     44  H   UNL     1     146.414 167.694 190.548  0.00  0.00    +0.032 HD
ATOM     45  H   UNL     1     147.272 166.632 189.501  0.00  0.00    +0.032 HD
ATOM     46  H   UNL     1     144.247 167.133 189.529  0.00  0.00    +0.063 HD
ATOM     47  H   UNL     1     144.316 166.043 187.167  0.00  0.00    +0.066 HD
ATOM     48  H   UNL     1     146.572 164.306 188.188  0.00  0.00    +0.060 HD
ATOM     49  H   UNL     1     148.512 164.534 185.245  0.00  0.00    +0.062 HD
ATOM     50  H   UNL     1     148.908 165.076 188.256  0.00  0.00    +0.069 HD
ENDROOT
BRANCH  21  51
ATOM     51  C   UNL     1     146.574 166.491 185.447  0.00  0.00    -0.040 C 
ATOM     52  H   UNL     1     146.434 166.039 184.461  0.00  0.00    +0.028 HD
ATOM     53  H   UNL     1     147.327 167.273 185.344  0.00  0.00    +0.028 HD
ATOM     54  H   UNL     1     145.641 166.983 185.735  0.00  0.00    +0.028 HD
ENDBRANCH  21  51
BRANCH   2  55
ATOM     55  C   UNL     1     154.308 163.802 190.080  0.00  0.00    -0.057 C 
ATOM     56  H   UNL     1     154.931 164.328 189.348  0.00  0.00    +0.023 HD
ATOM     57  H   UNL     1     154.540 162.741 190.031  0.00  0.00    +0.023 HD
ATOM     58  H   UNL     1     154.628 164.114 191.077  0.00  0.00    +0.023 HD
ENDBRANCH   2  55
BRANCH   1  59
ATOM     59  C   UNL     1     152.425 161.989 188.147  0.00  0.00    +0.020 C 
ATOM     60  H   UNL     1     152.947 161.547 189.003  0.00  0.00    +0.036 HD
BRANCH  59  61
ATOM     61  C   UNL     1     151.041 161.329 188.183  0.00  0.00    -0.057 C 
ATOM     62  H   UNL     1     150.574 161.344 187.194  0.00  0.00    +0.023 HD
ATOM     63  H   UNL     1     151.057 160.301 188.539  0.00  0.00    +0.023 HD
ATOM     64  H   UNL     1     150.383 161.884 188.860  0.00  0.00    +0.023 HD
ENDBRANCH  59  61
BRANCH  59  65
ATOM     65  C   UNL     1     153.227 161.540 186.890  0.00  0.00    +0.064 C 
ATOM     66  H   UNL     1     152.619 160.803 186.348  0.00  0.00    +0.060 HD
BRANCH  65  67
ATOM     67  C   UNL     1     154.594 160.858 187.177  0.00  0.00    -0.017 C 
ATOM     68  H   UNL     1     154.696 159.964 186.558  0.00  0.00    +0.032 HD
BRANCH  67  69
ATOM     69  C   UNL     1     155.755 161.803 186.834  0.00  0.00    -0.060 C 
ATOM     70  H   UNL     1     155.459 162.514 186.051  0.00  0.00    +0.023 HD
ATOM     71  H   UNL     1     156.621 161.242 186.469  0.00  0.00    +0.023 HD
ATOM     72  H   UNL     1     156.074 162.399 187.691  0.00  0.00    +0.023 HD
ENDBRANCH  67  69
BRANCH  67  73
ATOM     73  C   UNL     1     154.758 160.402 188.650  0.00  0.00    -0.046 C 
ATOM     74  H   UNL     1     154.033 160.942 189.273  0.00  0.00    +0.027 HD
ATOM     75  H   UNL     1     154.510 159.338 188.742  0.00  0.00    +0.027 HD
BRANCH  73  76
ATOM     76  C   UNL     1     156.155 160.682 189.214  0.00  0.00    -0.026 C 
ATOM     77  H   UNL     1     156.802 161.131 188.452  0.00  0.00    +0.029 HD
ATOM     78  H   UNL     1     156.089 161.425 190.020  0.00  0.00    +0.029 HD
BRANCH  76  83
ATOM     79  C   UNL     1     156.258 157.335 190.786  0.00  0.00    +0.059 C 
ATOM     80  C   UNL     1     157.755 157.270 191.108  0.00  0.00    -0.000 C 
ATOM     81  C   UNL     1     158.210 158.581 191.740  0.00  0.00    +0.063 C 
ATOM     82  C   UNL     1     157.946 159.752 190.782  0.00  0.00    -0.000 C 
ATOM     83  C   UNL     1     156.828 159.432 189.787  0.00  0.00    +0.061 C 
ATOM     84  O   UNL     1     155.821 158.657 190.447  0.00  0.00    -0.373 OA
ATOM     85  H   UNL     1     155.699 157.060 191.688  0.00  0.00    +0.059 HD
ATOM     86  H   UNL     1     157.973 156.422 191.768  0.00  0.00    +0.032 HD
ATOM     87  H   UNL     1     158.348 157.088 190.200  0.00  0.00    +0.032 HD
ATOM     88  H   UNL     1     157.650 158.730 192.673  0.00  0.00    +0.060 HD
ATOM     89  H   UNL     1     157.671 160.628 191.390  0.00  0.00    +0.032 HD
ATOM     90  H   UNL     1     158.855 160.040 190.237  0.00  0.00    +0.032 HD
ATOM     91  H   UNL     1     157.227 158.846 188.946  0.00  0.00    +0.060 HD
BRANCH  79  92
ATOM     92  C   UNL     1     155.867 156.368 189.677  0.00  0.00    -0.039 C 
ATOM     93  H   UNL     1     156.741 156.061 189.094  0.00  0.00    +0.025 HD
ATOM     94  H   UNL     1     155.397 155.477 190.106  0.00  0.00    +0.025 HD
ATOM     95  H   UNL     1     155.132 156.815 189.000  0.00  0.00    +0.025 HD
ENDBRANCH  79  92
BRANCH  81  96
ATOM     96  O   UNL     1     159.606 158.470 192.043  0.00  0.00    -0.380 OA
BRANCH  96  97
ATOM     97  C   UNL     1     159.896 157.405 192.940  0.00  0.00    +0.037 C 
ATOM     98  H   UNL     1     160.738 156.840 192.534  0.00  0.00    +0.052 HD
ATOM     99  H   UNL     1     159.038 156.733 193.031  0.00  0.00    +0.052 HD
ATOM    100  H   UNL     1     160.182 157.788 193.924  0.00  0.00    +0.052 HD
ENDBRANCH  96  97
ENDBRANCH  81  96
ENDBRANCH  76  83
ENDBRANCH  73  76
ENDBRANCH  67  73
ENDBRANCH  65  67
BRANCH  65 101
ATOM    101  O   UNL     1     153.405 162.631 185.996  0.00  0.00    -0.391 OA
ATOM    102  H   UNL     1     152.593 162.722 185.470  0.00  0.00    +0.210 HD
ENDBRANCH  65 101
ENDBRANCH  59  65
ENDBRANCH   1  59
BRANCH  19 103
ATOM    103  O   UNL     1     144.195 164.715 188.705  0.00  0.00    -0.385 OA
ATOM    104  H   UNL     1     143.679 164.230 188.038  0.00  0.00    +0.210 HD
ENDBRANCH  19 103
BRANCH  18 105
ATOM    105  O   UNL     1     145.516 168.106 188.214  0.00  0.00    -0.377 OA
BRANCH 105 106
ATOM    106  C   UNL     1     146.774 168.664 188.578  0.00  0.00    +0.037 C 
ATOM    107  H   UNL     1     146.679 169.224 189.513  0.00  0.00    +0.052 HD
ATOM    108  H   UNL     1     147.162 169.313 187.789  0.00  0.00    +0.052 HD
ATOM    109  H   UNL     1     147.482 167.845 188.734  0.00  0.00    +0.052 HD
ENDBRANCH 105 106
ENDBRANCH  18 105
BRANCH   9 110
ATOM    110  O   UNL     1     151.033 165.569 193.835  0.00  0.00    -0.377 OA
BRANCH 110 111
ATOM    111  C   UNL     1     150.601 165.716 195.184  0.00  0.00    +0.037 C 
ATOM    112  H   UNL     1     149.679 166.306 195.185  0.00  0.00    +0.052 HD
ATOM    113  H   UNL     1     151.350 166.256 195.771  0.00  0.00    +0.052 HD
ATOM    114  H   UNL     1     150.386 164.748 195.638  0.00  0.00    +0.052 HD
ENDBRANCH 110 111
ENDBRANCH   9 110
BRANCH   5 115
ATOM    115  O   UNL     1     152.785 167.923 193.013  0.00  0.00    -0.377 OA
BRANCH 115 116
ATOM    116  C   UNL     1     153.943 167.194 193.395  0.00  0.00    +0.037 C 
ATOM    117  H   UNL     1     154.816 167.714 192.998  0.00  0.00    +0.052 HD
ATOM    118  H   UNL     1     154.035 167.137 194.480  0.00  0.00    +0.052 HD
ATOM    119  H   UNL     1     153.917 166.187 192.967  0.00  0.00    +0.052 HD
ENDBRANCH 115 116
ENDBRANCH   5 115
BRANCH   3 120
ATOM    120  O   UNL     1     153.231 166.341 189.058  0.00  0.00    -0.379 OA
BRANCH 120 121
ATOM    121  C   UNL     1     152.434 167.131 188.186  0.00  0.00    +0.037 C 
ATOM    122  H   UNL     1     153.075 167.900 187.740  0.00  0.00    +0.052 HD
ATOM    123  H   UNL     1     151.626 167.629 188.732  0.00  0.00    +0.052 HD
ATOM    124  H   UNL     1     152.020 166.518 187.377  0.00  0.00    +0.052 HD
ENDBRANCH 120 121
ENDBRANCH   3 120
TORSDOF 23
ENDMDL
