MODEL 1
REMARK VINA RESULT:      -6.1      0.000      0.000
REMARK  Name = Lobophorolide_conf2
REMARK  23 active torsions:
REMARK  status: ('A' for Active; 'I' for Inactive)
REMARK    1  A    between atoms: C_1  and  C_2
REMARK    2  A    between atoms: C_4  and  O_53
REMARK    3  A    between atoms: C_6  and  C_8
REMARK    4  A    between atoms: C_8  and  C_9
REMARK    5  A    between atoms: C_9  and  C_10
REMARK    6  A    between atoms: C_10  and  C_11
REMARK    7  A    between atoms: C_10  and  C_12
REMARK    8  A    between atoms: C_12  and  C_13
REMARK    9  A    between atoms: C_12  and  O_52
REMARK   10  A    between atoms: C_13  and  C_14
REMARK   11  A    between atoms: C_13  and  C_15
REMARK   12  A    between atoms: C_16  and  C_51
REMARK   13  A    between atoms: C_17  and  O_49
REMARK   14  A    between atoms: C_19  and  O_47
REMARK   15  A    between atoms: C_23  and  O_45
REMARK   16  A    between atoms: C_32  and  O_43
REMARK   17  A    between atoms: C_33  and  O_42
REMARK   18  A    between atoms: C_35  and  C_41
REMARK   19  A    between atoms: O_43  and  C_44
REMARK   20  A    between atoms: O_45  and  C_46
REMARK   21  A    between atoms: O_47  and  C_48
REMARK   22  A    between atoms: O_49  and  C_50
REMARK   23  A    between atoms: O_53  and  C_54
REMARK                            x       y       z     vdW  Elec       q    Type
REMARK                         _______ _______ _______ _____ _____    ______ ____
ROOT
ATOM      1  C   UNL     1     154.172 165.967 188.795  0.00  0.00    +0.113 C 
ATOM      2  C   UNL     1     154.071 165.922 187.241  0.00  0.00    +0.020 C 
ATOM      3  C   UNL     1     155.454 166.218 186.566  0.00  0.00    +0.067 C 
ATOM      4  C   UNL     1     155.644 165.389 185.270  0.00  0.00    +0.003 C 
ATOM      5  C   UNL     1     156.678 164.243 185.403  0.00  0.00    +0.094 C 
ATOM      6  C   UNL     1     158.144 164.671 185.408  0.00  0.00    +0.145 C 
ATOM      7  C   UNL     1     158.603 165.744 184.421  0.00  0.00    +0.083 C 
ATOM      8  O   UNL     1     158.404 166.028 185.810  0.00  0.00    -0.363 OA
ATOM      9  C   UNL     1     159.190 163.630 185.823  0.00  0.00    +0.094 C 
ATOM     10  C   UNL     1     160.374 164.257 186.588  0.00  0.00    +0.003 C 
ATOM     11  C   UNL     1     161.610 163.381 186.851  0.00  0.00    +0.065 C 
ATOM     12  C   UNL     1     162.547 163.291 185.635  0.00  0.00    -0.008 C 
ATOM     13  C   UNL     1     163.700 162.386 185.938  0.00  0.00    -0.083 C 
ATOM     14  C   UNL     1     163.615 161.496 186.933  0.00  0.00    -0.059 C 
ATOM     15  C   UNL     1     162.376 161.298 187.776  0.00  0.00    +0.080 C 
ATOM     16  O   UNL     1     161.249 162.070 187.311  0.00  0.00    -0.369 OA
ATOM     17  C   UNL     1     162.634 161.594 189.263  0.00  0.00    +0.006 C 
ATOM     18  C   UNL     1     161.652 160.811 190.153  0.00  0.00    +0.090 C 
ATOM     19  C   UNL     1     161.217 161.626 191.396  0.00  0.00    +0.100 C 
ATOM     20  C   UNL     1     160.230 162.726 191.105  0.00  0.00    -0.051 C 
ATOM     21  C   UNL     1     158.961 162.616 190.656  0.00  0.00    -0.052 C 
ATOM     22  C   UNL     1     158.184 163.836 190.423  0.00  0.00    -0.052 C 
ATOM     23  C   UNL     1     156.932 163.876 189.947  0.00  0.00    +0.023 C 
ATOM     24  C   UNL     1     156.229 165.158 189.740  0.00  0.00    +0.332 C 
ATOM     25  O   UNL     1     156.662 166.264 190.013  0.00  0.00    -0.246 OA
ATOM     26  O   UNL     1     155.027 164.868 189.179  0.00  0.00    -0.458 OA
ATOM     27  H   UNL     1     154.608 166.930 189.089  0.00  0.00    +0.074 HD
ATOM     28  H   UNL     1     153.802 164.889 186.985  0.00  0.00    +0.036 HD
ATOM     29  H   UNL     1     156.282 166.005 187.249  0.00  0.00    +0.060 HD
ATOM     30  H   UNL     1     155.902 166.043 184.433  0.00  0.00    +0.032 HD
ATOM     31  H   UNL     1     154.684 164.938 184.990  0.00  0.00    +0.032 HD
ATOM     32  H   UNL     1     156.566 163.589 184.529  0.00  0.00    +0.063 HD
ATOM     33  H   UNL     1     157.908 166.160 183.707  0.00  0.00    +0.059 HD
ATOM     34  H   UNL     1     159.623 165.709 184.052  0.00  0.00    +0.059 HD
ATOM     35  H   UNL     1     158.738 162.885 186.490  0.00  0.00    +0.063 HD
ATOM     36  H   UNL     1     159.980 164.590 187.559  0.00  0.00    +0.032 HD
ATOM     37  H   UNL     1     160.729 165.162 186.081  0.00  0.00    +0.032 HD
ATOM     38  H   UNL     1     162.158 163.888 187.656  0.00  0.00    +0.060 HD
ATOM     39  H   UNL     1     162.921 164.291 185.383  0.00  0.00    +0.033 HD
ATOM     40  H   UNL     1     162.043 162.892 184.751  0.00  0.00    +0.033 HD
ATOM     41  H   UNL     1     164.596 162.466 185.332  0.00  0.00    +0.057 HD
ATOM     42  H   UNL     1     164.461 160.847 187.143  0.00  0.00    +0.059 HD
ATOM     43  H   UNL     1     162.087 160.247 187.659  0.00  0.00    +0.064 HD
ATOM     44  H   UNL     1     163.662 161.320 189.530  0.00  0.00    +0.032 HD
ATOM     45  H   UNL     1     162.527 162.669 189.441  0.00  0.00    +0.032 HD
ATOM     46  H   UNL     1     160.769 160.509 189.577  0.00  0.00    +0.063 HD
ATOM     47  H   UNL     1     162.106 162.066 191.868  0.00  0.00    +0.066 HD
ATOM     48  H   UNL     1     160.634 163.721 191.283  0.00  0.00    +0.060 HD
ATOM     49  H   UNL     1     158.678 164.778 190.658  0.00  0.00    +0.062 HD
ATOM     50  H   UNL     1     156.370 162.990 189.681  0.00  0.00    +0.069 HD
ENDROOT
BRANCH  21  51
ATOM     51  C   UNL     1     158.283 161.296 190.379  0.00  0.00    -0.040 C 
ATOM     52  H   UNL     1     157.787 160.927 191.282  0.00  0.00    +0.028 HD
ATOM     53  H   UNL     1     159.005 160.546 190.046  0.00  0.00    +0.028 HD
ATOM     54  H   UNL     1     157.532 161.348 189.590  0.00  0.00    +0.028 HD
ENDBRANCH  21  51
BRANCH   2  55
ATOM     55  C   UNL     1     152.978 166.845 186.682  0.00  0.00    -0.057 C 
ATOM     56  H   UNL     1     153.230 167.184 185.672  0.00  0.00    +0.023 HD
ATOM     57  H   UNL     1     152.014 166.337 186.607  0.00  0.00    +0.023 HD
ATOM     58  H   UNL     1     152.841 167.728 187.317  0.00  0.00    +0.023 HD
ENDBRANCH   2  55
BRANCH   1  59
ATOM     59  C   UNL     1     152.816 165.822 189.551  0.00  0.00    +0.020 C 
ATOM     60  H   UNL     1     152.020 165.985 188.816  0.00  0.00    +0.036 HD
BRANCH  59  61
ATOM     61  C   UNL     1     152.599 164.411 190.103  0.00  0.00    -0.057 C 
ATOM     62  H   UNL     1     153.548 163.939 190.378  0.00  0.00    +0.023 HD
ATOM     63  H   UNL     1     151.990 164.426 191.010  0.00  0.00    +0.023 HD
ATOM     64  H   UNL     1     152.078 163.774 189.386  0.00  0.00    +0.023 HD
ENDBRANCH  59  61
BRANCH  59  65
ATOM     65  C   UNL     1     152.629 166.935 190.628  0.00  0.00    +0.064 C 
ATOM     66  H   UNL     1     153.611 167.407 190.766  0.00  0.00    +0.060 HD
BRANCH  65  67
ATOM     67  C   UNL     1     152.078 166.536 192.032  0.00  0.00    -0.017 C 
ATOM     68  H   UNL     1     151.982 165.450 192.081  0.00  0.00    +0.032 HD
BRANCH  67  69
ATOM     69  C   UNL     1     153.135 166.930 193.080  0.00  0.00    -0.060 C 
ATOM     70  H   UNL     1     153.763 166.079 193.356  0.00  0.00    +0.023 HD
ATOM     71  H   UNL     1     152.669 167.315 193.997  0.00  0.00    +0.023 HD
ATOM     72  H   UNL     1     153.799 167.709 192.686  0.00  0.00    +0.023 HD
ENDBRANCH  67  69
BRANCH  67  73
ATOM     73  C   UNL     1     150.727 167.192 192.424  0.00  0.00    -0.046 C 
ATOM     74  H   UNL     1     150.566 168.104 191.844  0.00  0.00    +0.027 HD
ATOM     75  H   UNL     1     150.735 167.513 193.473  0.00  0.00    +0.027 HD
BRANCH  73  76
ATOM     76  C   UNL     1     149.489 166.303 192.199  0.00  0.00    -0.026 C 
ATOM     77  H   UNL     1     148.730 166.914 191.691  0.00  0.00    +0.029 HD
ATOM     78  H   UNL     1     149.746 165.486 191.516  0.00  0.00    +0.029 HD
BRANCH  76  83
ATOM     79  C   UNL     1     147.253 166.213 195.201  0.00  0.00    +0.059 C 
ATOM     80  C   UNL     1     148.222 165.652 196.243  0.00  0.00    -0.000 C 
ATOM     81  C   UNL     1     149.667 165.941 195.865  0.00  0.00    +0.063 C 
ATOM     82  C   UNL     1     149.943 165.354 194.484  0.00  0.00    -0.000 C 
ATOM     83  C   UNL     1     148.847 165.709 193.466  0.00  0.00    +0.061 C 
ATOM     84  O   UNL     1     147.931 166.652 194.018  0.00  0.00    -0.373 OA
ATOM     85  H   UNL     1     146.786 167.115 195.618  0.00  0.00    +0.059 HD
ATOM     86  H   UNL     1     147.994 166.076 197.231  0.00  0.00    +0.032 HD
ATOM     87  H   UNL     1     148.084 164.568 196.372  0.00  0.00    +0.032 HD
ATOM     88  H   UNL     1     149.826 167.026 195.854  0.00  0.00    +0.060 HD
ATOM     89  H   UNL     1     150.930 165.685 194.137  0.00  0.00    +0.032 HD
ATOM     90  H   UNL     1     150.033 164.261 194.548  0.00  0.00    +0.032 HD
ATOM     91  H   UNL     1     148.302 164.803 193.177  0.00  0.00    +0.060 HD
BRANCH  79  92
ATOM     92  C   UNL     1     146.125 165.236 194.880  0.00  0.00    -0.039 C 
ATOM     93  H   UNL     1     146.276 164.269 195.368  0.00  0.00    +0.025 HD
ATOM     94  H   UNL     1     145.163 165.637 195.213  0.00  0.00    +0.025 HD
ATOM     95  H   UNL     1     146.074 165.047 193.803  0.00  0.00    +0.025 HD
ENDBRANCH  79  92
BRANCH  81  96
ATOM     96  O   UNL     1     150.509 165.352 196.864  0.00  0.00    -0.380 OA
BRANCH  96  97
ATOM     97  C   UNL     1     150.906 164.020 196.552  0.00  0.00    +0.037 C 
ATOM     98  H   UNL     1     151.019 163.893 195.471  0.00  0.00    +0.052 HD
ATOM     99  H   UNL     1     151.873 163.835 197.026  0.00  0.00    +0.052 HD
ATOM    100  H   UNL     1     150.186 163.298 196.947  0.00  0.00    +0.052 HD
ENDBRANCH  96  97
ENDBRANCH  81  96
ENDBRANCH  76  83
ENDBRANCH  73  76
ENDBRANCH  67  73
ENDBRANCH  65  67
BRANCH  65 101
ATOM    101  O   UNL     1     151.788 167.964 190.083  0.00  0.00    -0.391 OA
ATOM    102  H   UNL     1     152.154 168.819 190.365  0.00  0.00    +0.210 HD
ENDBRANCH  65 101
ENDBRANCH  59  65
ENDBRANCH   1  59
BRANCH  19 103
ATOM    103  O   UNL     1     160.650 160.764 192.384  0.00  0.00    -0.385 OA
ATOM    104  H   UNL     1     161.225 159.976 192.378  0.00  0.00    +0.210 HD
ENDBRANCH  19 103
BRANCH  18 105
ATOM    105  O   UNL     1     162.347 159.629 190.627  0.00  0.00    -0.377 OA
BRANCH 105 106
ATOM    106  C   UNL     1     163.719 159.882 190.919  0.00  0.00    +0.037 C 
ATOM    107  H   UNL     1     164.356 159.119 190.461  0.00  0.00    +0.052 HD
ATOM    108  H   UNL     1     163.851 159.839 192.003  0.00  0.00    +0.052 HD
ATOM    109  H   UNL     1     164.007 160.878 190.570  0.00  0.00    +0.052 HD
ENDBRANCH 105 106
ENDBRANCH  18 105
BRANCH   9 110
ATOM    110  O   UNL     1     159.654 163.003 184.619  0.00  0.00    -0.377 OA
BRANCH 110 111
ATOM    111  C   UNL     1     159.163 161.679 184.473  0.00  0.00    +0.037 C 
ATOM    112  H   UNL     1     159.957 160.984 184.754  0.00  0.00    +0.052 HD
ATOM    113  H   UNL     1     158.884 161.488 183.433  0.00  0.00    +0.052 HD
ATOM    114  H   UNL     1     158.305 161.506 185.129  0.00  0.00    +0.052 HD
ENDBRANCH 110 111
ENDBRANCH   9 110
BRANCH   5 115
ATOM    115  O   UNL     1     156.403 163.493 186.597  0.00  0.00    -0.377 OA
BRANCH 115 116
ATOM    116  C   UNL     1     155.487 162.426 186.390  0.00  0.00    +0.037 C 
ATOM    117  H   UNL     1     155.565 161.695 187.200  0.00  0.00    +0.052 HD
ATOM    118  H   UNL     1     155.658 161.939 185.426  0.00  0.00    +0.052 HD
ATOM    119  H   UNL     1     154.476 162.842 186.396  0.00  0.00    +0.052 HD
ENDBRANCH 115 116
ENDBRANCH   5 115
BRANCH   3 120
ATOM    120  O   UNL     1     155.515 167.605 186.172  0.00  0.00    -0.379 OA
BRANCH 120 121
ATOM    121  C   UNL     1     155.780 167.788 184.786  0.00  0.00    +0.037 C 
ATOM    122  H   UNL     1     154.947 168.292 184.293  0.00  0.00    +0.052 HD
ATOM    123  H   UNL     1     156.707 168.349 184.637  0.00  0.00    +0.052 HD
ATOM    124  H   UNL     1     155.903 166.802 184.330  0.00  0.00    +0.052 HD
ENDBRANCH 120 121
ENDBRANCH   3 120
TORSDOF 23
ENDMDL
MODEL 2
REMARK VINA RESULT:      -6.0      6.404     15.232
REMARK  Name = Lobophorolide_conf2
REMARK  23 active torsions:
REMARK  status: ('A' for Active; 'I' for Inactive)
REMARK    1  A    between atoms: C_1  and  C_2
REMARK    2  A    between atoms: C_4  and  O_53
REMARK    3  A    between atoms: C_6  and  C_8
REMARK    4  A    between atoms: C_8  and  C_9
REMARK    5  A    between atoms: C_9  and  C_10
REMARK    6  A    between atoms: C_10  and  C_11
REMARK    7  A    between atoms: C_10  and  C_12
REMARK    8  A    between atoms: C_12  and  C_13
REMARK    9  A    between atoms: C_12  and  O_52
REMARK   10  A    between atoms: C_13  and  C_14
REMARK   11  A    between atoms: C_13  and  C_15
REMARK   12  A    between atoms: C_16  and  C_51
REMARK   13  A    between atoms: C_17  and  O_49
REMARK   14  A    between atoms: C_19  and  O_47
REMARK   15  A    between atoms: C_23  and  O_45
REMARK   16  A    between atoms: C_32  and  O_43
REMARK   17  A    between atoms: C_33  and  O_42
REMARK   18  A    between atoms: C_35  and  C_41
REMARK   19  A    between atoms: O_43  and  C_44
REMARK   20  A    between atoms: O_45  and  C_46
REMARK   21  A    between atoms: O_47  and  C_48
REMARK   22  A    between atoms: O_49  and  C_50
REMARK   23  A    between atoms: O_53  and  C_54
REMARK                            x       y       z     vdW  Elec       q    Type
REMARK                         _______ _______ _______ _____ _____    ______ ____
ROOT
ATOM      1  C   UNL     1     148.322 167.249 191.624  0.00  0.00    +0.113 C 
ATOM      2  C   UNL     1     147.272 166.130 191.897  0.00  0.00    +0.020 C 
ATOM      3  C   UNL     1     145.874 166.733 192.270  0.00  0.00    +0.067 C 
ATOM      4  C   UNL     1     144.715 165.868 191.712  0.00  0.00    +0.003 C 
ATOM      5  C   UNL     1     143.961 166.518 190.525  0.00  0.00    +0.094 C 
ATOM      6  C   UNL     1     143.010 167.657 190.887  0.00  0.00    +0.145 C 
ATOM      7  C   UNL     1     142.117 167.507 192.118  0.00  0.00    +0.083 C 
ATOM      8  O   UNL     1     143.283 168.337 192.125  0.00  0.00    -0.363 OA
ATOM      9  C   UNL     1     142.463 168.521 189.745  0.00  0.00    +0.094 C 
ATOM     10  C   UNL     1     142.274 169.995 190.160  0.00  0.00    +0.003 C 
ATOM     11  C   UNL     1     141.508 170.923 189.204  0.00  0.00    +0.065 C 
ATOM     12  C   UNL     1     139.981 170.776 189.325  0.00  0.00    -0.008 C 
ATOM     13  C   UNL     1     139.297 171.665 188.334  0.00  0.00    -0.083 C 
ATOM     14  C   UNL     1     139.962 172.121 187.266  0.00  0.00    -0.059 C 
ATOM     15  C   UNL     1     141.393 171.752 186.949  0.00  0.00    +0.080 C 
ATOM     16  O   UNL     1     141.927 170.751 187.841  0.00  0.00    -0.369 OA
ATOM     17  C   UNL     1     142.317 172.981 186.931  0.00  0.00    +0.006 C 
ATOM     18  C   UNL     1     143.535 172.733 186.022  0.00  0.00    +0.090 C 
ATOM     19  C   UNL     1     144.823 173.382 186.587  0.00  0.00    +0.100 C 
ATOM     20  C   UNL     1     145.425 172.653 187.758  0.00  0.00    -0.051 C 
ATOM     21  C   UNL     1     145.961 171.414 187.790  0.00  0.00    -0.052 C 
ATOM     22  C   UNL     1     146.476 170.896 189.059  0.00  0.00    -0.052 C 
ATOM     23  C   UNL     1     147.000 169.676 189.242  0.00  0.00    +0.023 C 
ATOM     24  C   UNL     1     147.489 169.240 190.564  0.00  0.00    +0.332 C 
ATOM     25  O   UNL     1     147.521 169.919 191.576  0.00  0.00    -0.246 OA
ATOM     26  O   UNL     1     147.877 167.945 190.439  0.00  0.00    -0.458 OA
ATOM     27  H   UNL     1     148.350 167.921 192.491  0.00  0.00    +0.074 HD
ATOM     28  H   UNL     1     147.149 165.594 190.947  0.00  0.00    +0.036 HD
ATOM     29  H   UNL     1     145.769 167.755 191.892  0.00  0.00    +0.060 HD
ATOM     30  H   UNL     1     144.017 165.604 192.510  0.00  0.00    +0.032 HD
ATOM     31  H   UNL     1     145.119 164.910 191.363  0.00  0.00    +0.032 HD
ATOM     32  H   UNL     1     143.333 165.745 190.064  0.00  0.00    +0.063 HD
ATOM     33  H   UNL     1     142.133 166.595 192.696  0.00  0.00    +0.059 HD
ATOM     34  H   UNL     1     141.148 167.996 192.120  0.00  0.00    +0.059 HD
ATOM     35  H   UNL     1     143.162 168.515 188.899  0.00  0.00    +0.063 HD
ATOM     36  H   UNL     1     143.280 170.412 190.306  0.00  0.00    +0.032 HD
ATOM     37  H   UNL     1     141.776 170.063 191.134  0.00  0.00    +0.032 HD
ATOM     38  H   UNL     1     141.769 171.942 189.517  0.00  0.00    +0.060 HD
ATOM     39  H   UNL     1     139.665 171.044 190.340  0.00  0.00    +0.033 HD
ATOM     40  H   UNL     1     139.646 169.754 189.131  0.00  0.00    +0.033 HD
ATOM     41  H   UNL     1     138.257 171.925 188.500  0.00  0.00    +0.057 HD
ATOM     42  H   UNL     1     139.452 172.768 186.556  0.00  0.00    +0.059 HD
ATOM     43  H   UNL     1     141.380 171.290 185.955  0.00  0.00    +0.064 HD
ATOM     44  H   UNL     1     141.769 173.860 186.570  0.00  0.00    +0.032 HD
ATOM     45  H   UNL     1     142.648 173.200 187.951  0.00  0.00    +0.032 HD
ATOM     46  H   UNL     1     143.693 171.658 185.875  0.00  0.00    +0.063 HD
ATOM     47  H   UNL     1     144.604 174.415 186.889  0.00  0.00    +0.066 HD
ATOM     48  H   UNL     1     145.396 173.230 188.681  0.00  0.00    +0.060 HD
ATOM     49  H   UNL     1     146.419 171.567 189.915  0.00  0.00    +0.062 HD
ATOM     50  H   UNL     1     147.087 168.945 188.449  0.00  0.00    +0.069 HD
ENDROOT
BRANCH  21  51
ATOM     51  C   UNL     1     146.069 170.519 186.579  0.00  0.00    -0.040 C 
ATOM     52  H   UNL     1     145.201 169.854 186.519  0.00  0.00    +0.028 HD
ATOM     53  H   UNL     1     146.974 169.909 186.620  0.00  0.00    +0.028 HD
ATOM     54  H   UNL     1     146.128 171.065 185.635  0.00  0.00    +0.028 HD
ENDBRANCH  21  51
BRANCH   2  55
ATOM     55  C   UNL     1     147.734 165.116 192.954  0.00  0.00    -0.057 C 
ATOM     56  H   UNL     1     148.586 165.503 193.521  0.00  0.00    +0.023 HD
ATOM     57  H   UNL     1     146.949 164.899 193.682  0.00  0.00    +0.023 HD
ATOM     58  H   UNL     1     148.030 164.168 192.491  0.00  0.00    +0.023 HD
ENDBRANCH   2  55
BRANCH   1  59
ATOM     59  C   UNL     1     149.778 166.746 191.381  0.00  0.00    +0.020 C 
ATOM     60  H   UNL     1     149.898 165.820 191.956  0.00  0.00    +0.036 HD
BRANCH  59  61
ATOM     61  C   UNL     1     150.034 166.370 189.919  0.00  0.00    -0.057 C 
ATOM     62  H   UNL     1     150.489 165.379 189.835  0.00  0.00    +0.023 HD
ATOM     63  H   UNL     1     149.103 166.330 189.348  0.00  0.00    +0.023 HD
ATOM     64  H   UNL     1     150.674 167.101 189.423  0.00  0.00    +0.023 HD
ENDBRANCH  59  61
BRANCH  59  65
ATOM     65  C   UNL     1     150.838 167.737 191.952  0.00  0.00    +0.064 C 
ATOM     66  H   UNL     1     151.386 168.143 191.091  0.00  0.00    +0.060 HD
BRANCH  65  67
ATOM     67  C   UNL     1     151.879 167.209 192.988  0.00  0.00    -0.017 C 
ATOM     68  H   UNL     1     152.059 167.981 193.738  0.00  0.00    +0.032 HD
BRANCH  67  69
ATOM     69  C   UNL     1     151.240 166.020 193.729  0.00  0.00    -0.060 C 
ATOM     70  H   UNL     1     151.986 165.445 194.283  0.00  0.00    +0.023 HD
ATOM     71  H   UNL     1     150.736 165.335 193.034  0.00  0.00    +0.023 HD
ATOM     72  H   UNL     1     150.497 166.371 194.455  0.00  0.00    +0.023 HD
ENDBRANCH  67  69
BRANCH  67  73
ATOM     73  C   UNL     1     153.233 166.745 192.388  0.00  0.00    -0.046 C 
ATOM     74  H   UNL     1     153.987 166.661 193.173  0.00  0.00    +0.027 HD
ATOM     75  H   UNL     1     153.627 167.490 191.685  0.00  0.00    +0.027 HD
BRANCH  73  76
ATOM     76  C   UNL     1     153.188 165.380 191.674  0.00  0.00    -0.026 C 
ATOM     77  H   UNL     1     153.438 164.610 192.415  0.00  0.00    +0.029 HD
ATOM     78  H   UNL     1     152.166 165.178 191.339  0.00  0.00    +0.029 HD
BRANCH  76  83
ATOM     79  C   UNL     1     156.398 165.694 189.770  0.00  0.00    +0.059 C 
ATOM     80  C   UNL     1     155.864 166.159 188.415  0.00  0.00    -0.000 C 
ATOM     81  C   UNL     1     154.515 166.846 188.559  0.00  0.00    +0.063 C 
ATOM     82  C   UNL     1     153.541 165.885 189.234  0.00  0.00    -0.000 C 
ATOM     83  C   UNL     1     154.145 165.215 190.478  0.00  0.00    +0.061 C 
ATOM     84  O   UNL     1     155.408 165.794 190.801  0.00  0.00    -0.373 OA
ATOM     85  H   UNL     1     157.202 166.377 190.075  0.00  0.00    +0.059 HD
ATOM     86  H   UNL     1     156.589 166.837 187.941  0.00  0.00    +0.032 HD
ATOM     87  H   UNL     1     155.777 165.318 187.711  0.00  0.00    +0.032 HD
ATOM     88  H   UNL     1     154.635 167.752 189.167  0.00  0.00    +0.060 HD
ATOM     89  H   UNL     1     152.613 166.417 189.479  0.00  0.00    +0.032 HD
ATOM     90  H   UNL     1     153.225 165.106 188.526  0.00  0.00    +0.032 HD
ATOM     91  H   UNL     1     154.276 164.142 190.295  0.00  0.00    +0.060 HD
BRANCH  79  92
ATOM     92  C   UNL     1     157.006 164.295 189.700  0.00  0.00    -0.039 C 
ATOM     93  H   UNL     1     158.052 164.293 190.021  0.00  0.00    +0.025 HD
ATOM     94  H   UNL     1     156.453 163.604 190.342  0.00  0.00    +0.025 HD
ATOM     95  H   UNL     1     156.984 163.917 188.673  0.00  0.00    +0.025 HD
ENDBRANCH  79  92
BRANCH  81  96
ATOM     96  O   UNL     1     154.067 167.214 187.250  0.00  0.00    -0.380 OA
BRANCH  96  97
ATOM     97  C   UNL     1     155.060 167.039 186.244  0.00  0.00    +0.037 C 
ATOM     98  H   UNL     1     155.513 167.999 185.975  0.00  0.00    +0.052 HD
ATOM     99  H   UNL     1     155.840 166.389 186.647  0.00  0.00    +0.052 HD
ATOM    100  H   UNL     1     154.636 166.558 185.359  0.00  0.00    +0.052 HD
ENDBRANCH  96  97
ENDBRANCH  81  96
ENDBRANCH  76  83
ENDBRANCH  73  76
ENDBRANCH  67  73
ENDBRANCH  65  67
BRANCH  65 101
ATOM    101  O   UNL     1     150.152 168.861 192.527  0.00  0.00    -0.391 OA
ATOM    102  H   UNL     1     149.293 168.543 192.852  0.00  0.00    +0.210 HD
ENDBRANCH  65 101
ENDBRANCH  59  65
ENDBRANCH   1  59
BRANCH  19 103
ATOM    103  O   UNL     1     145.816 173.488 185.565  0.00  0.00    -0.385 OA
ATOM    104  H   UNL     1     146.254 172.617 185.560  0.00  0.00    +0.210 HD
ENDBRANCH  19 103
BRANCH  18 105
ATOM    105  O   UNL     1     143.254 173.359 184.744  0.00  0.00    -0.377 OA
BRANCH 105 106
ATOM    106  C   UNL     1     142.555 174.593 184.881  0.00  0.00    +0.037 C 
ATOM    107  H   UNL     1     142.958 175.342 184.191  0.00  0.00    +0.052 HD
ATOM    108  H   UNL     1     142.695 174.953 185.904  0.00  0.00    +0.052 HD
ATOM    109  H   UNL     1     141.485 174.449 184.704  0.00  0.00    +0.052 HD
ENDBRANCH 105 106
ENDBRANCH  18 105
BRANCH   9 110
ATOM    110  O   UNL     1     141.206 167.950 189.356  0.00  0.00    -0.377 OA
BRANCH 110 111
ATOM    111  C   UNL     1     141.274 167.293 188.099  0.00  0.00    +0.037 C 
ATOM    112  H   UNL     1     141.368 168.051 187.319  0.00  0.00    +0.052 HD
ATOM    113  H   UNL     1     140.361 166.718 187.920  0.00  0.00    +0.052 HD
ATOM    114  H   UNL     1     142.147 166.636 188.049  0.00  0.00    +0.052 HD
ENDBRANCH 110 111
ENDBRANCH   9 110
BRANCH   5 115
ATOM    115  O   UNL     1     144.915 166.992 189.561  0.00  0.00    -0.377 OA
BRANCH 115 116
ATOM    116  C   UNL     1     145.270 166.011 188.595  0.00  0.00    +0.037 C 
ATOM    117  H   UNL     1     144.801 166.238 187.632  0.00  0.00    +0.052 HD
ATOM    118  H   UNL     1     144.985 165.008 188.926  0.00  0.00    +0.052 HD
ATOM    119  H   UNL     1     146.355 166.041 188.465  0.00  0.00    +0.052 HD
ENDBRANCH 115 116
ENDBRANCH   5 115
BRANCH   3 120
ATOM    120  O   UNL     1     145.718 166.742 193.705  0.00  0.00    -0.379 OA
BRANCH 120 121
ATOM    121  C   UNL     1     144.709 165.854 194.169  0.00  0.00    +0.037 C 
ATOM    122  H   UNL     1     143.759 166.377 194.300  0.00  0.00    +0.052 HD
ATOM    123  H   UNL     1     144.587 165.009 193.486  0.00  0.00    +0.052 HD
ATOM    124  H   UNL     1     145.021 165.462 195.141  0.00  0.00    +0.052 HD
ENDBRANCH 120 121
ENDBRANCH   3 120
TORSDOF 23
ENDMDL
MODEL 3
REMARK VINA RESULT:      -5.9     25.375     29.638
REMARK  Name = Lobophorolide_conf2
REMARK  23 active torsions:
REMARK  status: ('A' for Active; 'I' for Inactive)
REMARK    1  A    between atoms: C_1  and  C_2
REMARK    2  A    between atoms: C_4  and  O_53
REMARK    3  A    between atoms: C_6  and  C_8
REMARK    4  A    between atoms: C_8  and  C_9
REMARK    5  A    between atoms: C_9  and  C_10
REMARK    6  A    between atoms: C_10  and  C_11
REMARK    7  A    between atoms: C_10  and  C_12
REMARK    8  A    between atoms: C_12  and  C_13
REMARK    9  A    between atoms: C_12  and  O_52
REMARK   10  A    between atoms: C_13  and  C_14
REMARK   11  A    between atoms: C_13  and  C_15
REMARK   12  A    between atoms: C_16  and  C_51
REMARK   13  A    between atoms: C_17  and  O_49
REMARK   14  A    between atoms: C_19  and  O_47
REMARK   15  A    between atoms: C_23  and  O_45
REMARK   16  A    between atoms: C_32  and  O_43
REMARK   17  A    between atoms: C_33  and  O_42
REMARK   18  A    between atoms: C_35  and  C_41
REMARK   19  A    between atoms: O_43  and  C_44
REMARK   20  A    between atoms: O_45  and  C_46
REMARK   21  A    between atoms: O_47  and  C_48
REMARK   22  A    between atoms: O_49  and  C_50
REMARK   23  A    between atoms: O_53  and  C_54
REMARK                            x       y       z     vdW  Elec       q    Type
REMARK                         _______ _______ _______ _____ _____    ______ ____
ROOT
ATOM      1  C   UNL     1     149.530 190.722 201.324  0.00  0.00    +0.113 C 
ATOM      2  C   UNL     1     148.873 191.994 200.708  0.00  0.00    +0.020 C 
ATOM      3  C   UNL     1     148.417 191.745 199.229  0.00  0.00    +0.067 C 
ATOM      4  C   UNL     1     147.109 192.509 198.901  0.00  0.00    +0.003 C 
ATOM      5  C   UNL     1     145.866 191.596 198.761  0.00  0.00    +0.094 C 
ATOM      6  C   UNL     1     145.781 190.786 197.469  0.00  0.00    +0.145 C 
ATOM      7  C   UNL     1     146.143 191.465 196.148  0.00  0.00    +0.083 C 
ATOM      8  O   UNL     1     147.028 190.543 196.794  0.00  0.00    -0.363 OA
ATOM      9  C   UNL     1     144.741 189.661 197.397  0.00  0.00    +0.094 C 
ATOM     10  C   UNL     1     145.231 188.458 196.565  0.00  0.00    +0.003 C 
ATOM     11  C   UNL     1     144.211 187.367 196.201  0.00  0.00    +0.065 C 
ATOM     12  C   UNL     1     143.337 187.746 194.994  0.00  0.00    -0.008 C 
ATOM     13  C   UNL     1     142.334 186.667 194.726  0.00  0.00    -0.083 C 
ATOM     14  C   UNL     1     142.015 185.789 195.684  0.00  0.00    -0.059 C 
ATOM     15  C   UNL     1     142.581 185.836 197.085  0.00  0.00    +0.080 C 
ATOM     16  O   UNL     1     143.394 187.004 197.325  0.00  0.00    -0.369 OA
ATOM     17  C   UNL     1     143.375 184.566 197.431  0.00  0.00    +0.006 C 
ATOM     18  C   UNL     1     143.381 184.325 198.951  0.00  0.00    +0.090 C 
ATOM     19  C   UNL     1     144.732 183.746 199.443  0.00  0.00    +0.100 C 
ATOM     20  C   UNL     1     145.854 184.748 199.498  0.00  0.00    -0.051 C 
ATOM     21  C   UNL     1     145.965 185.840 200.284  0.00  0.00    -0.052 C 
ATOM     22  C   UNL     1     147.150 186.691 200.153  0.00  0.00    -0.052 C 
ATOM     23  C   UNL     1     147.372 187.820 200.841  0.00  0.00    +0.023 C 
ATOM     24  C   UNL     1     148.598 188.616 200.635  0.00  0.00    +0.332 C 
ATOM     25  O   UNL     1     149.523 188.328 199.897  0.00  0.00    -0.246 OA
ATOM     26  O   UNL     1     148.487 189.726 201.409  0.00  0.00    -0.458 OA
ATOM     27  H   UNL     1     150.341 190.392 200.664  0.00  0.00    +0.074 HD
ATOM     28  H   UNL     1     147.967 192.182 201.297  0.00  0.00    +0.036 HD
ATOM     29  H   UNL     1     148.264 190.679 199.035  0.00  0.00    +0.060 HD
ATOM     30  H   UNL     1     147.238 193.121 198.005  0.00  0.00    +0.032 HD
ATOM     31  H   UNL     1     146.903 193.227 199.705  0.00  0.00    +0.032 HD
ATOM     32  H   UNL     1     144.976 192.238 198.765  0.00  0.00    +0.063 HD
ATOM     33  H   UNL     1     146.416 192.510 196.130  0.00  0.00    +0.059 HD
ATOM     34  H   UNL     1     145.645 191.139 195.241  0.00  0.00    +0.059 HD
ATOM     35  H   UNL     1     144.524 189.285 198.405  0.00  0.00    +0.063 HD
ATOM     36  H   UNL     1     146.043 187.989 197.138  0.00  0.00    +0.032 HD
ATOM     37  H   UNL     1     145.683 188.796 195.624  0.00  0.00    +0.032 HD
ATOM     38  H   UNL     1     144.811 186.493 195.916  0.00  0.00    +0.060 HD
ATOM     39  H   UNL     1     143.970 187.887 194.111  0.00  0.00    +0.033 HD
ATOM     40  H   UNL     1     142.782 188.673 195.157  0.00  0.00    +0.033 HD
ATOM     41  H   UNL     1     141.872 186.620 193.745  0.00  0.00    +0.057 HD
ATOM     42  H   UNL     1     141.287 185.010 195.473  0.00  0.00    +0.059 HD
ATOM     43  H   UNL     1     141.723 185.925 197.762  0.00  0.00    +0.064 HD
ATOM     44  H   UNL     1     142.935 183.696 196.928  0.00  0.00    +0.032 HD
ATOM     45  H   UNL     1     144.402 184.670 197.063  0.00  0.00    +0.032 HD
ATOM     46  H   UNL     1     143.155 185.253 199.489  0.00  0.00    +0.063 HD
ATOM     47  H   UNL     1     145.030 182.918 198.786  0.00  0.00    +0.066 HD
ATOM     48  H   UNL     1     146.654 184.533 198.792  0.00  0.00    +0.060 HD
ATOM     49  H   UNL     1     147.900 186.369 199.432  0.00  0.00    +0.062 HD
ATOM     50  H   UNL     1     146.677 188.216 201.570  0.00  0.00    +0.069 HD
ENDROOT
BRANCH  21  51
ATOM     51  C   UNL     1     144.930 186.242 201.308  0.00  0.00    -0.040 C 
ATOM     52  H   UNL     1     144.401 187.143 200.980  0.00  0.00    +0.028 HD
ATOM     53  H   UNL     1     145.394 186.443 202.277  0.00  0.00    +0.028 HD
ATOM     54  H   UNL     1     144.180 185.472 201.497  0.00  0.00    +0.028 HD
ENDBRANCH  21  51
BRANCH   2  55
ATOM     55  C   UNL     1     149.766 193.240 200.806  0.00  0.00    -0.057 C 
ATOM     56  H   UNL     1     150.820 192.978 200.664  0.00  0.00    +0.023 HD
ATOM     57  H   UNL     1     149.523 193.978 200.038  0.00  0.00    +0.023 HD
ATOM     58  H   UNL     1     149.661 193.727 201.782  0.00  0.00    +0.023 HD
ENDBRANCH   2  55
BRANCH   1  59
ATOM     59  C   UNL     1     150.140 190.916 202.747  0.00  0.00    +0.020 C 
ATOM     60  H   UNL     1     150.358 191.984 202.859  0.00  0.00    +0.036 HD
BRANCH  59  61
ATOM     61  C   UNL     1     149.153 190.566 203.863  0.00  0.00    -0.057 C 
ATOM     62  H   UNL     1     148.928 191.438 204.485  0.00  0.00    +0.023 HD
ATOM     63  H   UNL     1     148.198 190.222 203.458  0.00  0.00    +0.023 HD
ATOM     64  H   UNL     1     149.532 189.763 204.497  0.00  0.00    +0.023 HD
ENDBRANCH  59  61
BRANCH  59  65
ATOM     65  C   UNL     1     151.512 190.188 202.893  0.00  0.00    +0.064 C 
ATOM     66  H   UNL     1     151.387 189.435 203.682  0.00  0.00    +0.060 HD
BRANCH  65  67
ATOM     67  C   UNL     1     152.780 191.036 203.227  0.00  0.00    -0.017 C 
ATOM     68  H   UNL     1     153.608 190.363 203.454  0.00  0.00    +0.032 HD
BRANCH  67  69
ATOM     69  C   UNL     1     153.177 191.805 201.953  0.00  0.00    -0.060 C 
ATOM     70  H   UNL     1     153.973 192.527 202.153  0.00  0.00    +0.023 HD
ATOM     71  H   UNL     1     152.325 192.354 201.531  0.00  0.00    +0.023 HD
ATOM     72  H   UNL     1     153.549 191.116 201.185  0.00  0.00    +0.023 HD
ENDBRANCH  67  69
BRANCH  67  73
ATOM     73  C   UNL     1     152.608 192.055 204.385  0.00  0.00    -0.046 C 
ATOM     74  H   UNL     1     151.554 192.306 204.517  0.00  0.00    +0.027 HD
ATOM     75  H   UNL     1     153.106 193.005 204.150  0.00  0.00    +0.027 HD
BRANCH  73  76
ATOM     76  C   UNL     1     153.119 191.566 205.754  0.00  0.00    -0.026 C 
ATOM     77  H   UNL     1     154.074 191.051 205.588  0.00  0.00    +0.029 HD
ATOM     78  H   UNL     1     153.331 192.430 206.393  0.00  0.00    +0.029 HD
BRANCH  76  83
ATOM     79  C   UNL     1     150.775 190.471 208.462  0.00  0.00    +0.059 C 
ATOM     80  C   UNL     1     151.352 189.091 208.777  0.00  0.00    -0.000 C 
ATOM     81  C   UNL     1     152.822 189.005 208.393  0.00  0.00    +0.063 C 
ATOM     82  C   UNL     1     152.965 189.336 206.910  0.00  0.00    -0.000 C 
ATOM     83  C   UNL     1     152.188 190.603 206.514  0.00  0.00    +0.061 C 
ATOM     84  O   UNL     1     151.671 191.260 207.670  0.00  0.00    -0.373 OA
ATOM     85  H   UNL     1     150.665 191.020 209.406  0.00  0.00    +0.059 HD
ATOM     86  H   UNL     1     151.224 188.867 209.846  0.00  0.00    +0.032 HD
ATOM     87  H   UNL     1     150.790 188.297 208.262  0.00  0.00    +0.032 HD
ATOM     88  H   UNL     1     153.394 189.720 208.997  0.00  0.00    +0.060 HD
ATOM     89  H   UNL     1     154.028 189.426 206.657  0.00  0.00    +0.032 HD
ATOM     90  H   UNL     1     152.613 188.495 206.298  0.00  0.00    +0.032 HD
ATOM     91  H   UNL     1     151.359 190.337 205.849  0.00  0.00    +0.060 HD
BRANCH  79  92
ATOM     92  C   UNL     1     149.387 190.385 207.833  0.00  0.00    -0.039 C 
ATOM     93  H   UNL     1     149.277 189.487 207.218  0.00  0.00    +0.025 HD
ATOM     94  H   UNL     1     148.615 190.360 208.608  0.00  0.00    +0.025 HD
ATOM     95  H   UNL     1     149.205 191.246 207.182  0.00  0.00    +0.025 HD
ENDBRANCH  79  92
BRANCH  81  96
ATOM     96  O   UNL     1     153.275 187.677 208.680  0.00  0.00    -0.380 OA
BRANCH  96  97
ATOM     97  C   UNL     1     152.832 187.191 209.943  0.00  0.00    +0.037 C 
ATOM     98  H   UNL     1     151.933 187.723 210.270  0.00  0.00    +0.052 HD
ATOM     99  H   UNL     1     152.587 186.132 209.832  0.00  0.00    +0.052 HD
ATOM    100  H   UNL     1     153.622 187.282 210.693  0.00  0.00    +0.052 HD
ENDBRANCH  96  97
ENDBRANCH  81  96
ENDBRANCH  76  83
ENDBRANCH  73  76
ENDBRANCH  67  73
ENDBRANCH  65  67
BRANCH  65 101
ATOM    101  O   UNL     1     151.766 189.441 201.693  0.00  0.00    -0.391 OA
ATOM    102  H   UNL     1     150.993 189.551 201.113  0.00  0.00    +0.210 HD
ENDBRANCH  65 101
ENDBRANCH  59  65
ENDBRANCH   1  59
BRANCH  19 103
ATOM    103  O   UNL     1     144.582 183.166 200.740  0.00  0.00    -0.385 OA
ATOM    104  H   UNL     1     145.382 183.443 201.225  0.00  0.00    +0.210 HD
ENDBRANCH  19 103
BRANCH  18 105
ATOM    105  O   UNL     1     142.355 183.339 199.236  0.00  0.00    -0.377 OA
BRANCH 105 106
ATOM    106  C   UNL     1     141.248 183.892 199.943  0.00  0.00    +0.037 C 
ATOM    107  H   UNL     1     140.769 183.129 200.565  0.00  0.00    +0.052 HD
ATOM    108  H   UNL     1     140.519 184.250 199.211  0.00  0.00    +0.052 HD
ATOM    109  H   UNL     1     141.570 184.738 200.558  0.00  0.00    +0.052 HD
ENDBRANCH 105 106
ENDBRANCH  18 105
BRANCH   9 110
ATOM    110  O   UNL     1     143.560 190.224 196.810  0.00  0.00    -0.377 OA
BRANCH 110 111
ATOM    111  C   UNL     1     142.519 190.410 197.757  0.00  0.00    +0.037 C 
ATOM    112  H   UNL     1     141.725 190.995 197.287  0.00  0.00    +0.052 HD
ATOM    113  H   UNL     1     142.889 190.960 198.627  0.00  0.00    +0.052 HD
ATOM    114  H   UNL     1     142.100 189.450 198.071  0.00  0.00    +0.052 HD
ENDBRANCH 110 111
ENDBRANCH   9 110
BRANCH   5 115
ATOM    115  O   UNL     1     145.809 190.699 199.882  0.00  0.00    -0.377 OA
BRANCH 115 116
ATOM    116  C   UNL     1     145.105 191.235 200.994  0.00  0.00    +0.037 C 
ATOM    117  H   UNL     1     145.008 192.321 200.896  0.00  0.00    +0.052 HD
ATOM    118  H   UNL     1     145.604 190.986 201.935  0.00  0.00    +0.052 HD
ATOM    119  H   UNL     1     144.103 190.799 201.003  0.00  0.00    +0.052 HD
ENDBRANCH 115 116
ENDBRANCH   5 115
BRANCH   3 120
ATOM    120  O   UNL     1     149.419 192.250 198.321  0.00  0.00    -0.379 OA
BRANCH 120 121
ATOM    121  C   UNL     1     150.207 191.228 197.723  0.00  0.00    +0.037 C 
ATOM    122  H   UNL     1     151.010 190.914 198.392  0.00  0.00    +0.052 HD
ATOM    123  H   UNL     1     149.588 190.372 197.442  0.00  0.00    +0.052 HD
ATOM    124  H   UNL     1     150.658 191.634 196.814  0.00  0.00    +0.052 HD
ENDBRANCH 120 121
ENDBRANCH   3 120
TORSDOF 23
ENDMDL
MODEL 4
REMARK VINA RESULT:      -5.8     30.357     34.050
REMARK  Name = Lobophorolide_conf2
REMARK  23 active torsions:
REMARK  status: ('A' for Active; 'I' for Inactive)
REMARK    1  A    between atoms: C_1  and  C_2
REMARK    2  A    between atoms: C_4  and  O_53
REMARK    3  A    between atoms: C_6  and  C_8
REMARK    4  A    between atoms: C_8  and  C_9
REMARK    5  A    between atoms: C_9  and  C_10
REMARK    6  A    between atoms: C_10  and  C_11
REMARK    7  A    between atoms: C_10  and  C_12
REMARK    8  A    between atoms: C_12  and  C_13
REMARK    9  A    between atoms: C_12  and  O_52
REMARK   10  A    between atoms: C_13  and  C_14
REMARK   11  A    between atoms: C_13  and  C_15
REMARK   12  A    between atoms: C_16  and  C_51
REMARK   13  A    between atoms: C_17  and  O_49
REMARK   14  A    between atoms: C_19  and  O_47
REMARK   15  A    between atoms: C_23  and  O_45
REMARK   16  A    between atoms: C_32  and  O_43
REMARK   17  A    between atoms: C_33  and  O_42
REMARK   18  A    between atoms: C_35  and  C_41
REMARK   19  A    between atoms: O_43  and  C_44
REMARK   20  A    between atoms: O_45  and  C_46
REMARK   21  A    between atoms: O_47  and  C_48
REMARK   22  A    between atoms: O_49  and  C_50
REMARK   23  A    between atoms: O_53  and  C_54
REMARK                            x       y       z     vdW  Elec       q    Type
REMARK                         _______ _______ _______ _____ _____    ______ ____
ROOT
ATOM      1  C   UNL     1     149.999 189.428 211.999  0.00  0.00    +0.113 C 
ATOM      2  C   UNL     1     151.534 189.695 211.964  0.00  0.00    +0.020 C 
ATOM      3  C   UNL     1     152.179 189.162 210.639  0.00  0.00    +0.067 C 
ATOM      4  C   UNL     1     153.333 190.080 210.160  0.00  0.00    +0.003 C 
ATOM      5  C   UNL     1     152.990 190.915 208.900  0.00  0.00    +0.094 C 
ATOM      6  C   UNL     1     152.978 190.148 207.580  0.00  0.00    +0.145 C 
ATOM      7  C   UNL     1     154.087 189.132 207.307  0.00  0.00    +0.083 C 
ATOM      8  O   UNL     1     152.764 188.729 207.676  0.00  0.00    -0.363 OA
ATOM      9  C   UNL     1     152.371 190.843 206.356  0.00  0.00    +0.094 C 
ATOM     10  C   UNL     1     151.649 189.856 205.415  0.00  0.00    +0.003 C 
ATOM     11  C   UNL     1     151.207 190.365 204.033  0.00  0.00    +0.065 C 
ATOM     12  C   UNL     1     152.354 190.381 203.008  0.00  0.00    -0.008 C 
ATOM     13  C   UNL     1     151.871 190.934 201.704  0.00  0.00    -0.083 C 
ATOM     14  C   UNL     1     150.763 191.683 201.657  0.00  0.00    -0.059 C 
ATOM     15  C   UNL     1     149.959 192.065 202.879  0.00  0.00    +0.080 C 
ATOM     16  O   UNL     1     150.581 191.655 204.114  0.00  0.00    -0.369 OA
ATOM     17  C   UNL     1     148.520 191.527 202.815  0.00  0.00    +0.006 C 
ATOM     18  C   UNL     1     147.573 192.404 203.655  0.00  0.00    +0.090 C 
ATOM     19  C   UNL     1     146.481 191.566 204.365  0.00  0.00    +0.100 C 
ATOM     20  C   UNL     1     146.972 190.784 205.554  0.00  0.00    -0.051 C 
ATOM     21  C   UNL     1     147.458 191.254 206.723  0.00  0.00    -0.052 C 
ATOM     22  C   UNL     1     147.899 190.299 207.742  0.00  0.00    -0.052 C 
ATOM     23  C   UNL     1     148.433 190.624 208.928  0.00  0.00    +0.023 C 
ATOM     24  C   UNL     1     148.854 189.588 209.891  0.00  0.00    +0.332 C 
ATOM     25  O   UNL     1     148.722 188.384 209.752  0.00  0.00    -0.246 OA
ATOM     26  O   UNL     1     149.422 190.229 210.944  0.00  0.00    -0.458 OA
ATOM     27  H   UNL     1     149.826 188.359 211.825  0.00  0.00    +0.074 HD
ATOM     28  H   UNL     1     151.650 190.786 211.964  0.00  0.00    +0.036 HD
ATOM     29  H   UNL     1     151.435 189.080 209.841  0.00  0.00    +0.060 HD
ATOM     30  H   UNL     1     154.242 189.496 209.996  0.00  0.00    +0.032 HD
ATOM     31  H   UNL     1     153.589 190.782 210.962  0.00  0.00    +0.032 HD
ATOM     32  H   UNL     1     153.765 191.684 208.788  0.00  0.00    +0.063 HD
ATOM     33  H   UNL     1     154.884 188.991 208.022  0.00  0.00    +0.059 HD
ATOM     34  H   UNL     1     154.400 188.966 206.281  0.00  0.00    +0.059 HD
ATOM     35  H   UNL     1     151.625 191.583 206.674  0.00  0.00    +0.063 HD
ATOM     36  H   UNL     1     150.756 189.506 205.951  0.00  0.00    +0.032 HD
ATOM     37  H   UNL     1     152.264 188.965 205.242  0.00  0.00    +0.032 HD
ATOM     38  H   UNL     1     150.459 189.642 203.684  0.00  0.00    +0.060 HD
ATOM     39  H   UNL     1     152.729 189.362 202.860  0.00  0.00    +0.033 HD
ATOM     40  H   UNL     1     153.194 191.000 203.334  0.00  0.00    +0.033 HD
ATOM     41  H   UNL     1     152.440 190.718 200.806  0.00  0.00    +0.057 HD
ATOM     42  H   UNL     1     150.424 192.076 200.702  0.00  0.00    +0.059 HD
ATOM     43  H   UNL     1     149.937 193.161 202.904  0.00  0.00    +0.064 HD
ATOM     44  H   UNL     1     148.169 191.508 201.776  0.00  0.00    +0.032 HD
ATOM     45  H   UNL     1     148.503 190.496 203.183  0.00  0.00    +0.032 HD
ATOM     46  H   UNL     1     148.139 192.982 204.395  0.00  0.00    +0.063 HD
ATOM     47  H   UNL     1     146.036 190.867 203.643  0.00  0.00    +0.066 HD
ATOM     48  H   UNL     1     146.919 189.707 205.409  0.00  0.00    +0.060 HD
ATOM     49  H   UNL     1     147.779 189.244 207.502  0.00  0.00    +0.062 HD
ATOM     50  H   UNL     1     148.595 191.646 209.244  0.00  0.00    +0.069 HD
ENDROOT
BRANCH  21  51
ATOM     51  C   UNL     1     147.574 192.723 207.050  0.00  0.00    -0.040 C 
ATOM     52  H   UNL     1     147.306 193.329 206.179  0.00  0.00    +0.028 HD
ATOM     53  H   UNL     1     148.593 192.979 207.353  0.00  0.00    +0.028 HD
ATOM     54  H   UNL     1     146.936 193.039 207.877  0.00  0.00    +0.028 HD
ENDBRANCH  21  51
BRANCH   2  55
ATOM     55  C   UNL     1     152.269 189.143 213.195  0.00  0.00    -0.057 C 
ATOM     56  H   UNL     1     151.733 188.289 213.620  0.00  0.00    +0.023 HD
ATOM     57  H   UNL     1     153.272 188.788 212.946  0.00  0.00    +0.023 HD
ATOM     58  H   UNL     1     152.370 189.909 213.973  0.00  0.00    +0.023 HD
ENDBRANCH   2  55
BRANCH   1  59
ATOM     59  C   UNL     1     149.293 189.799 213.340  0.00  0.00    +0.020 C 
ATOM     60  H   UNL     1     150.050 189.733 214.130  0.00  0.00    +0.036 HD
BRANCH  59  61
ATOM     61  C   UNL     1     148.788 191.244 213.358  0.00  0.00    -0.057 C 
ATOM     62  H   UNL     1     147.994 191.380 214.099  0.00  0.00    +0.023 HD
ATOM     63  H   UNL     1     149.583 191.942 213.628  0.00  0.00    +0.023 HD
ATOM     64  H   UNL     1     148.419 191.553 212.378  0.00  0.00    +0.023 HD
ENDBRANCH  59  61
BRANCH  59  65
ATOM     65  C   UNL     1     148.192 188.762 213.723  0.00  0.00    +0.064 C 
ATOM     66  H   UNL     1     147.237 189.302 213.724  0.00  0.00    +0.060 HD
BRANCH  65  67
ATOM     67  C   UNL     1     148.322 187.995 215.076  0.00  0.00    -0.017 C 
ATOM     68  H   UNL     1     147.348 187.975 215.568  0.00  0.00    +0.032 HD
BRANCH  67  69
ATOM     69  C   UNL     1     148.680 186.533 214.754  0.00  0.00    -0.060 C 
ATOM     70  H   UNL     1     148.680 186.348 213.677  0.00  0.00    +0.023 HD
ATOM     71  H   UNL     1     147.971 185.833 215.216  0.00  0.00    +0.023 HD
ATOM     72  H   UNL     1     149.683 186.290 215.124  0.00  0.00    +0.023 HD
ENDBRANCH  67  69
BRANCH  67  73
ATOM     73  C   UNL     1     149.385 188.559 216.057  0.00  0.00    -0.046 C 
ATOM     74  H   UNL     1     148.951 189.350 216.673  0.00  0.00    +0.027 HD
ATOM     75  H   UNL     1     150.209 189.035 215.511  0.00  0.00    +0.027 HD
BRANCH  73  76
ATOM     76  C   UNL     1     149.980 187.522 217.028  0.00  0.00    -0.026 C 
ATOM     77  H   UNL     1     149.301 187.444 217.887  0.00  0.00    +0.029 HD
ATOM     78  H   UNL     1     149.996 186.539 216.546  0.00  0.00    +0.029 HD
BRANCH  76  83
ATOM     79  C   UNL     1     153.114 189.516 217.503  0.00  0.00    +0.059 C 
ATOM     80  C   UNL     1     154.163 188.420 217.310  0.00  0.00    -0.000 C 
ATOM     81  C   UNL     1     153.618 187.275 216.469  0.00  0.00    +0.063 C 
ATOM     82  C   UNL     1     152.364 186.724 217.140  0.00  0.00    -0.000 C 
ATOM     83  C   UNL     1     151.389 187.834 217.565  0.00  0.00    +0.061 C 
ATOM     84  O   UNL     1     151.816 189.100 217.064  0.00  0.00    -0.373 OA
ATOM     85  H   UNL     1     153.379 190.363 216.857  0.00  0.00    +0.059 HD
ATOM     86  H   UNL     1     155.063 188.843 216.840  0.00  0.00    +0.032 HD
ATOM     87  H   UNL     1     154.517 188.032 218.277  0.00  0.00    +0.032 HD
ATOM     88  H   UNL     1     153.378 187.648 215.466  0.00  0.00    +0.060 HD
ATOM     89  H   UNL     1     151.879 186.002 216.471  0.00  0.00    +0.032 HD
ATOM     90  H   UNL     1     152.637 186.129 218.023  0.00  0.00    +0.032 HD
ATOM     91  H   UNL     1     151.333 187.879 218.659  0.00  0.00    +0.060 HD
BRANCH  79  92
ATOM     92  C   UNL     1     153.088 190.041 218.936  0.00  0.00    -0.039 C 
ATOM     93  H   UNL     1     153.932 190.707 219.138  0.00  0.00    +0.025 HD
ATOM     94  H   UNL     1     152.165 190.596 219.125  0.00  0.00    +0.025 HD
ATOM     95  H   UNL     1     153.154 189.214 219.651  0.00  0.00    +0.025 HD
ENDBRANCH  79  92
BRANCH  81  96
ATOM     96  O   UNL     1     154.641 186.278 216.368  0.00  0.00    -0.380 OA
BRANCH  96  97
ATOM     97  C   UNL     1     155.831 186.617 217.074  0.00  0.00    +0.037 C 
ATOM     98  H   UNL     1     156.221 187.582 216.735  0.00  0.00    +0.052 HD
ATOM     99  H   UNL     1     155.584 186.696 218.136  0.00  0.00    +0.052 HD
ATOM    100  H   UNL     1     156.588 185.837 216.956  0.00  0.00    +0.052 HD
ENDBRANCH  96  97
ENDBRANCH  81  96
ENDBRANCH  76  83
ENDBRANCH  73  76
ENDBRANCH  67  73
ENDBRANCH  65  67
BRANCH  65 101
ATOM    101  O   UNL     1     148.081 187.799 212.662  0.00  0.00    -0.391 OA
ATOM    102  H   UNL     1     147.171 187.843 212.323  0.00  0.00    +0.210 HD
ENDBRANCH  65 101
ENDBRANCH  59  65
ENDBRANCH   1  59
BRANCH  19 103
ATOM    103  O   UNL     1     145.406 192.406 204.791  0.00  0.00    -0.385 OA
ATOM    104  H   UNL     1     144.630 192.077 204.300  0.00  0.00    +0.210 HD
ENDBRANCH  19 103
BRANCH  18 105
ATOM    105  O   UNL     1     146.903 193.312 202.743  0.00  0.00    -0.377 OA
BRANCH 105 106
ATOM    106  C   UNL     1     146.597 192.703 201.491  0.00  0.00    +0.037 C 
ATOM    107  H   UNL     1     145.845 193.288 200.952  0.00  0.00    +0.052 HD
ATOM    108  H   UNL     1     146.188 191.708 201.687  0.00  0.00    +0.052 HD
ATOM    109  H   UNL     1     147.502 192.596 200.886  0.00  0.00    +0.052 HD
ENDBRANCH 105 106
ENDBRANCH  18 105
BRANCH   9 110
ATOM    110  O   UNL     1     153.450 191.488 205.665  0.00  0.00    -0.377 OA
BRANCH 110 111
ATOM    111  C   UNL     1     153.431 192.899 205.826  0.00  0.00    +0.037 C 
ATOM    112  H   UNL     1     154.036 193.155 206.699  0.00  0.00    +0.052 HD
ATOM    113  H   UNL     1     152.408 193.249 205.996  0.00  0.00    +0.052 HD
ATOM    114  H   UNL     1     153.858 193.397 204.952  0.00  0.00    +0.052 HD
ENDBRANCH 110 111
ENDBRANCH   9 110
BRANCH   5 115
ATOM    115  O   UNL     1     151.715 191.550 209.087  0.00  0.00    -0.377 OA
BRANCH 115 116
ATOM    116  C   UNL     1     151.809 192.825 209.708  0.00  0.00    +0.037 C 
ATOM    117  H   UNL     1     152.738 192.902 210.280  0.00  0.00    +0.052 HD
ATOM    118  H   UNL     1     150.949 193.011 210.359  0.00  0.00    +0.052 HD
ATOM    119  H   UNL     1     151.823 193.584 208.922  0.00  0.00    +0.052 HD
ENDBRANCH 115 116
ENDBRANCH   5 115
BRANCH   3 120
ATOM    120  O   UNL     1     152.765 187.864 210.873  0.00  0.00    -0.379 OA
BRANCH 120 121
ATOM    121  C   UNL     1     152.006 186.794 210.323  0.00  0.00    +0.037 C 
ATOM    122  H   UNL     1     151.609 186.152 211.113  0.00  0.00    +0.052 HD
ATOM    123  H   UNL     1     151.195 187.173 209.696  0.00  0.00    +0.052 HD
ATOM    124  H   UNL     1     152.670 186.193 209.696  0.00  0.00    +0.052 HD
ENDBRANCH 120 121
ENDBRANCH   3 120
TORSDOF 23
ENDMDL
MODEL 5
REMARK VINA RESULT:      -5.7      6.802     12.878
REMARK  Name = Lobophorolide_conf2
REMARK  23 active torsions:
REMARK  status: ('A' for Active; 'I' for Inactive)
REMARK    1  A    between atoms: C_1  and  C_2
REMARK    2  A    between atoms: C_4  and  O_53
REMARK    3  A    between atoms: C_6  and  C_8
REMARK    4  A    between atoms: C_8  and  C_9
REMARK    5  A    between atoms: C_9  and  C_10
REMARK    6  A    between atoms: C_10  and  C_11
REMARK    7  A    between atoms: C_10  and  C_12
REMARK    8  A    between atoms: C_12  and  C_13
REMARK    9  A    between atoms: C_12  and  O_52
REMARK   10  A    between atoms: C_13  and  C_14
REMARK   11  A    between atoms: C_13  and  C_15
REMARK   12  A    between atoms: C_16  and  C_51
REMARK   13  A    between atoms: C_17  and  O_49
REMARK   14  A    between atoms: C_19  and  O_47
REMARK   15  A    between atoms: C_23  and  O_45
REMARK   16  A    between atoms: C_32  and  O_43
REMARK   17  A    between atoms: C_33  and  O_42
REMARK   18  A    between atoms: C_35  and  C_41
REMARK   19  A    between atoms: O_43  and  C_44
REMARK   20  A    between atoms: O_45  and  C_46
REMARK   21  A    between atoms: O_47  and  C_48
REMARK   22  A    between atoms: O_49  and  C_50
REMARK   23  A    between atoms: O_53  and  C_54
REMARK                            x       y       z     vdW  Elec       q    Type
REMARK                         _______ _______ _______ _____ _____    ______ ____
ROOT
ATOM      1  C   UNL     1     158.779 169.115 183.248  0.00  0.00    +0.113 C 
ATOM      2  C   UNL     1     160.070 169.859 182.792  0.00  0.00    +0.020 C 
ATOM      3  C   UNL     1     159.936 170.399 181.327  0.00  0.00    +0.067 C 
ATOM      4  C   UNL     1     160.667 171.754 181.151  0.00  0.00    +0.003 C 
ATOM      5  C   UNL     1     159.716 172.967 181.002  0.00  0.00    +0.094 C 
ATOM      6  C   UNL     1     159.023 173.103 179.648  0.00  0.00    +0.145 C 
ATOM      7  C   UNL     1     159.834 172.853 178.377  0.00  0.00    +0.083 C 
ATOM      8  O   UNL     1     158.897 171.894 178.879  0.00  0.00    -0.363 OA
ATOM      9  C   UNL     1     157.864 174.102 179.536  0.00  0.00    +0.094 C 
ATOM     10  C   UNL     1     156.764 173.620 178.567  0.00  0.00    +0.003 C 
ATOM     11  C   UNL     1     155.665 174.618 178.167  0.00  0.00    +0.065 C 
ATOM     12  C   UNL     1     156.112 175.582 177.055  0.00  0.00    -0.008 C 
ATOM     13  C   UNL     1     155.019 176.558 176.749  0.00  0.00    -0.083 C 
ATOM     14  C   UNL     1     154.045 176.780 177.639  0.00  0.00    -0.059 C 
ATOM     15  C   UNL     1     153.990 176.128 179.001  0.00  0.00    +0.080 C 
ATOM     16  O   UNL     1     155.167 175.346 179.299  0.00  0.00    -0.369 OA
ATOM     17  C   UNL     1     152.731 175.264 179.180  0.00  0.00    +0.006 C 
ATOM     18  C   UNL     1     152.354 175.151 180.668  0.00  0.00    +0.090 C 
ATOM     19  C   UNL     1     151.794 173.751 181.022  0.00  0.00    +0.100 C 
ATOM     20  C   UNL     1     152.836 172.667 181.102  0.00  0.00    -0.051 C 
ATOM     21  C   UNL     1     153.857 172.548 181.978  0.00  0.00    -0.052 C 
ATOM     22  C   UNL     1     154.768 171.408 181.854  0.00  0.00    -0.052 C 
ATOM     23  C   UNL     1     155.839 171.186 182.629  0.00  0.00    +0.023 C 
ATOM     24  C   UNL     1     156.704 170.008 182.424  0.00  0.00    +0.332 C 
ATOM     25  O   UNL     1     156.525 169.121 181.607  0.00  0.00    -0.246 OA
ATOM     26  O   UNL     1     157.734 170.111 183.303  0.00  0.00    -0.458 OA
ATOM     27  H   UNL     1     158.546 168.336 182.512  0.00  0.00    +0.074 HD
ATOM     28  H   UNL     1     160.164 170.732 183.451  0.00  0.00    +0.036 HD
ATOM     29  H   UNL     1     158.886 170.523 181.045  0.00  0.00    +0.060 HD
ATOM     30  H   UNL     1     161.362 171.707 180.309  0.00  0.00    +0.032 HD
ATOM     31  H   UNL     1     161.300 171.936 182.029  0.00  0.00    +0.032 HD
ATOM     32  H   UNL     1     160.316 173.879 181.119  0.00  0.00    +0.063 HD
ATOM     33  H   UNL     1     160.887 172.623 178.439  0.00  0.00    +0.059 HD
ATOM     34  H   UNL     1     159.568 173.396 177.475  0.00  0.00    +0.059 HD
ATOM     35  H   UNL     1     157.389 174.239 180.516  0.00  0.00    +0.063 HD
ATOM     36  H   UNL     1     156.282 172.756 179.044  0.00  0.00    +0.032 HD
ATOM     37  H   UNL     1     157.204 173.243 177.637  0.00  0.00    +0.032 HD
ATOM     38  H   UNL     1     154.848 174.004 177.767  0.00  0.00    +0.060 HD
ATOM     39  H   UNL     1     156.360 175.013 176.152  0.00  0.00    +0.033 HD
ATOM     40  H   UNL     1     156.996 176.161 177.337  0.00  0.00    +0.033 HD
ATOM     41  H   UNL     1     155.039 177.080 175.798  0.00  0.00    +0.057 HD
ATOM     42  H   UNL     1     153.256 177.490 177.402  0.00  0.00    +0.059 HD
ATOM     43  H   UNL     1     153.980 176.943 179.734  0.00  0.00    +0.064 HD
ATOM     44  H   UNL     1     151.891 175.702 178.626  0.00  0.00    +0.032 HD
ATOM     45  H   UNL     1     152.913 174.269 178.762  0.00  0.00    +0.032 HD
ATOM     46  H   UNL     1     153.219 175.378 181.303  0.00  0.00    +0.063 HD
ATOM     47  H   UNL     1     151.043 173.464 180.274  0.00  0.00    +0.066 HD
ATOM     48  H   UNL     1     152.721 171.906 180.332  0.00  0.00    +0.060 HD
ATOM     49  H   UNL     1     154.546 170.694 181.063  0.00  0.00    +0.062 HD
ATOM     50  H   UNL     1     156.136 171.847 183.432  0.00  0.00    +0.069 HD
ENDROOT
BRANCH  21  51
ATOM     51  C   UNL     1     154.118 173.529 183.095  0.00  0.00    -0.040 C 
ATOM     52  H   UNL     1     153.317 173.480 183.839  0.00  0.00    +0.028 HD
ATOM     53  H   UNL     1     154.178 174.552 182.713  0.00  0.00    +0.028 HD
ATOM     54  H   UNL     1     155.061 173.357 183.616  0.00  0.00    +0.028 HD
ENDBRANCH  21  51
BRANCH   2  55
ATOM     55  C   UNL     1     161.341 169.010 182.951  0.00  0.00    -0.057 C 
ATOM     56  H   UNL     1     162.153 169.400 182.328  0.00  0.00    +0.023 HD
ATOM     57  H   UNL     1     161.709 169.015 183.980  0.00  0.00    +0.023 HD
ATOM     58  H   UNL     1     161.159 167.967 182.667  0.00  0.00    +0.023 HD
ENDBRANCH   2  55
BRANCH   1  59
ATOM     59  C   UNL     1     158.871 168.423 184.642  0.00  0.00    +0.020 C 
ATOM     60  H   UNL     1     159.737 167.752 184.611  0.00  0.00    +0.036 HD
BRANCH  59  61
ATOM     61  C   UNL     1     159.145 169.415 185.775  0.00  0.00    -0.057 C 
ATOM     62  H   UNL     1     158.263 170.025 185.993  0.00  0.00    +0.023 HD
ATOM     63  H   UNL     1     159.400 168.900 186.704  0.00  0.00    +0.023 HD
ATOM     64  H   UNL     1     159.984 170.072 185.539  0.00  0.00    +0.023 HD
ENDBRANCH  59  61
BRANCH  59  65
ATOM     65  C   UNL     1     157.638 167.506 184.917  0.00  0.00    +0.064 C 
ATOM     66  H   UNL     1     157.898 166.880 185.781  0.00  0.00    +0.060 HD
BRANCH  65  67
ATOM     67  C   UNL     1     157.128 166.573 183.775  0.00  0.00    -0.017 C 
ATOM     68  H   UNL     1     157.443 166.982 182.814  0.00  0.00    +0.032 HD
BRANCH  67  69
ATOM     69  C   UNL     1     157.838 165.215 183.927  0.00  0.00    -0.060 C 
ATOM     70  H   UNL     1     158.183 165.055 184.952  0.00  0.00    +0.023 HD
ATOM     71  H   UNL     1     158.710 165.140 183.264  0.00  0.00    +0.023 HD
ATOM     72  H   UNL     1     157.156 164.392 183.682  0.00  0.00    +0.023 HD
ENDBRANCH  67  69
BRANCH  67  73
ATOM     73  C   UNL     1     155.595 166.328 183.756  0.00  0.00    -0.046 C 
ATOM     74  H   UNL     1     155.243 166.210 182.729  0.00  0.00    +0.027 HD
ATOM     75  H   UNL     1     155.053 167.196 184.152  0.00  0.00    +0.027 HD
BRANCH  73  76
ATOM     76  C   UNL     1     155.133 165.075 184.526  0.00  0.00    -0.026 C 
ATOM     77  H   UNL     1     154.336 164.601 183.939  0.00  0.00    +0.029 HD
ATOM     78  H   UNL     1     155.957 164.357 184.580  0.00  0.00    +0.029 HD
BRANCH  76  83
ATOM     79  C   UNL     1     153.789 167.070 187.396  0.00  0.00    +0.059 C 
ATOM     80  C   UNL     1     154.626 166.495 188.540  0.00  0.00    -0.000 C 
ATOM     81  C   UNL     1     155.935 165.912 188.028  0.00  0.00    +0.063 C 
ATOM     82  C   UNL     1     155.624 164.845 186.983  0.00  0.00    -0.000 C 
ATOM     83  C   UNL     1     154.593 165.320 185.947  0.00  0.00    +0.061 C 
ATOM     84  O   UNL     1     154.314 166.710 186.113  0.00  0.00    -0.373 OA
ATOM     85  H   UNL     1     153.857 168.165 187.438  0.00  0.00    +0.059 HD
ATOM     86  H   UNL     1     154.823 167.277 189.288  0.00  0.00    +0.032 HD
ATOM     87  H   UNL     1     154.069 165.723 189.092  0.00  0.00    +0.032 HD
ATOM     88  H   UNL     1     156.537 166.714 187.583  0.00  0.00    +0.060 HD
ATOM     89  H   UNL     1     156.555 164.525 186.499  0.00  0.00    +0.032 HD
ATOM     90  H   UNL     1     155.248 163.934 187.470  0.00  0.00    +0.032 HD
ATOM     91  H   UNL     1     153.664 164.750 186.059  0.00  0.00    +0.060 HD
BRANCH  79  92
ATOM     92  C   UNL     1     152.311 166.711 187.527  0.00  0.00    -0.039 C 
ATOM     93  H   UNL     1     152.096 165.726 187.103  0.00  0.00    +0.025 HD
ATOM     94  H   UNL     1     152.011 166.700 188.579  0.00  0.00    +0.025 HD
ATOM     95  H   UNL     1     151.690 167.435 186.990  0.00  0.00    +0.025 HD
ENDBRANCH  79  92
BRANCH  81  96
ATOM     96  O   UNL     1     156.638 165.361 189.148  0.00  0.00    -0.380 OA
BRANCH  96  97
ATOM     97  C   UNL     1     156.453 166.102 190.350  0.00  0.00    +0.037 C 
ATOM     98  H   UNL     1     155.453 165.929 190.761  0.00  0.00    +0.052 HD
ATOM     99  H   UNL     1     157.191 165.757 191.078  0.00  0.00    +0.052 HD
ATOM    100  H   UNL     1     156.614 167.169 190.177  0.00  0.00    +0.052 HD
ENDBRANCH  96  97
ENDBRANCH  81  96
ENDBRANCH  76  83
ENDBRANCH  73  76
ENDBRANCH  67  73
ENDBRANCH  65  67
BRANCH  65 101
ATOM    101  O   UNL     1     156.546 168.327 185.359  0.00  0.00    -0.391 OA
ATOM    102  H   UNL     1     156.885 169.232 185.463  0.00  0.00    +0.210 HD
ENDBRANCH  65 101
ENDBRANCH  59  65
ENDBRANCH   1  59
BRANCH  19 103
ATOM    103  O   UNL     1     151.094 173.794 182.266  0.00  0.00    -0.385 OA
ATOM    104  H   UNL     1     151.791 173.701 182.942  0.00  0.00    +0.210 HD
ENDBRANCH  19 103
BRANCH  18 105
ATOM    105  O   UNL     1     151.303 176.119 180.922  0.00  0.00    -0.377 OA
BRANCH 105 106
ATOM    106  C   UNL     1     150.388 176.230 179.835  0.00  0.00    +0.037 C 
ATOM    107  H   UNL     1     150.005 175.244 179.552  0.00  0.00    +0.052 HD
ATOM    108  H   UNL     1     150.924 176.652 178.980  0.00  0.00    +0.052 HD
ATOM    109  H   UNL     1     149.562 176.899 180.096  0.00  0.00    +0.052 HD
ENDBRANCH 105 106
ENDBRANCH  18 105
BRANCH   9 110
ATOM    110  O   UNL     1     158.424 175.339 179.076  0.00  0.00    -0.377 OA
BRANCH 110 111
ATOM    111  C   UNL     1     158.424 176.342 180.081  0.00  0.00    +0.037 C 
ATOM    112  H   UNL     1     157.398 176.482 180.428  0.00  0.00    +0.052 HD
ATOM    113  H   UNL     1     158.788 177.289 179.674  0.00  0.00    +0.052 HD
ATOM    114  H   UNL     1     159.038 176.039 180.934  0.00  0.00    +0.052 HD
ENDBRANCH 110 111
ENDBRANCH   9 110
BRANCH   5 115
ATOM    115  O   UNL     1     158.720 172.918 182.037  0.00  0.00    -0.377 OA
BRANCH 115 116
ATOM    116  C   UNL     1     159.158 173.485 183.264  0.00  0.00    +0.037 C 
ATOM    117  H   UNL     1     158.457 174.257 183.598  0.00  0.00    +0.052 HD
ATOM    118  H   UNL     1     160.163 173.905 183.169  0.00  0.00    +0.052 HD
ATOM    119  H   UNL     1     159.180 172.691 184.015  0.00  0.00    +0.052 HD
ENDBRANCH 115 116
ENDBRANCH   5 115
BRANCH   3 120
ATOM    120  O   UNL     1     160.564 169.478 180.411  0.00  0.00    -0.379 OA
BRANCH 120 121
ATOM    121  C   UNL     1     159.637 168.670 179.696  0.00  0.00    +0.037 C 
ATOM    122  H   UNL     1     158.667 169.166 179.620  0.00  0.00    +0.052 HD
ATOM    123  H   UNL     1     160.019 168.425 178.701  0.00  0.00    +0.052 HD
ATOM    124  H   UNL     1     159.502 167.736 180.247  0.00  0.00    +0.052 HD
ENDBRANCH 120 121
ENDBRANCH   3 120
TORSDOF 23
ENDMDL
MODEL 6
REMARK VINA RESULT:      -5.7      9.505     16.951
REMARK  Name = Lobophorolide_conf2
REMARK  23 active torsions:
REMARK  status: ('A' for Active; 'I' for Inactive)
REMARK    1  A    between atoms: C_1  and  C_2
REMARK    2  A    between atoms: C_4  and  O_53
REMARK    3  A    between atoms: C_6  and  C_8
REMARK    4  A    between atoms: C_8  and  C_9
REMARK    5  A    between atoms: C_9  and  C_10
REMARK    6  A    between atoms: C_10  and  C_11
REMARK    7  A    between atoms: C_10  and  C_12
REMARK    8  A    between atoms: C_12  and  C_13
REMARK    9  A    between atoms: C_12  and  O_52
REMARK   10  A    between atoms: C_13  and  C_14
REMARK   11  A    between atoms: C_13  and  C_15
REMARK   12  A    between atoms: C_16  and  C_51
REMARK   13  A    between atoms: C_17  and  O_49
REMARK   14  A    between atoms: C_19  and  O_47
REMARK   15  A    between atoms: C_23  and  O_45
REMARK   16  A    between atoms: C_32  and  O_43
REMARK   17  A    between atoms: C_33  and  O_42
REMARK   18  A    between atoms: C_35  and  C_41
REMARK   19  A    between atoms: O_43  and  C_44
REMARK   20  A    between atoms: O_45  and  C_46
REMARK   21  A    between atoms: O_47  and  C_48
REMARK   22  A    between atoms: O_49  and  C_50
REMARK   23  A    between atoms: O_53  and  C_54
REMARK                            x       y       z     vdW  Elec       q    Type
REMARK                         _______ _______ _______ _____ _____    ______ ____
ROOT
ATOM      1  C   UNL     1     146.305 169.813 189.670  0.00  0.00    +0.113 C 
ATOM      2  C   UNL     1     146.297 169.498 188.143  0.00  0.00    +0.020 C 
ATOM      3  C   UNL     1     144.995 168.736 187.721  0.00  0.00    +0.067 C 
ATOM      4  C   UNL     1     144.525 169.156 186.305  0.00  0.00    +0.003 C 
ATOM      5  C   UNL     1     143.245 170.030 186.301  0.00  0.00    +0.094 C 
ATOM      6  C   UNL     1     141.938 169.291 186.575  0.00  0.00    +0.145 C 
ATOM      7  C   UNL     1     141.704 167.934 185.913  0.00  0.00    +0.083 C 
ATOM      8  O   UNL     1     142.052 168.052 187.297  0.00  0.00    -0.363 OA
ATOM      9  C   UNL     1     140.690 170.134 186.869  0.00  0.00    +0.094 C 
ATOM     10  C   UNL     1     139.750 169.458 187.890  0.00  0.00    +0.003 C 
ATOM     11  C   UNL     1     138.352 170.063 188.096  0.00  0.00    +0.065 C 
ATOM     12  C   UNL     1     137.351 169.635 187.010  0.00  0.00    -0.008 C 
ATOM     13  C   UNL     1     136.028 170.297 187.238  0.00  0.00    -0.083 C 
ATOM     14  C   UNL     1     135.947 171.398 187.994  0.00  0.00    -0.059 C 
ATOM     15  C   UNL     1     137.145 172.076 188.618  0.00  0.00    +0.080 C 
ATOM     16  O   UNL     1     138.399 171.494 188.206  0.00  0.00    -0.369 OA
ATOM     17  C   UNL     1     137.060 172.101 190.153  0.00  0.00    +0.006 C 
ATOM     18  C   UNL     1     137.866 173.283 190.723  0.00  0.00    +0.090 C 
ATOM     19  C   UNL     1     138.567 172.919 192.057  0.00  0.00    +0.100 C 
ATOM     20  C   UNL     1     139.779 172.039 191.902  0.00  0.00    -0.051 C 
ATOM     21  C   UNL     1     140.949 172.324 191.293  0.00  0.00    -0.052 C 
ATOM     22  C   UNL     1     141.993 171.297 191.247  0.00  0.00    -0.052 C 
ATOM     23  C   UNL     1     143.184 171.430 190.647  0.00  0.00    +0.023 C 
ATOM     24  C   UNL     1     144.172 170.334 190.648  0.00  0.00    +0.332 C 
ATOM     25  O   UNL     1     144.049 169.260 191.210  0.00  0.00    -0.246 OA
ATOM     26  O   UNL     1     145.226 170.746 189.898  0.00  0.00    -0.458 OA
ATOM     27  H   UNL     1     146.144 168.878 190.220  0.00  0.00    +0.074 HD
ATOM     28  H   UNL     1     146.282 170.470 187.635  0.00  0.00    +0.036 HD
ATOM     29  H   UNL     1     144.183 168.914 188.432  0.00  0.00    +0.060 HD
ATOM     30  H   UNL     1     144.389 168.276 185.671  0.00  0.00    +0.032 HD
ATOM     31  H   UNL     1     145.321 169.733 185.819  0.00  0.00    +0.032 HD
ATOM     32  H   UNL     1     143.136 170.459 185.296  0.00  0.00    +0.063 HD
ATOM     33  H   UNL     1     142.437 167.527 185.232  0.00  0.00    +0.059 HD
ATOM     34  H   UNL     1     140.687 167.642 185.669  0.00  0.00    +0.059 HD
ATOM     35  H   UNL     1     140.980 171.102 187.295  0.00  0.00    +0.063 HD
ATOM     36  H   UNL     1     140.274 169.472 188.856  0.00  0.00    +0.032 HD
ATOM     37  H   UNL     1     139.605 168.400 187.642  0.00  0.00    +0.032 HD
ATOM     38  H   UNL     1     137.999 169.657 189.053  0.00  0.00    +0.060 HD
ATOM     39  H   UNL     1     137.226 168.546 187.033  0.00  0.00    +0.033 HD
ATOM     40  H   UNL     1     137.683 169.910 186.006  0.00  0.00    +0.033 HD
ATOM     41  H   UNL     1     135.145 169.867 186.777  0.00  0.00    +0.057 HD
ATOM     42  H   UNL     1     134.979 171.867 188.153  0.00  0.00    +0.059 HD
ATOM     43  H   UNL     1     137.153 173.104 188.236  0.00  0.00    +0.064 HD
ATOM     44  H   UNL     1     136.014 172.189 190.473  0.00  0.00    +0.032 HD
ATOM     45  H   UNL     1     137.444 171.157 190.552  0.00  0.00    +0.032 HD
ATOM     46  H   UNL     1     138.608 173.630 189.995  0.00  0.00    +0.063 HD
ATOM     47  H   UNL     1     137.847 172.416 192.716  0.00  0.00    +0.066 HD
ATOM     48  H   UNL     1     139.649 171.053 192.344  0.00  0.00    +0.060 HD
ATOM     49  H   UNL     1     141.767 170.354 191.742  0.00  0.00    +0.062 HD
ATOM     50  H   UNL     1     143.487 172.329 190.125  0.00  0.00    +0.069 HD
ENDROOT
BRANCH  21  51
ATOM     51  C   UNL     1     141.255 173.655 190.651  0.00  0.00    -0.040 C 
ATOM     52  H   UNL     1     141.180 173.578 189.561  0.00  0.00    +0.028 HD
ATOM     53  H   UNL     1     142.262 173.993 190.907  0.00  0.00    +0.028 HD
ATOM     54  H   UNL     1     140.588 174.458 190.969  0.00  0.00    +0.028 HD
ENDBRANCH  21  51
BRANCH   2  55
ATOM     55  C   UNL     1     147.552 168.743 187.678  0.00  0.00    -0.057 C 
ATOM     56  H   UNL     1     147.531 168.579 186.596  0.00  0.00    +0.023 HD
ATOM     57  H   UNL     1     148.466 169.301 187.890  0.00  0.00    +0.023 HD
ATOM     58  H   UNL     1     147.634 167.768 188.173  0.00  0.00    +0.023 HD
ENDBRANCH   2  55
BRANCH   1  59
ATOM     59  C   UNL     1     147.625 170.447 190.208  0.00  0.00    +0.020 C 
ATOM     60  H   UNL     1     148.361 170.389 189.399  0.00  0.00    +0.036 HD
BRANCH  59  61
ATOM     61  C   UNL     1     147.471 171.934 190.536  0.00  0.00    -0.057 C 
ATOM     62  H   UNL     1     147.387 172.099 191.614  0.00  0.00    +0.023 HD
ATOM     63  H   UNL     1     148.340 172.508 190.204  0.00  0.00    +0.023 HD
ATOM     64  H   UNL     1     146.602 172.367 190.039  0.00  0.00    +0.023 HD
ENDBRANCH  59  61
BRANCH  59  65
ATOM     65  C   UNL     1     148.227 169.620 191.386  0.00  0.00    +0.064 C 
ATOM     66  H   UNL     1     148.488 170.339 192.174  0.00  0.00    +0.060 HD
BRANCH  65  67
ATOM     67  C   UNL     1     149.474 168.722 191.112  0.00  0.00    -0.017 C 
ATOM     68  H   UNL     1     149.911 169.003 190.152  0.00  0.00    +0.032 HD
BRANCH  67  69
ATOM     69  C   UNL     1     150.530 169.047 192.184  0.00  0.00    -0.060 C 
ATOM     70  H   UNL     1     150.930 170.057 192.060  0.00  0.00    +0.023 HD
ATOM     71  H   UNL     1     151.373 168.345 192.146  0.00  0.00    +0.023 HD
ATOM     72  H   UNL     1     150.092 168.994 193.188  0.00  0.00    +0.023 HD
ENDBRANCH  67  69
BRANCH  67  73
ATOM     73  C   UNL     1     149.206 167.194 191.131  0.00  0.00    -0.046 C 
ATOM     74  H   UNL     1     149.444 166.755 190.160  0.00  0.00    +0.027 HD
ATOM     75  H   UNL     1     148.142 166.983 191.292  0.00  0.00    +0.027 HD
BRANCH  73  76
ATOM     76  C   UNL     1     150.020 166.410 192.179  0.00  0.00    -0.026 C 
ATOM     77  H   UNL     1     150.508 165.574 191.662  0.00  0.00    +0.029 HD
ATOM     78  H   UNL     1     150.817 167.048 192.573  0.00  0.00    +0.029 HD
BRANCH  76  83
ATOM     79  C   UNL     1     147.507 166.411 194.956  0.00  0.00    +0.059 C 
ATOM     80  C   UNL     1     148.327 165.746 196.062  0.00  0.00    -0.000 C 
ATOM     81  C   UNL     1     149.819 165.930 195.831  0.00  0.00    +0.063 C 
ATOM     82  C   UNL     1     150.181 165.363 194.462  0.00  0.00    -0.000 C 
ATOM     83  C   UNL     1     149.217 165.832 193.359  0.00  0.00    +0.061 C 
ATOM     84  O   UNL     1     148.326 166.829 193.858  0.00  0.00    -0.373 OA
ATOM     85  H   UNL     1     147.073 167.335 195.359  0.00  0.00    +0.059 HD
ATOM     86  H   UNL     1     148.039 166.157 197.040  0.00  0.00    +0.032 HD
ATOM     87  H   UNL     1     148.095 164.672 196.139  0.00  0.00    +0.032 HD
ATOM     88  H   UNL     1     150.061 166.999 195.874  0.00  0.00    +0.060 HD
ATOM     89  H   UNL     1     151.219 165.624 194.220  0.00  0.00    +0.032 HD
ATOM     90  H   UNL     1     150.180 164.264 194.494  0.00  0.00    +0.032 HD
ATOM     91  H   UNL     1     148.635 164.980 192.989  0.00  0.00    +0.060 HD
BRANCH  79  92
ATOM     92  C   UNL     1     146.344 165.536 194.496  0.00  0.00    -0.039 C 
ATOM     93  H   UNL     1     145.940 165.873 193.537  0.00  0.00    +0.025 HD
ATOM     94  H   UNL     1     146.666 164.497 194.382  0.00  0.00    +0.025 HD
ATOM     95  H   UNL     1     145.524 165.574 195.221  0.00  0.00    +0.025 HD
ENDBRANCH  79  92
BRANCH  81  96
ATOM     96  O   UNL     1     150.515 165.248 196.882  0.00  0.00    -0.380 OA
BRANCH  96  97
ATOM     97  C   UNL     1     150.915 163.928 196.528  0.00  0.00    +0.037 C 
ATOM     98  H   UNL     1     150.626 163.213 197.304  0.00  0.00    +0.052 HD
ATOM     99  H   UNL     1     150.407 163.656 195.599  0.00  0.00    +0.052 HD
ATOM    100  H   UNL     1     151.994 163.883 196.353  0.00  0.00    +0.052 HD
ENDBRANCH  96  97
ENDBRANCH  81  96
ENDBRANCH  76  83
ENDBRANCH  73  76
ENDBRANCH  67  73
ENDBRANCH  65  67
BRANCH  65 101
ATOM    101  O   UNL     1     147.190 168.801 191.949  0.00  0.00    -0.391 OA
ATOM    102  H   UNL     1     146.650 169.370 192.523  0.00  0.00    +0.210 HD
ENDBRANCH  65 101
ENDBRANCH  59  65
ENDBRANCH   1  59
BRANCH  19 103
ATOM    103  O   UNL     1     138.957 174.104 192.753  0.00  0.00    -0.385 OA
ATOM    104  H   UNL     1     138.674 174.833 192.171  0.00  0.00    +0.210 HD
ENDBRANCH  19 103
BRANCH  18 105
ATOM    105  O   UNL     1     136.926 174.352 191.002  0.00  0.00    -0.377 OA
BRANCH 105 106
ATOM    106  C   UNL     1     135.679 173.870 191.495  0.00  0.00    +0.037 C 
ATOM    107  H   UNL     1     135.445 172.893 191.059  0.00  0.00    +0.052 HD
ATOM    108  H   UNL     1     134.899 174.577 191.202  0.00  0.00    +0.052 HD
ATOM    109  H   UNL     1     135.700 173.803 192.588  0.00  0.00    +0.052 HD
ENDBRANCH 105 106
ENDBRANCH  18 105
BRANCH   9 110
ATOM    110  O   UNL     1     140.012 170.323 185.619  0.00  0.00    -0.377 OA
BRANCH 110 111
ATOM    111  C   UNL     1     140.142 171.648 185.127  0.00  0.00    +0.037 C 
ATOM    112  H   UNL     1     139.657 172.327 185.832  0.00  0.00    +0.052 HD
ATOM    113  H   UNL     1     139.649 171.743 184.155  0.00  0.00    +0.052 HD
ATOM    114  H   UNL     1     141.195 171.931 185.043  0.00  0.00    +0.052 HD
ENDBRANCH 110 111
ENDBRANCH   9 110
BRANCH   5 115
ATOM    115  O   UNL     1     143.395 171.092 187.256  0.00  0.00    -0.377 OA
BRANCH 115 116
ATOM    116  C   UNL     1     144.036 172.243 186.721  0.00  0.00    +0.037 C 
ATOM    117  H   UNL     1     144.018 173.061 187.447  0.00  0.00    +0.052 HD
ATOM    118  H   UNL     1     143.564 172.558 185.786  0.00  0.00    +0.052 HD
ATOM    119  H   UNL     1     145.078 171.985 186.517  0.00  0.00    +0.052 HD
ENDBRANCH 115 116
ENDBRANCH   5 115
BRANCH   3 120
ATOM    120  O   UNL     1     145.261 167.319 187.655  0.00  0.00    -0.379 OA
BRANCH 120 121
ATOM    121  C   UNL     1     144.755 166.596 188.770  0.00  0.00    +0.037 C 
ATOM    122  H   UNL     1     143.888 165.997 188.485  0.00  0.00    +0.052 HD
ATOM    123  H   UNL     1     145.530 165.961 189.208  0.00  0.00    +0.052 HD
ATOM    124  H   UNL     1     144.438 167.317 189.528  0.00  0.00    +0.052 HD
ENDBRANCH 120 121
ENDBRANCH   3 120
TORSDOF 23
ENDMDL
MODEL 7
REMARK VINA RESULT:      -5.6      5.600     15.006
REMARK  Name = Lobophorolide_conf2
REMARK  23 active torsions:
REMARK  status: ('A' for Active; 'I' for Inactive)
REMARK    1  A    between atoms: C_1  and  C_2
REMARK    2  A    between atoms: C_4  and  O_53
REMARK    3  A    between atoms: C_6  and  C_8
REMARK    4  A    between atoms: C_8  and  C_9
REMARK    5  A    between atoms: C_9  and  C_10
REMARK    6  A    between atoms: C_10  and  C_11
REMARK    7  A    between atoms: C_10  and  C_12
REMARK    8  A    between atoms: C_12  and  C_13
REMARK    9  A    between atoms: C_12  and  O_52
REMARK   10  A    between atoms: C_13  and  C_14
REMARK   11  A    between atoms: C_13  and  C_15
REMARK   12  A    between atoms: C_16  and  C_51
REMARK   13  A    between atoms: C_17  and  O_49
REMARK   14  A    between atoms: C_19  and  O_47
REMARK   15  A    between atoms: C_23  and  O_45
REMARK   16  A    between atoms: C_32  and  O_43
REMARK   17  A    between atoms: C_33  and  O_42
REMARK   18  A    between atoms: C_35  and  C_41
REMARK   19  A    between atoms: O_43  and  C_44
REMARK   20  A    between atoms: O_45  and  C_46
REMARK   21  A    between atoms: O_47  and  C_48
REMARK   22  A    between atoms: O_49  and  C_50
REMARK   23  A    between atoms: O_53  and  C_54
REMARK                            x       y       z     vdW  Elec       q    Type
REMARK                         _______ _______ _______ _____ _____    ______ ____
ROOT
ATOM      1  C   UNL     1     149.373 167.632 192.275  0.00  0.00    +0.113 C 
ATOM      2  C   UNL     1     148.608 166.309 192.576  0.00  0.00    +0.020 C 
ATOM      3  C   UNL     1     147.143 166.589 193.057  0.00  0.00    +0.067 C 
ATOM      4  C   UNL     1     146.159 165.506 192.546  0.00  0.00    +0.003 C 
ATOM      5  C   UNL     1     145.204 166.000 191.431  0.00  0.00    +0.094 C 
ATOM      6  C   UNL     1     144.059 166.900 191.890  0.00  0.00    +0.145 C 
ATOM      7  C   UNL     1     143.305 166.540 193.170  0.00  0.00    +0.083 C 
ATOM      8  O   UNL     1     144.265 167.601 193.129  0.00  0.00    -0.363 OA
ATOM      9  C   UNL     1     143.262 167.648 190.814  0.00  0.00    +0.094 C 
ATOM     10  C   UNL     1     142.792 169.039 191.288  0.00  0.00    +0.003 C 
ATOM     11  C   UNL     1     141.781 169.798 190.414  0.00  0.00    +0.065 C 
ATOM     12  C   UNL     1     140.334 169.323 190.627  0.00  0.00    -0.008 C 
ATOM     13  C   UNL     1     139.409 170.063 189.712  0.00  0.00    -0.083 C 
ATOM     14  C   UNL     1     139.885 170.671 188.619  0.00  0.00    -0.059 C 
ATOM     15  C   UNL     1     141.337 170.625 188.200  0.00  0.00    +0.080 C 
ATOM     16  O   UNL     1     142.132 169.745 189.023  0.00  0.00    -0.369 OA
ATOM     17  C   UNL     1     141.974 172.023 188.164  0.00  0.00    +0.006 C 
ATOM     18  C   UNL     1     143.151 172.060 187.172  0.00  0.00    +0.090 C 
ATOM     19  C   UNL     1     144.307 172.961 187.674  0.00  0.00    +0.100 C 
ATOM     20  C   UNL     1     145.130 172.357 188.781  0.00  0.00    -0.051 C 
ATOM     21  C   UNL     1     145.919 171.262 188.737  0.00  0.00    -0.052 C 
ATOM     22  C   UNL     1     146.618 170.843 189.953  0.00  0.00    -0.052 C 
ATOM     23  C   UNL     1     147.402 169.761 190.062  0.00  0.00    +0.023 C 
ATOM     24  C   UNL     1     148.063 169.416 191.336  0.00  0.00    +0.332 C 
ATOM     25  O   UNL     1     148.020 170.067 192.365  0.00  0.00    -0.246 OA
ATOM     26  O   UNL     1     148.709 168.238 191.143  0.00  0.00    -0.458 OA
ATOM     27  H   UNL     1     149.317 168.278 193.159  0.00  0.00    +0.074 HD
ATOM     28  H   UNL     1     148.537 165.776 191.619  0.00  0.00    +0.036 HD
ATOM     29  H   UNL     1     146.796 167.571 192.721  0.00  0.00    +0.060 HD
ATOM     30  H   UNL     1     145.590 165.083 193.378  0.00  0.00    +0.032 HD
ATOM     31  H   UNL     1     146.733 164.664 192.140  0.00  0.00    +0.032 HD
ATOM     32  H   UNL     1     144.725 165.119 190.986  0.00  0.00    +0.063 HD
ATOM     33  H   UNL     1     143.556 165.642 193.715  0.00  0.00    +0.059 HD
ATOM     34  H   UNL     1     142.257 166.808 193.250  0.00  0.00    +0.059 HD
ATOM     35  H   UNL     1     143.886 167.808 189.926  0.00  0.00    +0.063 HD
ATOM     36  H   UNL     1     143.694 169.660 191.384  0.00  0.00    +0.032 HD
ATOM     37  H   UNL     1     142.360 168.980 192.294  0.00  0.00    +0.032 HD
ATOM     38  H   UNL     1     141.841 170.843 190.744  0.00  0.00    +0.060 HD
ATOM     39  H   UNL     1     140.039 169.498 191.668  0.00  0.00    +0.033 HD
ATOM     40  H   UNL     1     140.211 168.257 190.421  0.00  0.00    +0.033 HD
ATOM     41  H   UNL     1     138.351 170.089 189.952  0.00  0.00    +0.057 HD
ATOM     42  H   UNL     1     139.202 171.206 187.965  0.00  0.00    +0.059 HD
ATOM     43  H   UNL     1     141.354 170.189 187.194  0.00  0.00    +0.064 HD
ATOM     44  H   UNL     1     141.227 172.771 187.867  0.00  0.00    +0.032 HD
ATOM     45  H   UNL     1     142.320 172.290 189.168  0.00  0.00    +0.032 HD
ATOM     46  H   UNL     1     143.524 171.047 186.980  0.00  0.00    +0.063 HD
ATOM     47  H   UNL     1     143.893 173.917 188.023  0.00  0.00    +0.066 HD
ATOM     48  H   UNL     1     145.042 172.897 189.722  0.00  0.00    +0.060 HD
ATOM     49  H   UNL     1     146.479 171.470 190.833  0.00  0.00    +0.062 HD
ATOM     50  H   UNL     1     147.589 169.081 189.242  0.00  0.00    +0.069 HD
ENDROOT
BRANCH  21  51
ATOM     51  C   UNL     1     146.131 170.434 187.493  0.00  0.00    -0.040 C 
ATOM     52  H   UNL     1     145.265 169.788 187.314  0.00  0.00    +0.028 HD
ATOM     53  H   UNL     1     147.021 169.806 187.585  0.00  0.00    +0.028 HD
ATOM     54  H   UNL     1     146.287 171.030 186.592  0.00  0.00    +0.028 HD
ENDBRANCH  21  51
BRANCH   2  55
ATOM     55  C   UNL     1     149.347 165.398 193.568  0.00  0.00    -0.057 C 
ATOM     56  H   UNL     1     150.428 165.567 193.523  0.00  0.00    +0.023 HD
ATOM     57  H   UNL     1     149.045 165.589 194.600  0.00  0.00    +0.023 HD
ATOM     58  H   UNL     1     149.155 164.340 193.354  0.00  0.00    +0.023 HD
ENDBRANCH   2  55
BRANCH   1  59
ATOM     59  C   UNL     1     150.883 167.458 191.923  0.00  0.00    +0.020 C 
ATOM     60  H   UNL     1     151.258 168.444 191.626  0.00  0.00    +0.036 HD
BRANCH  59  61
ATOM     61  C   UNL     1     151.723 167.032 193.129  0.00  0.00    -0.057 C 
ATOM     62  H   UNL     1     152.582 167.693 193.271  0.00  0.00    +0.023 HD
ATOM     63  H   UNL     1     151.144 167.077 194.055  0.00  0.00    +0.023 HD
ATOM     64  H   UNL     1     152.076 166.004 193.030  0.00  0.00    +0.023 HD
ENDBRANCH  59  61
BRANCH  59  65
ATOM     65  C   UNL     1     151.086 166.538 190.679  0.00  0.00    +0.064 C 
ATOM     66  H   UNL     1     150.240 165.840 190.662  0.00  0.00    +0.060 HD
BRANCH  65  67
ATOM     67  C   UNL     1     152.405 165.710 190.567  0.00  0.00    -0.017 C 
ATOM     68  H   UNL     1     152.717 165.402 191.566  0.00  0.00    +0.032 HD
BRANCH  67  69
ATOM     69  C   UNL     1     152.082 164.419 189.791  0.00  0.00    -0.060 C 
ATOM     70  H   UNL     1     152.817 163.636 189.993  0.00  0.00    +0.023 HD
ATOM     71  H   UNL     1     152.066 164.594 188.707  0.00  0.00    +0.023 HD
ATOM     72  H   UNL     1     151.101 164.026 190.085  0.00  0.00    +0.023 HD
ENDBRANCH  67  69
BRANCH  67  73
ATOM     73  C   UNL     1     153.581 166.431 189.856  0.00  0.00    -0.046 C 
ATOM     74  H   UNL     1     153.411 167.510 189.841  0.00  0.00    +0.027 HD
ATOM     75  H   UNL     1     153.645 166.133 188.802  0.00  0.00    +0.027 HD
BRANCH  73  76
ATOM     76  C   UNL     1     154.960 166.212 190.508  0.00  0.00    -0.026 C 
ATOM     77  H   UNL     1     155.260 167.160 190.975  0.00  0.00    +0.029 HD
ATOM     78  H   UNL     1     154.869 165.476 191.314  0.00  0.00    +0.029 HD
BRANCH  76  83
ATOM     79  C   UNL     1     156.488 164.995 187.313  0.00  0.00    +0.059 C 
ATOM     80  C   UNL     1     157.448 163.937 187.859  0.00  0.00    -0.000 C 
ATOM     81  C   UNL     1     156.984 163.414 189.210  0.00  0.00    +0.063 C 
ATOM     82  C   UNL     1     156.854 164.589 190.175  0.00  0.00    -0.000 C 
ATOM     83  C   UNL     1     156.090 165.773 189.559  0.00  0.00    +0.061 C 
ATOM     84  O   UNL     1     155.533 165.412 188.296  0.00  0.00    -0.373 OA
ATOM     85  H   UNL     1     155.895 164.539 186.510  0.00  0.00    +0.059 HD
ATOM     86  H   UNL     1     157.538 163.109 187.141  0.00  0.00    +0.032 HD
ATOM     87  H   UNL     1     158.470 164.334 187.948  0.00  0.00    +0.032 HD
ATOM     88  H   UNL     1     156.015 162.914 189.090  0.00  0.00    +0.060 HD
ATOM     89  H   UNL     1     156.378 164.248 191.103  0.00  0.00    +0.032 HD
ATOM     90  H   UNL     1     157.848 164.931 190.493  0.00  0.00    +0.032 HD
ATOM     91  H   UNL     1     156.770 166.622 189.425  0.00  0.00    +0.060 HD
BRANCH  79  92
ATOM     92  C   UNL     1     157.228 166.181 186.700  0.00  0.00    -0.039 C 
ATOM     93  H   UNL     1     158.302 166.137 186.904  0.00  0.00    +0.025 HD
ATOM     94  H   UNL     1     157.090 166.201 185.616  0.00  0.00    +0.025 HD
ATOM     95  H   UNL     1     156.860 167.123 187.119  0.00  0.00    +0.025 HD
ENDBRANCH  79  92
BRANCH  81  96
ATOM     96  O   UNL     1     157.951 162.463 189.669  0.00  0.00    -0.380 OA
BRANCH  96  97
ATOM     97  C   UNL     1     158.892 163.013 190.585  0.00  0.00    +0.037 C 
ATOM     98  H   UNL     1     159.325 163.936 190.189  0.00  0.00    +0.052 HD
ATOM     99  H   UNL     1     158.365 163.248 191.513  0.00  0.00    +0.052 HD
ATOM    100  H   UNL     1     159.680 162.290 190.813  0.00  0.00    +0.052 HD
ENDBRANCH  96  97
ENDBRANCH  81  96
ENDBRANCH  76  83
ENDBRANCH  73  76
ENDBRANCH  67  73
ENDBRANCH  65  67
BRANCH  65 101
ATOM    101  O   UNL     1     150.944 167.334 189.492  0.00  0.00    -0.391 OA
ATOM    102  H   UNL     1     150.018 167.624 189.445  0.00  0.00    +0.210 HD
ENDBRANCH  65 101
ENDBRANCH  59  65
ENDBRANCH   1  59
BRANCH  19 103
ATOM    103  O   UNL     1     145.181 173.297 186.595  0.00  0.00    -0.385 OA
ATOM    104  H   UNL     1     145.948 173.718 187.026  0.00  0.00    +0.210 HD
ENDBRANCH  19 103
BRANCH  18 105
ATOM    105  O   UNL     1     142.655 172.635 185.935  0.00  0.00    -0.377 OA
BRANCH 105 106
ATOM    106  C   UNL     1     142.592 171.683 184.877  0.00  0.00    +0.037 C 
ATOM    107  H   UNL     1     143.413 170.963 184.957  0.00  0.00    +0.052 HD
ATOM    108  H   UNL     1     142.692 172.218 183.929  0.00  0.00    +0.052 HD
ATOM    109  H   UNL     1     141.629 171.164 184.885  0.00  0.00    +0.052 HD
ENDBRANCH 105 106
ENDBRANCH  18 105
BRANCH   9 110
ATOM    110  O   UNL     1     142.132 166.827 190.487  0.00  0.00    -0.377 OA
BRANCH 110 111
ATOM    111  C   UNL     1     142.263 166.205 189.218  0.00  0.00    +0.037 C 
ATOM    112  H   UNL     1     141.280 166.184 188.741  0.00  0.00    +0.052 HD
ATOM    113  H   UNL     1     142.617 165.176 189.332  0.00  0.00    +0.052 HD
ATOM    114  H   UNL     1     142.945 166.768 188.575  0.00  0.00    +0.052 HD
ENDBRANCH 110 111
ENDBRANCH   9 110
BRANCH   5 115
ATOM    115  O   UNL     1     145.966 166.686 190.424  0.00  0.00    -0.377 OA
BRANCH 115 116
ATOM    116  C   UNL     1     146.497 165.816 189.433  0.00  0.00    +0.037 C 
ATOM    117  H   UNL     1     146.913 164.918 189.899  0.00  0.00    +0.052 HD
ATOM    118  H   UNL     1     147.262 166.319 188.835  0.00  0.00    +0.052 HD
ATOM    119  H   UNL     1     145.679 165.515 188.774  0.00  0.00    +0.052 HD
ENDBRANCH 115 116
ENDBRANCH   5 115
BRANCH   3 120
ATOM    120  O   UNL     1     147.087 166.538 194.498  0.00  0.00    -0.379 OA
BRANCH 120 121
ATOM    121  C   UNL     1     146.349 165.429 194.997  0.00  0.00    +0.037 C 
ATOM    122  H   UNL     1     145.736 164.984 194.210  0.00  0.00    +0.052 HD
ATOM    123  H   UNL     1     147.016 164.680 195.432  0.00  0.00    +0.052 HD
ATOM    124  H   UNL     1     145.683 165.790 195.786  0.00  0.00    +0.052 HD
ENDBRANCH 120 121
ENDBRANCH   3 120
TORSDOF 23
ENDMDL
MODEL 8
REMARK VINA RESULT:      -5.6     20.073     22.957
REMARK  Name = Lobophorolide_conf2
REMARK  23 active torsions:
REMARK  status: ('A' for Active; 'I' for Inactive)
REMARK    1  A    between atoms: C_1  and  C_2
REMARK    2  A    between atoms: C_4  and  O_53
REMARK    3  A    between atoms: C_6  and  C_8
REMARK    4  A    between atoms: C_8  and  C_9
REMARK    5  A    between atoms: C_9  and  C_10
REMARK    6  A    between atoms: C_10  and  C_11
REMARK    7  A    between atoms: C_10  and  C_12
REMARK    8  A    between atoms: C_12  and  C_13
REMARK    9  A    between atoms: C_12  and  O_52
REMARK   10  A    between atoms: C_13  and  C_14
REMARK   11  A    between atoms: C_13  and  C_15
REMARK   12  A    between atoms: C_16  and  C_51
REMARK   13  A    between atoms: C_17  and  O_49
REMARK   14  A    between atoms: C_19  and  O_47
REMARK   15  A    between atoms: C_23  and  O_45
REMARK   16  A    between atoms: C_32  and  O_43
REMARK   17  A    between atoms: C_33  and  O_42
REMARK   18  A    between atoms: C_35  and  C_41
REMARK   19  A    between atoms: O_43  and  C_44
REMARK   20  A    between atoms: O_45  and  C_46
REMARK   21  A    between atoms: O_47  and  C_48
REMARK   22  A    between atoms: O_49  and  C_50
REMARK   23  A    between atoms: O_53  and  C_54
REMARK                            x       y       z     vdW  Elec       q    Type
REMARK                         _______ _______ _______ _____ _____    ______ ____
ROOT
ATOM      1  C   UNL     1     135.587 154.513 197.081  0.00  0.00    +0.113 C 
ATOM      2  C   UNL     1     134.198 154.651 196.387  0.00  0.00    +0.020 C 
ATOM      3  C   UNL     1     134.311 155.413 195.022  0.00  0.00    +0.067 C 
ATOM      4  C   UNL     1     133.314 154.853 193.975  0.00  0.00    +0.003 C 
ATOM      5  C   UNL     1     133.986 154.038 192.841  0.00  0.00    +0.094 C 
ATOM      6  C   UNL     1     134.723 154.857 191.783  0.00  0.00    +0.145 C 
ATOM      7  C   UNL     1     134.075 156.138 191.259  0.00  0.00    +0.083 C 
ATOM      8  O   UNL     1     135.162 156.165 192.190  0.00  0.00    -0.363 OA
ATOM      9  C   UNL     1     135.640 154.106 190.811  0.00  0.00    +0.094 C 
ATOM     10  C   UNL     1     136.883 154.932 190.416  0.00  0.00    +0.003 C 
ATOM     11  C   UNL     1     137.761 154.413 189.267  0.00  0.00    +0.065 C 
ATOM     12  C   UNL     1     137.191 154.755 187.880  0.00  0.00    -0.008 C 
ATOM     13  C   UNL     1     138.063 154.179 186.808  0.00  0.00    -0.083 C 
ATOM     14  C   UNL     1     138.902 153.175 187.088  0.00  0.00    -0.059 C 
ATOM     15  C   UNL     1     139.005 152.524 188.449  0.00  0.00    +0.080 C 
ATOM     16  O   UNL     1     138.010 153.004 189.379  0.00  0.00    -0.369 OA
ATOM     17  C   UNL     1     140.407 152.678 189.059  0.00  0.00    +0.006 C 
ATOM     18  C   UNL     1     140.697 151.538 190.052  0.00  0.00    +0.090 C 
ATOM     19  C   UNL     1     141.525 152.022 191.269  0.00  0.00    +0.100 C 
ATOM     20  C   UNL     1     140.742 152.828 192.272  0.00  0.00    -0.051 C 
ATOM     21  C   UNL     1     139.714 152.427 193.051  0.00  0.00    -0.052 C 
ATOM     22  C   UNL     1     139.085 153.398 193.949  0.00  0.00    -0.052 C 
ATOM     23  C   UNL     1     138.038 153.148 194.748  0.00  0.00    +0.023 C 
ATOM     24  C   UNL     1     137.467 154.196 195.617  0.00  0.00    +0.332 C 
ATOM     25  O   UNL     1     137.891 155.331 195.742  0.00  0.00    -0.246 OA
ATOM     26  O   UNL     1     136.383 153.658 196.230  0.00  0.00    -0.458 OA
ATOM     27  H   UNL     1     136.034 155.510 197.169  0.00  0.00    +0.074 HD
ATOM     28  H   UNL     1     133.871 153.629 196.160  0.00  0.00    +0.036 HD
ATOM     29  H   UNL     1     135.325 155.351 194.616  0.00  0.00    +0.060 HD
ATOM     30  H   UNL     1     132.706 155.660 193.557  0.00  0.00    +0.032 HD
ATOM     31  H   UNL     1     132.599 154.192 194.479  0.00  0.00    +0.032 HD
ATOM     32  H   UNL     1     133.195 153.502 192.301  0.00  0.00    +0.063 HD
ATOM     33  H   UNL     1     133.096 156.434 191.605  0.00  0.00    +0.059 HD
ATOM     34  H   UNL     1     134.276 156.442 190.237  0.00  0.00    +0.059 HD
ATOM     35  H   UNL     1     136.006 153.181 191.275  0.00  0.00    +0.063 HD
ATOM     36  H   UNL     1     137.509 155.007 191.317  0.00  0.00    +0.032 HD
ATOM     37  H   UNL     1     136.600 155.960 190.161  0.00  0.00    +0.032 HD
ATOM     38  H   UNL     1     138.718 154.940 189.373  0.00  0.00    +0.060 HD
ATOM     39  H   UNL     1     137.136 155.844 187.763  0.00  0.00    +0.033 HD
ATOM     40  H   UNL     1     136.186 154.353 187.732  0.00  0.00    +0.033 HD
ATOM     41  H   UNL     1     137.994 154.589 185.806  0.00  0.00    +0.057 HD
ATOM     42  H   UNL     1     139.531 152.768 186.300  0.00  0.00    +0.059 HD
ATOM     43  H   UNL     1     138.787 151.460 188.300  0.00  0.00    +0.064 HD
ATOM     44  H   UNL     1     141.167 152.671 188.268  0.00  0.00    +0.032 HD
ATOM     45  H   UNL     1     140.476 153.646 189.568  0.00  0.00    +0.032 HD
ATOM     46  H   UNL     1     139.762 151.079 190.395  0.00  0.00    +0.063 HD
ATOM     47  H   UNL     1     142.370 152.627 190.913  0.00  0.00    +0.066 HD
ATOM     48  H   UNL     1     141.073 153.863 192.339  0.00  0.00    +0.060 HD
ATOM     49  H   UNL     1     139.511 154.400 193.955  0.00  0.00    +0.062 HD
ATOM     50  H   UNL     1     137.549 152.184 194.799  0.00  0.00    +0.069 HD
ENDROOT
BRANCH  21  51
ATOM     51  C   UNL     1     139.169 151.020 193.056  0.00  0.00    -0.040 C 
ATOM     52  H   UNL     1     139.981 150.298 193.195  0.00  0.00    +0.028 HD
ATOM     53  H   UNL     1     138.657 150.793 192.118  0.00  0.00    +0.028 HD
ATOM     54  H   UNL     1     138.433 150.839 193.841  0.00  0.00    +0.028 HD
ENDBRANCH  21  51
BRANCH   2  55
ATOM     55  C   UNL     1     133.136 155.296 197.290  0.00  0.00    -0.057 C 
ATOM     56  H   UNL     1     132.132 154.951 197.022  0.00  0.00    +0.023 HD
ATOM     57  H   UNL     1     133.282 155.037 198.341  0.00  0.00    +0.023 HD
ATOM     58  H   UNL     1     133.157 156.389 197.210  0.00  0.00    +0.023 HD
ENDBRANCH   2  55
BRANCH   1  59
ATOM     59  C   UNL     1     135.554 153.891 198.510  0.00  0.00    +0.020 C 
ATOM     60  H   UNL     1     134.558 154.088 198.923  0.00  0.00    +0.036 HD
BRANCH  59  61
ATOM     61  C   UNL     1     135.709 152.368 198.493  0.00  0.00    -0.057 C 
ATOM     62  H   UNL     1     135.164 151.902 199.319  0.00  0.00    +0.023 HD
ATOM     63  H   UNL     1     135.305 151.936 197.574  0.00  0.00    +0.023 HD
ATOM     64  H   UNL     1     136.758 152.071 198.544  0.00  0.00    +0.023 HD
ENDBRANCH  59  61
BRANCH  59  65
ATOM     65  C   UNL     1     136.557 154.597 199.474  0.00  0.00    +0.064 C 
ATOM     66  H   UNL     1     137.038 153.806 200.064  0.00  0.00    +0.060 HD
BRANCH  65  67
ATOM     67  C   UNL     1     136.015 155.679 200.459  0.00  0.00    -0.017 C 
ATOM     68  H   UNL     1     134.937 155.553 200.569  0.00  0.00    +0.032 HD
BRANCH  67  69
ATOM     69  C   UNL     1     136.632 155.403 201.843  0.00  0.00    -0.060 C 
ATOM     70  H   UNL     1     135.881 155.463 202.636  0.00  0.00    +0.023 HD
ATOM     71  H   UNL     1     137.429 156.120 202.080  0.00  0.00    +0.023 HD
ATOM     72  H   UNL     1     137.062 154.395 201.881  0.00  0.00    +0.023 HD
ENDBRANCH  67  69
BRANCH  67  73
ATOM     73  C   UNL     1     136.327 157.148 200.066  0.00  0.00    -0.046 C 
ATOM     74  H   UNL     1     137.246 157.196 199.478  0.00  0.00    +0.027 HD
ATOM     75  H   UNL     1     136.518 157.761 200.955  0.00  0.00    +0.027 HD
BRANCH  73  76
ATOM     76  C   UNL     1     135.232 157.837 199.228  0.00  0.00    -0.026 C 
ATOM     77  H   UNL     1     135.722 158.311 198.368  0.00  0.00    +0.029 HD
ATOM     78  H   UNL     1     134.551 157.080 198.826  0.00  0.00    +0.029 HD
BRANCH  76  83
ATOM     79  C   UNL     1     132.673 160.548 199.585  0.00  0.00    +0.059 C 
ATOM     80  C   UNL     1     133.470 161.564 200.404  0.00  0.00    -0.000 C 
ATOM     81  C   UNL     1     134.967 161.384 200.203  0.00  0.00    +0.063 C 
ATOM     82  C   UNL     1     135.347 159.956 200.580  0.00  0.00    -0.000 C 
ATOM     83  C   UNL     1     134.405 158.913 199.955  0.00  0.00    +0.061 C 
ATOM     84  O   UNL     1     133.514 159.530 199.028  0.00  0.00    -0.373 OA
ATOM     85  H   UNL     1     132.239 161.067 198.721  0.00  0.00    +0.059 HD
ATOM     86  H   UNL     1     133.168 162.585 200.128  0.00  0.00    +0.032 HD
ATOM     87  H   UNL     1     133.229 161.489 201.475  0.00  0.00    +0.032 HD
ATOM     88  H   UNL     1     135.215 161.578 199.153  0.00  0.00    +0.060 HD
ATOM     89  H   UNL     1     136.391 159.769 200.298  0.00  0.00    +0.032 HD
ATOM     90  H   UNL     1     135.338 159.836 201.673  0.00  0.00    +0.032 HD
ATOM     91  H   UNL     1     133.823 158.420 200.742  0.00  0.00    +0.060 HD
BRANCH  79  92
ATOM     92  C   UNL     1     131.511 159.954 200.377  0.00  0.00    -0.039 C 
ATOM     93  H   UNL     1     131.850 159.501 201.314  0.00  0.00    +0.025 HD
ATOM     94  H   UNL     1     130.778 160.727 200.621  0.00  0.00    +0.025 HD
ATOM     95  H   UNL     1     131.015 159.166 199.801  0.00  0.00    +0.025 HD
ENDBRANCH  79  92
BRANCH  81  96
ATOM     96  O   UNL     1     135.639 162.342 201.030  0.00  0.00    -0.380 OA
BRANCH  96  97
ATOM     97  C   UNL     1     134.751 163.137 201.809  0.00  0.00    +0.037 C 
ATOM     98  H   UNL     1     134.278 163.907 201.192  0.00  0.00    +0.052 HD
ATOM     99  H   UNL     1     133.970 162.483 202.206  0.00  0.00    +0.052 HD
ATOM    100  H   UNL     1     135.276 163.594 202.652  0.00  0.00    +0.052 HD
ENDBRANCH  96  97
ENDBRANCH  81  96
ENDBRANCH  76  83
ENDBRANCH  73  76
ENDBRANCH  67  73
ENDBRANCH  65  67
BRANCH  65 101
ATOM    101  O   UNL     1     137.612 155.179 198.691  0.00  0.00    -0.391 OA
ATOM    102  H   UNL     1     138.059 154.455 198.221  0.00  0.00    +0.210 HD
ENDBRANCH  65 101
ENDBRANCH  59  65
ENDBRANCH   1  59
BRANCH  19 103
ATOM    103  O   UNL     1     142.112 150.910 191.946  0.00  0.00    -0.385 OA
ATOM    104  H   UNL     1     142.608 151.309 192.686  0.00  0.00    +0.210 HD
ENDBRANCH  19 103
BRANCH  18 105
ATOM    105  O   UNL     1     141.492 150.547 189.351  0.00  0.00    -0.377 OA
BRANCH 105 106
ATOM    106  C   UNL     1     140.774 149.340 189.111  0.00  0.00    +0.037 C 
ATOM    107  H   UNL     1     141.344 148.475 189.467  0.00  0.00    +0.052 HD
ATOM    108  H   UNL     1     140.627 149.238 188.032  0.00  0.00    +0.052 HD
ATOM    109  H   UNL     1     139.793 149.375 189.596  0.00  0.00    +0.052 HD
ENDBRANCH 105 106
ENDBRANCH  18 105
BRANCH   9 110
ATOM    110  O   UNL     1     134.856 153.803 189.648  0.00  0.00    -0.377 OA
BRANCH 110 111
ATOM    111  C   UNL     1     134.520 152.427 189.564  0.00  0.00    +0.037 C 
ATOM    112  H   UNL     1     134.744 151.957 190.525  0.00  0.00    +0.052 HD
ATOM    113  H   UNL     1     135.116 151.936 188.789  0.00  0.00    +0.052 HD
ATOM    114  H   UNL     1     133.454 152.297 189.357  0.00  0.00    +0.052 HD
ENDBRANCH 110 111
ENDBRANCH   9 110
BRANCH   5 115
ATOM    115  O   UNL     1     134.895 153.087 193.417  0.00  0.00    -0.377 OA
BRANCH 115 116
ATOM    116  C   UNL     1     134.280 151.847 193.741  0.00  0.00    +0.037 C 
ATOM    117  H   UNL     1     133.207 151.889 193.531  0.00  0.00    +0.052 HD
ATOM    118  H   UNL     1     134.449 151.584 194.789  0.00  0.00    +0.052 HD
ATOM    119  H   UNL     1     134.725 151.074 193.110  0.00  0.00    +0.052 HD
ENDBRANCH 115 116
ENDBRANCH   5 115
BRANCH   3 120
ATOM    120  O   UNL     1     133.963 156.801 195.211  0.00  0.00    -0.379 OA
BRANCH 120 121
ATOM    121  C   UNL     1     132.811 157.199 194.478  0.00  0.00    +0.037 C 
ATOM    122  H   UNL     1     131.963 157.369 195.145  0.00  0.00    +0.052 HD
ATOM    123  H   UNL     1     133.015 158.097 193.886  0.00  0.00    +0.052 HD
ATOM    124  H   UNL     1     132.548 156.392 193.789  0.00  0.00    +0.052 HD
ENDBRANCH 120 121
ENDBRANCH   3 120
TORSDOF 23
ENDMDL
MODEL 9
REMARK VINA RESULT:      -5.6      1.293      2.023
REMARK  Name = Lobophorolide_conf2
REMARK  23 active torsions:
REMARK  status: ('A' for Active; 'I' for Inactive)
REMARK    1  A    between atoms: C_1  and  C_2
REMARK    2  A    between atoms: C_4  and  O_53
REMARK    3  A    between atoms: C_6  and  C_8
REMARK    4  A    between atoms: C_8  and  C_9
REMARK    5  A    between atoms: C_9  and  C_10
REMARK    6  A    between atoms: C_10  and  C_11
REMARK    7  A    between atoms: C_10  and  C_12
REMARK    8  A    between atoms: C_12  and  C_13
REMARK    9  A    between atoms: C_12  and  O_52
REMARK   10  A    between atoms: C_13  and  C_14
REMARK   11  A    between atoms: C_13  and  C_15
REMARK   12  A    between atoms: C_16  and  C_51
REMARK   13  A    between atoms: C_17  and  O_49
REMARK   14  A    between atoms: C_19  and  O_47
REMARK   15  A    between atoms: C_23  and  O_45
REMARK   16  A    between atoms: C_32  and  O_43
REMARK   17  A    between atoms: C_33  and  O_42
REMARK   18  A    between atoms: C_35  and  C_41
REMARK   19  A    between atoms: O_43  and  C_44
REMARK   20  A    between atoms: O_45  and  C_46
REMARK   21  A    between atoms: O_47  and  C_48
REMARK   22  A    between atoms: O_49  and  C_50
REMARK   23  A    between atoms: O_53  and  C_54
REMARK                            x       y       z     vdW  Elec       q    Type
REMARK                         _______ _______ _______ _____ _____    ______ ____
ROOT
ATOM      1  C   UNL     1     154.298 164.947 188.437  0.00  0.00    +0.113 C 
ATOM      2  C   UNL     1     154.404 165.070 186.887  0.00  0.00    +0.020 C 
ATOM      3  C   UNL     1     155.756 165.733 186.455  0.00  0.00    +0.067 C 
ATOM      4  C   UNL     1     156.290 165.127 185.132  0.00  0.00    +0.003 C 
ATOM      5  C   UNL     1     157.533 164.220 185.312  0.00  0.00    +0.094 C 
ATOM      6  C   UNL     1     158.850 164.947 185.574  0.00  0.00    +0.145 C 
ATOM      7  C   UNL     1     159.173 166.203 184.766  0.00  0.00    +0.083 C 
ATOM      8  O   UNL     1     158.743 166.268 186.130  0.00  0.00    -0.363 OA
ATOM      9  C   UNL     1     160.047 164.109 186.043  0.00  0.00    +0.094 C 
ATOM     10  C   UNL     1     160.952 164.877 187.029  0.00  0.00    +0.003 C 
ATOM     11  C   UNL     1     162.312 164.260 187.392  0.00  0.00    +0.065 C 
ATOM     12  C   UNL     1     163.389 164.519 186.325  0.00  0.00    -0.008 C 
ATOM     13  C   UNL     1     164.671 163.851 186.713  0.00  0.00    -0.083 C 
ATOM     14  C   UNL     1     164.667 162.849 187.600  0.00  0.00    -0.059 C 
ATOM     15  C   UNL     1     163.411 162.291 188.229  0.00  0.00    +0.080 C 
ATOM     16  O   UNL     1     162.205 162.856 187.673  0.00  0.00    -0.369 OA
ATOM     17  C   UNL     1     163.407 162.454 189.758  0.00  0.00    +0.006 C 
ATOM     18  C   UNL     1     162.526 161.378 190.418  0.00  0.00    +0.090 C 
ATOM     19  C   UNL     1     161.766 161.925 191.652  0.00  0.00    +0.100 C 
ATOM     20  C   UNL     1     160.599 162.816 191.317  0.00  0.00    -0.051 C 
ATOM     21  C   UNL     1     159.454 162.494 190.677  0.00  0.00    -0.052 C 
ATOM     22  C   UNL     1     158.455 163.539 190.443  0.00  0.00    -0.052 C 
ATOM     23  C   UNL     1     157.296 163.368 189.792  0.00  0.00    +0.023 C 
ATOM     24  C   UNL     1     156.351 164.486 189.600  0.00  0.00    +0.332 C 
ATOM     25  O   UNL     1     156.483 165.618 190.033  0.00  0.00    -0.246 OA
ATOM     26  O   UNL     1     155.326 164.017 188.843  0.00  0.00    -0.458 OA
ATOM     27  H   UNL     1     154.463 165.938 188.878  0.00  0.00    +0.074 HD
ATOM     28  H   UNL     1     154.412 164.042 186.503  0.00  0.00    +0.036 HD
ATOM     29  H   UNL     1     156.520 165.620 187.231  0.00  0.00    +0.060 HD
ATOM     30  H   UNL     1     156.495 165.916 184.404  0.00  0.00    +0.032 HD
ATOM     31  H   UNL     1     155.501 164.518 184.673  0.00  0.00    +0.032 HD
ATOM     32  H   UNL     1     157.683 163.667 184.376  0.00  0.00    +0.063 HD
ATOM     33  H   UNL     1     158.495 166.545 183.998  0.00  0.00    +0.059 HD
ATOM     34  H   UNL     1     160.211 166.432 184.551  0.00  0.00    +0.059 HD
ATOM     35  H   UNL     1     159.696 163.210 186.566  0.00  0.00    +0.063 HD
ATOM     36  H   UNL     1     160.375 164.999 187.956  0.00  0.00    +0.032 HD
ATOM     37  H   UNL     1     161.151 165.891 186.664  0.00  0.00    +0.032 HD
ATOM     38  H   UNL     1     162.626 164.771 188.312  0.00  0.00    +0.060 HD
ATOM     39  H   UNL     1     163.553 165.598 186.222  0.00  0.00    +0.033 HD
ATOM     40  H   UNL     1     163.103 164.132 185.344  0.00  0.00    +0.033 HD
ATOM     41  H   UNL     1     165.594 164.192 186.256  0.00  0.00    +0.057 HD
ATOM     42  H   UNL     1     165.606 162.374 187.874  0.00  0.00    +0.059 HD
ATOM     43  H   UNL     1     163.386 161.225 187.976  0.00  0.00    +0.064 HD
ATOM     44  H   UNL     1     164.430 162.375 190.148  0.00  0.00    +0.032 HD
ATOM     45  H   UNL     1     163.037 163.452 190.014  0.00  0.00    +0.032 HD
ATOM     46  H   UNL     1     161.814 160.966 189.693  0.00  0.00    +0.063 HD
ATOM     47  H   UNL     1     162.466 162.484 192.288  0.00  0.00    +0.066 HD
ATOM     48  H   UNL     1     160.740 163.845 191.643  0.00  0.00    +0.060 HD
ATOM     49  H   UNL     1     158.688 164.529 190.832  0.00  0.00    +0.062 HD
ATOM     50  H   UNL     1     156.989 162.422 189.367  0.00  0.00    +0.069 HD
ENDROOT
BRANCH  21  51
ATOM     51  C   UNL     1     159.135 161.103 190.185  0.00  0.00    -0.040 C 
ATOM     52  H   UNL     1     159.971 160.426 190.389  0.00  0.00    +0.028 HD
ATOM     53  H   UNL     1     158.940 161.102 189.110  0.00  0.00    +0.028 HD
ATOM     54  H   UNL     1     158.244 160.671 190.643  0.00  0.00    +0.028 HD
ENDBRANCH  21  51
BRANCH   2  55
ATOM     55  C   UNL     1     153.208 165.800 186.258  0.00  0.00    -0.057 C 
ATOM     56  H   UNL     1     152.265 165.454 186.695  0.00  0.00    +0.023 HD
ATOM     57  H   UNL     1     153.252 166.878 186.428  0.00  0.00    +0.023 HD
ATOM     58  H   UNL     1     153.167 165.634 185.175  0.00  0.00    +0.023 HD
ENDBRANCH   2  55
BRANCH   1  59
ATOM     59  C   UNL     1     152.927 164.426 188.968  0.00  0.00    +0.020 C 
ATOM     60  H   UNL     1     152.158 164.780 188.271  0.00  0.00    +0.036 HD
BRANCH  59  61
ATOM     61  C   UNL     1     152.836 162.898 188.957  0.00  0.00    -0.057 C 
ATOM     62  H   UNL     1     152.066 162.540 189.648  0.00  0.00    +0.023 HD
ATOM     63  H   UNL     1     152.562 162.521 187.969  0.00  0.00    +0.023 HD
ATOM     64  H   UNL     1     153.790 162.436 189.216  0.00  0.00    +0.023 HD
ENDBRANCH  59  61
BRANCH  59  65
ATOM     65  C   UNL     1     152.564 165.051 190.350  0.00  0.00    +0.064 C 
ATOM     66  H   UNL     1     151.655 164.543 190.696  0.00  0.00    +0.060 HD
BRANCH  65  67
ATOM     67  C   UNL     1     152.326 166.591 190.438  0.00  0.00    -0.017 C 
ATOM     68  H   UNL     1     153.208 167.109 190.057  0.00  0.00    +0.032 HD
BRANCH  67  69
ATOM     69  C   UNL     1     151.167 166.941 189.487  0.00  0.00    -0.060 C 
ATOM     70  H   UNL     1     151.173 166.306 188.597  0.00  0.00    +0.023 HD
ATOM     71  H   UNL     1     151.220 167.986 189.154  0.00  0.00    +0.023 HD
ATOM     72  H   UNL     1     150.201 166.794 189.984  0.00  0.00    +0.023 HD
ENDBRANCH  67  69
BRANCH  67  73
ATOM     73  C   UNL     1     151.982 167.128 191.853  0.00  0.00    -0.046 C 
ATOM     74  H   UNL     1     152.658 167.942 192.125  0.00  0.00    +0.027 HD
ATOM     75  H   UNL     1     152.138 166.354 192.616  0.00  0.00    +0.027 HD
BRANCH  73  76
ATOM     76  C   UNL     1     150.550 167.676 192.004  0.00  0.00    -0.026 C 
ATOM     77  H   UNL     1     150.607 168.771 191.945  0.00  0.00    +0.029 HD
ATOM     78  H   UNL     1     149.942 167.344 191.156  0.00  0.00    +0.029 HD
BRANCH  76  83
ATOM     79  C   UNL     1     149.365 165.447 194.769  0.00  0.00    +0.059 C 
ATOM     80  C   UNL     1     147.908 165.900 194.876  0.00  0.00    -0.000 C 
ATOM     81  C   UNL     1     147.421 166.507 193.569  0.00  0.00    +0.063 C 
ATOM     82  C   UNL     1     148.333 167.671 193.195  0.00  0.00    -0.000 C 
ATOM     83  C   UNL     1     149.823 167.310 193.311  0.00  0.00    +0.061 C 
ATOM     84  O   UNL     1     149.987 165.916 193.567  0.00  0.00    -0.373 OA
ATOM     85  H   UNL     1     149.379 164.352 194.693  0.00  0.00    +0.059 HD
ATOM     86  H   UNL     1     147.273 165.050 195.162  0.00  0.00    +0.032 HD
ATOM     87  H   UNL     1     147.776 166.626 195.692  0.00  0.00    +0.032 HD
ATOM     88  H   UNL     1     147.445 165.740 192.785  0.00  0.00    +0.060 HD
ATOM     89  H   UNL     1     148.086 168.019 192.184  0.00  0.00    +0.032 HD
ATOM     90  H   UNL     1     148.125 168.538 193.837  0.00  0.00    +0.032 HD
ATOM     91  H   UNL     1     150.281 167.882 194.126  0.00  0.00    +0.060 HD
BRANCH  79  92
ATOM     92  C   UNL     1     150.175 165.816 196.009  0.00  0.00    -0.039 C 
ATOM     93  H   UNL     1     149.647 166.540 196.636  0.00  0.00    +0.025 HD
ATOM     94  H   UNL     1     150.377 164.928 196.614  0.00  0.00    +0.025 HD
ATOM     95  H   UNL     1     151.128 166.273 195.725  0.00  0.00    +0.025 HD
ENDBRANCH  79  92
BRANCH  81  96
ATOM     96  O   UNL     1     146.070 166.941 193.762  0.00  0.00    -0.380 OA
BRANCH  96  97
ATOM     97  C   UNL     1     145.136 165.867 193.818  0.00  0.00    +0.037 C 
ATOM     98  H   UNL     1     145.651 164.903 193.781  0.00  0.00    +0.052 HD
ATOM     99  H   UNL     1     144.596 165.936 194.766  0.00  0.00    +0.052 HD
ATOM    100  H   UNL     1     144.409 165.942 193.004  0.00  0.00    +0.052 HD
ENDBRANCH  96  97
ENDBRANCH  81  96
ENDBRANCH  76  83
ENDBRANCH  73  76
ENDBRANCH  67  73
ENDBRANCH  65  67
BRANCH  65 101
ATOM    101  O   UNL     1     153.582 164.691 191.298  0.00  0.00    -0.391 OA
ATOM    102  H   UNL     1     153.173 164.104 191.956  0.00  0.00    +0.210 HD
ENDBRANCH  65 101
ENDBRANCH  59  65
ENDBRANCH   1  59
BRANCH  19 103
ATOM    103  O   UNL     1     161.292 160.849 192.463  0.00  0.00    -0.385 OA
ATOM    104  H   UNL     1     160.497 161.205 192.901  0.00  0.00    +0.210 HD
ENDBRANCH  19 103
BRANCH  18 105
ATOM    105  O   UNL     1     163.408 160.323 190.881  0.00  0.00    -0.377 OA
BRANCH 105 106
ATOM    106  C   UNL     1     163.254 159.116 190.139  0.00  0.00    +0.037 C 
ATOM    107  H   UNL     1     164.118 158.953 189.486  0.00  0.00    +0.052 HD
ATOM    108  H   UNL     1     162.361 159.210 189.515  0.00  0.00    +0.052 HD
ATOM    109  H   UNL     1     163.121 158.265 190.814  0.00  0.00    +0.052 HD
ENDBRANCH 105 106
ENDBRANCH  18 105
BRANCH   9 110
ATOM    110  O   UNL     1     160.787 163.746 184.870  0.00  0.00    -0.377 OA
BRANCH 110 111
ATOM    111  C   UNL     1     160.634 162.375 184.535  0.00  0.00    +0.037 C 
ATOM    112  H   UNL     1     160.840 162.255 183.469  0.00  0.00    +0.052 HD
ATOM    113  H   UNL     1     159.610 162.046 184.732  0.00  0.00    +0.052 HD
ATOM    114  H   UNL     1     161.341 161.756 185.094  0.00  0.00    +0.052 HD
ENDBRANCH 110 111
ENDBRANCH   9 110
BRANCH   5 115
ATOM    115  O   UNL     1     157.289 163.290 186.379  0.00  0.00    -0.377 OA
BRANCH 115 116
ATOM    116  C   UNL     1     156.639 162.101 185.950  0.00  0.00    +0.037 C 
ATOM    117  H   UNL     1     156.067 162.289 185.036  0.00  0.00    +0.052 HD
ATOM    118  H   UNL     1     155.982 161.706 186.731  0.00  0.00    +0.052 HD
ATOM    119  H   UNL     1     157.407 161.356 185.729  0.00  0.00    +0.052 HD
ENDBRANCH 115 116
ENDBRANCH   5 115
BRANCH   3 120
ATOM    120  O   UNL     1     155.548 167.138 186.200  0.00  0.00    -0.379 OA
BRANCH 120 121
ATOM    121  C   UNL     1     155.832 167.519 184.859  0.00  0.00    +0.037 C 
ATOM    122  H   UNL     1     156.788 168.041 184.797  0.00  0.00    +0.052 HD
ATOM    123  H   UNL     1     155.829 166.648 184.198  0.00  0.00    +0.052 HD
ATOM    124  H   UNL     1     155.046 168.202 184.525  0.00  0.00    +0.052 HD
ENDBRANCH 120 121
ENDBRANCH   3 120
TORSDOF 23
ENDMDL
MODEL 10
REMARK VINA RESULT:      -5.6     10.185     18.460
REMARK  Name = Lobophorolide_conf2
REMARK  23 active torsions:
REMARK  status: ('A' for Active; 'I' for Inactive)
REMARK    1  A    between atoms: C_1  and  C_2
REMARK    2  A    between atoms: C_4  and  O_53
REMARK    3  A    between atoms: C_6  and  C_8
REMARK    4  A    between atoms: C_8  and  C_9
REMARK    5  A    between atoms: C_9  and  C_10
REMARK    6  A    between atoms: C_10  and  C_11
REMARK    7  A    between atoms: C_10  and  C_12
REMARK    8  A    between atoms: C_12  and  C_13
REMARK    9  A    between atoms: C_12  and  O_52
REMARK   10  A    between atoms: C_13  and  C_14
REMARK   11  A    between atoms: C_13  and  C_15
REMARK   12  A    between atoms: C_16  and  C_51
REMARK   13  A    between atoms: C_17  and  O_49
REMARK   14  A    between atoms: C_19  and  O_47
REMARK   15  A    between atoms: C_23  and  O_45
REMARK   16  A    between atoms: C_32  and  O_43
REMARK   17  A    between atoms: C_33  and  O_42
REMARK   18  A    between atoms: C_35  and  C_41
REMARK   19  A    between atoms: O_43  and  C_44
REMARK   20  A    between atoms: O_45  and  C_46
REMARK   21  A    between atoms: O_47  and  C_48
REMARK   22  A    between atoms: O_49  and  C_50
REMARK   23  A    between atoms: O_53  and  C_54
REMARK                            x       y       z     vdW  Elec       q    Type
REMARK                         _______ _______ _______ _____ _____    ______ ____
ROOT
ATOM      1  C   UNL     1     144.582 170.100 189.490  0.00  0.00    +0.113 C 
ATOM      2  C   UNL     1     144.000 169.892 188.059  0.00  0.00    +0.020 C 
ATOM      3  C   UNL     1     142.522 169.374 188.109  0.00  0.00    +0.067 C 
ATOM      4  C   UNL     1     141.676 169.955 186.947  0.00  0.00    +0.003 C 
ATOM      5  C   UNL     1     140.641 171.017 187.394  0.00  0.00    +0.094 C 
ATOM      6  C   UNL     1     139.400 170.476 188.100  0.00  0.00    +0.145 C 
ATOM      7  C   UNL     1     138.727 169.219 187.550  0.00  0.00    +0.083 C 
ATOM      8  O   UNL     1     139.540 169.190 188.728  0.00  0.00    -0.363 OA
ATOM      9  C   UNL     1     138.489 171.483 188.815  0.00  0.00    +0.094 C 
ATOM     10  C   UNL     1     137.854 170.898 190.093  0.00  0.00    +0.003 C 
ATOM     11  C   UNL     1     136.734 171.699 190.777  0.00  0.00    +0.065 C 
ATOM     12  C   UNL     1     135.365 171.506 190.102  0.00  0.00    -0.008 C 
ATOM     13  C   UNL     1     134.333 172.351 190.781  0.00  0.00    -0.083 C 
ATOM     14  C   UNL     1     134.702 173.400 191.525  0.00  0.00    -0.059 C 
ATOM     15  C   UNL     1     136.138 173.838 191.700  0.00  0.00    +0.080 C 
ATOM     16  O   UNL     1     137.059 173.095 190.874  0.00  0.00    -0.369 OA
ATOM     17  C   UNL     1     136.588 173.775 193.169  0.00  0.00    +0.006 C 
ATOM     18  C   UNL     1     137.728 174.775 193.433  0.00  0.00    +0.090 C 
ATOM     19  C   UNL     1     138.769 174.219 194.438  0.00  0.00    +0.100 C 
ATOM     20  C   UNL     1     139.687 173.172 193.865  0.00  0.00    -0.051 C 
ATOM     21  C   UNL     1     140.610 173.309 192.890  0.00  0.00    -0.052 C 
ATOM     22  C   UNL     1     141.384 172.136 192.477  0.00  0.00    -0.052 C 
ATOM     23  C   UNL     1     142.303 172.120 191.501  0.00  0.00    +0.023 C 
ATOM     24  C   UNL     1     143.031 170.885 191.152  0.00  0.00    +0.332 C 
ATOM     25  O   UNL     1     142.926 169.808 191.714  0.00  0.00    -0.246 OA
ATOM     26  O   UNL     1     143.820 171.174 190.086  0.00  0.00    -0.458 OA
ATOM     27  H   UNL     1     144.461 169.169 190.055  0.00  0.00    +0.074 HD
ATOM     28  H   UNL     1     143.978 170.886 187.594  0.00  0.00    +0.036 HD
ATOM     29  H   UNL     1     142.044 169.630 189.059  0.00  0.00    +0.060 HD
ATOM     30  H   UNL     1     141.185 169.151 186.393  0.00  0.00    +0.032 HD
ATOM     31  H   UNL     1     142.345 170.430 186.220  0.00  0.00    +0.032 HD
ATOM     32  H   UNL     1     140.270 171.523 186.493  0.00  0.00    +0.063 HD
ATOM     33  H   UNL     1     139.103 168.748 186.654  0.00  0.00    +0.059 HD
ATOM     34  H   UNL     1     137.654 169.107 187.673  0.00  0.00    +0.059 HD
ATOM     35  H   UNL     1     139.068 172.364 189.121  0.00  0.00    +0.063 HD
ATOM     36  H   UNL     1     138.669 170.766 190.818  0.00  0.00    +0.032 HD
ATOM     37  H   UNL     1     137.455 169.894 189.904  0.00  0.00    +0.032 HD
ATOM     38  H   UNL     1     136.665 171.291 191.794  0.00  0.00    +0.060 HD
ATOM     39  H   UNL     1     135.073 170.451 190.159  0.00  0.00    +0.033 HD
ATOM     40  H   UNL     1     135.377 171.792 189.047  0.00  0.00    +0.033 HD
ATOM     41  H   UNL     1     133.286 172.097 190.651  0.00  0.00    +0.057 HD
ATOM     42  H   UNL     1     133.941 174.003 192.014  0.00  0.00    +0.059 HD
ATOM     43  H   UNL     1     136.190 174.875 191.347  0.00  0.00    +0.064 HD
ATOM     44  H   UNL     1     135.745 174.005 193.833  0.00  0.00    +0.032 HD
ATOM     45  H   UNL     1     136.918 172.758 193.403  0.00  0.00    +0.032 HD
ATOM     46  H   UNL     1     138.225 175.049 192.495  0.00  0.00    +0.063 HD
ATOM     47  H   UNL     1     138.243 173.793 195.302  0.00  0.00    +0.066 HD
ATOM     48  H   UNL     1     139.550 172.191 194.318  0.00  0.00    +0.060 HD
ATOM     49  H   UNL     1     141.184 171.210 193.013  0.00  0.00    +0.062 HD
ATOM     50  H   UNL     1     142.559 172.992 190.914  0.00  0.00    +0.069 HD
ENDROOT
BRANCH  21  51
ATOM     51  C   UNL     1     140.900 174.615 192.191  0.00  0.00    -0.040 C 
ATOM     52  H   UNL     1     141.462 174.436 191.268  0.00  0.00    +0.028 HD
ATOM     53  H   UNL     1     141.484 175.282 192.831  0.00  0.00    +0.028 HD
ATOM     54  H   UNL     1     140.004 175.177 191.924  0.00  0.00    +0.028 HD
ENDBRANCH  21  51
BRANCH   2  55
ATOM     55  C   UNL     1     144.873 168.982 187.182  0.00  0.00    -0.057 C 
ATOM     56  H   UNL     1     145.850 168.812 187.645  0.00  0.00    +0.023 HD
ATOM     57  H   UNL     1     144.421 167.997 187.039  0.00  0.00    +0.023 HD
ATOM     58  H   UNL     1     145.034 169.422 186.191  0.00  0.00    +0.023 HD
ENDBRANCH   2  55
BRANCH   1  59
ATOM     59  C   UNL     1     146.093 170.483 189.541  0.00  0.00    +0.020 C 
ATOM     60  H   UNL     1     146.585 169.958 188.714  0.00  0.00    +0.036 HD
BRANCH  59  61
ATOM     61  C   UNL     1     146.331 171.975 189.296  0.00  0.00    -0.057 C 
ATOM     62  H   UNL     1     147.351 172.266 189.566  0.00  0.00    +0.023 HD
ATOM     63  H   UNL     1     146.206 172.231 188.241  0.00  0.00    +0.023 HD
ATOM     64  H   UNL     1     145.624 172.591 189.854  0.00  0.00    +0.023 HD
ENDBRANCH  59  61
BRANCH  59  65
ATOM     65  C   UNL     1     146.780 169.959 190.841  0.00  0.00    +0.064 C 
ATOM     66  H   UNL     1     146.462 170.624 191.654  0.00  0.00    +0.060 HD
BRANCH  65  67
ATOM     67  C   UNL     1     148.336 169.854 190.876  0.00  0.00    -0.017 C 
ATOM     68  H   UNL     1     148.746 170.330 189.983  0.00  0.00    +0.032 HD
BRANCH  67  69
ATOM     69  C   UNL     1     148.835 170.675 192.079  0.00  0.00    -0.060 C 
ATOM     70  H   UNL     1     148.438 170.288 193.021  0.00  0.00    +0.023 HD
ATOM     71  H   UNL     1     148.538 171.729 191.998  0.00  0.00    +0.023 HD
ATOM     72  H   UNL     1     149.928 170.637 192.148  0.00  0.00    +0.023 HD
ENDBRANCH  67  69
BRANCH  67  73
ATOM     73  C   UNL     1     148.899 168.412 190.996  0.00  0.00    -0.046 C 
ATOM     74  H   UNL     1     149.789 168.299 190.373  0.00  0.00    +0.027 HD
ATOM     75  H   UNL     1     148.181 167.676 190.613  0.00  0.00    +0.027 HD
BRANCH  73  76
ATOM     76  C   UNL     1     149.306 167.996 192.423  0.00  0.00    -0.026 C 
ATOM     77  H   UNL     1     150.342 167.636 192.381  0.00  0.00    +0.029 HD
ATOM     78  H   UNL     1     149.302 168.876 193.074  0.00  0.00    +0.029 HD
BRANCH  76  83
ATOM     79  C   UNL     1     146.376 166.552 194.256  0.00  0.00    +0.059 C 
ATOM     80  C   UNL     1     147.100 165.633 195.240  0.00  0.00    -0.000 C 
ATOM     81  C   UNL     1     148.524 166.104 195.492  0.00  0.00    +0.063 C 
ATOM     82  C   UNL     1     149.264 166.175 194.160  0.00  0.00    -0.000 C 
ATOM     83  C   UNL     1     148.448 166.894 193.073  0.00  0.00    +0.061 C 
ATOM     84  O   UNL     1     147.271 167.479 193.629  0.00  0.00    -0.373 OA
ATOM     85  H   UNL     1     145.669 167.173 194.822  0.00  0.00    +0.059 HD
ATOM     86  H   UNL     1     146.541 165.584 196.185  0.00  0.00    +0.032 HD
ATOM     87  H   UNL     1     147.114 164.594 194.877  0.00  0.00    +0.032 HD
ATOM     88  H   UNL     1     148.497 167.094 195.964  0.00  0.00    +0.060 HD
ATOM     89  H   UNL     1     150.239 166.655 194.308  0.00  0.00    +0.032 HD
ATOM     90  H   UNL     1     149.513 165.164 193.810  0.00  0.00    +0.032 HD
ATOM     91  H   UNL     1     148.162 166.182 192.291  0.00  0.00    +0.060 HD
BRANCH  79  92
ATOM     92  C   UNL     1     145.559 165.770 193.231  0.00  0.00    -0.039 C 
ATOM     93  H   UNL     1     145.602 166.234 192.241  0.00  0.00    +0.025 HD
ATOM     94  H   UNL     1     145.933 164.747 193.142  0.00  0.00    +0.025 HD
ATOM     95  H   UNL     1     144.504 165.736 193.524  0.00  0.00    +0.025 HD
ENDBRANCH  79  92
BRANCH  81  96
ATOM     96  O   UNL     1     149.143 165.173 196.387  0.00  0.00    -0.380 OA
BRANCH  96  97
ATOM     97  C   UNL     1     150.557 165.099 196.234  0.00  0.00    +0.037 C 
ATOM     98  H   UNL     1     151.061 165.725 196.977  0.00  0.00    +0.052 HD
ATOM     99  H   UNL     1     150.862 164.061 196.391  0.00  0.00    +0.052 HD
ATOM    100  H   UNL     1     150.854 165.394 195.223  0.00  0.00    +0.052 HD
ENDBRANCH  96  97
ENDBRANCH  81  96
ENDBRANCH  76  83
ENDBRANCH  73  76
ENDBRANCH  67  73
ENDBRANCH  65  67
BRANCH  65 101
ATOM    101  O   UNL     1     146.227 168.674 191.165  0.00  0.00    -0.391 OA
ATOM    102  H   UNL     1     145.553 168.469 190.495  0.00  0.00    +0.210 HD
ENDBRANCH  65 101
ENDBRANCH  59  65
ENDBRANCH   1  59
BRANCH  19 103
ATOM    103  O   UNL     1     139.568 175.280 194.964  0.00  0.00    -0.385 OA
ATOM    104  H   UNL     1     140.485 174.958 194.879  0.00  0.00    +0.210 HD
ENDBRANCH  19 103
BRANCH  18 105
ATOM    105  O   UNL     1     137.136 175.959 194.028  0.00  0.00    -0.377 OA
BRANCH 105 106
ATOM    106  C   UNL     1     137.176 177.087 193.159  0.00  0.00    +0.037 C 
ATOM    107  H   UNL     1     136.181 177.294 192.751  0.00  0.00    +0.052 HD
ATOM    108  H   UNL     1     137.849 176.855 192.329  0.00  0.00    +0.052 HD
ATOM    109  H   UNL     1     137.561 177.964 193.687  0.00  0.00    +0.052 HD
ENDBRANCH 105 106
ENDBRANCH  18 105
BRANCH   9 110
ATOM    110  O   UNL     1     137.469 171.858 187.880  0.00  0.00    -0.377 OA
BRANCH 110 111
ATOM    111  C   UNL     1     137.648 173.175 187.381  0.00  0.00    +0.037 C 
ATOM    112  H   UNL     1     137.398 173.178 186.317  0.00  0.00    +0.052 HD
ATOM    113  H   UNL     1     138.689 173.487 187.495  0.00  0.00    +0.052 HD
ATOM    114  H   UNL     1     136.986 173.879 187.892  0.00  0.00    +0.052 HD
ENDBRANCH 110 111
ENDBRANCH   9 110
BRANCH   5 115
ATOM    115  O   UNL     1     141.286 171.977 188.246  0.00  0.00    -0.377 OA
BRANCH 115 116
ATOM    116  C   UNL     1     141.877 173.054 187.531  0.00  0.00    +0.037 C 
ATOM    117  H   UNL     1     142.637 173.547 188.145  0.00  0.00    +0.052 HD
ATOM    118  H   UNL     1     141.122 173.779 187.212  0.00  0.00    +0.052 HD
ATOM    119  H   UNL     1     142.364 172.644 186.643  0.00  0.00    +0.052 HD
ENDBRANCH 115 116
ENDBRANCH   5 115
BRANCH   3 120
ATOM    120  O   UNL     1     142.505 167.940 187.944  0.00  0.00    -0.379 OA
BRANCH 120 121
ATOM    121  C   UNL     1     142.286 167.234 189.159  0.00  0.00    +0.037 C 
ATOM    122  H   UNL     1     141.485 167.696 189.739  0.00  0.00    +0.052 HD
ATOM    123  H   UNL     1     142.057 166.182 188.964  0.00  0.00    +0.052 HD
ATOM    124  H   UNL     1     143.205 167.278 189.750  0.00  0.00    +0.052 HD
ENDBRANCH 120 121
ENDBRANCH   3 120
TORSDOF 23
ENDMDL
