MODEL 1
REMARK VINA RESULT:      -5.4      0.000      0.000
REMARK  Name = Lobophorolide_conf3
REMARK  23 active torsions:
REMARK  status: ('A' for Active; 'I' for Inactive)
REMARK    1  A    between atoms: C_1  and  C_2
REMARK    2  A    between atoms: C_4  and  O_53
REMARK    3  A    between atoms: C_6  and  C_8
REMARK    4  A    between atoms: C_8  and  C_9
REMARK    5  A    between atoms: C_9  and  C_10
REMARK    6  A    between atoms: C_10  and  C_11
REMARK    7  A    between atoms: C_10  and  C_12
REMARK    8  A    between atoms: C_12  and  C_13
REMARK    9  A    between atoms: C_12  and  O_52
REMARK   10  A    between atoms: C_13  and  C_14
REMARK   11  A    between atoms: C_13  and  C_15
REMARK   12  A    between atoms: C_16  and  C_51
REMARK   13  A    between atoms: C_17  and  O_49
REMARK   14  A    between atoms: C_19  and  O_47
REMARK   15  A    between atoms: C_23  and  O_45
REMARK   16  A    between atoms: C_32  and  O_43
REMARK   17  A    between atoms: C_33  and  O_42
REMARK   18  A    between atoms: C_35  and  C_41
REMARK   19  A    between atoms: O_43  and  C_44
REMARK   20  A    between atoms: O_45  and  C_46
REMARK   21  A    between atoms: O_47  and  C_48
REMARK   22  A    between atoms: O_49  and  C_50
REMARK   23  A    between atoms: O_53  and  C_54
REMARK                            x       y       z     vdW  Elec       q    Type
REMARK                         _______ _______ _______ _____ _____    ______ ____
ROOT
ATOM      1  C   UNL     1     153.881 165.316 188.201  0.00  0.00    +0.113 C 
ATOM      2  C   UNL     1     153.520 164.757 186.786  0.00  0.00    +0.020 C 
ATOM      3  C   UNL     1     152.718 163.427 186.704  0.00  0.00    +0.067 C 
ATOM      4  C   UNL     1     153.342 162.233 187.464  0.00  0.00    +0.003 C 
ATOM      5  C   UNL     1     152.536 160.930 187.248  0.00  0.00    +0.094 C 
ATOM      6  C   UNL     1     153.377 159.681 187.537  0.00  0.00    +0.145 C 
ATOM      7  C   UNL     1     153.379 159.110 188.951  0.00  0.00    +0.083 C 
ATOM      8  O   UNL     1     152.586 158.526 187.916  0.00  0.00    -0.363 OA
ATOM      9  C   UNL     1     154.470 159.278 186.541  0.00  0.00    +0.094 C 
ATOM     10  C   UNL     1     155.880 159.439 187.133  0.00  0.00    +0.003 C 
ATOM     11  C   UNL     1     157.031 159.120 186.154  0.00  0.00    +0.065 C 
ATOM     12  C   UNL     1     157.018 157.721 185.516  0.00  0.00    -0.008 C 
ATOM     13  C   UNL     1     157.449 156.668 186.488  0.00  0.00    -0.083 C 
ATOM     14  C   UNL     1     158.182 157.001 187.560  0.00  0.00    -0.059 C 
ATOM     15  C   UNL     1     158.625 158.421 187.856  0.00  0.00    +0.080 C 
ATOM     16  O   UNL     1     158.312 159.321 186.782  0.00  0.00    -0.369 OA
ATOM     17  C   UNL     1     160.138 158.447 188.111  0.00  0.00    +0.006 C 
ATOM     18  C   UNL     1     160.765 159.805 188.503  0.00  0.00    +0.090 C 
ATOM     19  C   UNL     1     160.088 160.537 189.700  0.00  0.00    +0.100 C 
ATOM     20  C   UNL     1     158.906 161.413 189.362  0.00  0.00    -0.051 C 
ATOM     21  C   UNL     1     158.528 162.545 189.992  0.00  0.00    -0.052 C 
ATOM     22  C   UNL     1     157.424 163.323 189.438  0.00  0.00    -0.052 C 
ATOM     23  C   UNL     1     157.125 164.582 189.787  0.00  0.00    +0.023 C 
ATOM     24  C   UNL     1     156.044 165.381 189.189  0.00  0.00    +0.332 C 
ATOM     25  O   UNL     1     156.069 166.602 189.221  0.00  0.00    -0.246 OA
ATOM     26  O   UNL     1     155.041 164.603 188.702  0.00  0.00    -0.458 OA
ATOM     27  H   UNL     1     154.156 166.359 188.020  0.00  0.00    +0.074 HD
ATOM     28  H   UNL     1     152.885 165.529 186.327  0.00  0.00    +0.036 HD
ATOM     29  H   UNL     1     152.670 163.129 185.648  0.00  0.00    +0.060 HD
ATOM     30  H   UNL     1     153.376 162.438 188.540  0.00  0.00    +0.032 HD
ATOM     31  H   UNL     1     154.372 162.099 187.121  0.00  0.00    +0.032 HD
ATOM     32  H   UNL     1     152.180 160.892 186.212  0.00  0.00    +0.063 HD
ATOM     33  H   UNL     1     154.217 158.530 189.313  0.00  0.00    +0.059 HD
ATOM     34  H   UNL     1     152.866 159.656 189.734  0.00  0.00    +0.059 HD
ATOM     35  H   UNL     1     154.328 158.220 186.280  0.00  0.00    +0.063 HD
ATOM     36  H   UNL     1     155.967 158.818 188.029  0.00  0.00    +0.032 HD
ATOM     37  H   UNL     1     156.017 160.469 187.484  0.00  0.00    +0.032 HD
ATOM     38  H   UNL     1     156.986 159.854 185.339  0.00  0.00    +0.060 HD
ATOM     39  H   UNL     1     157.736 157.704 184.686  0.00  0.00    +0.033 HD
ATOM     40  H   UNL     1     156.041 157.478 185.093  0.00  0.00    +0.033 HD
ATOM     41  H   UNL     1     157.176 155.634 186.302  0.00  0.00    +0.057 HD
ATOM     42  H   UNL     1     158.469 156.232 188.273  0.00  0.00    +0.059 HD
ATOM     43  H   UNL     1     158.095 158.748 188.756  0.00  0.00    +0.064 HD
ATOM     44  H   UNL     1     160.373 157.729 188.909  0.00  0.00    +0.032 HD
ATOM     45  H   UNL     1     160.641 158.085 187.207  0.00  0.00    +0.032 HD
ATOM     46  H   UNL     1     161.782 159.566 188.848  0.00  0.00    +0.063 HD
ATOM     47  H   UNL     1     160.866 161.176 190.134  0.00  0.00    +0.066 HD
ATOM     48  H   UNL     1     158.391 161.140 188.446  0.00  0.00    +0.060 HD
ATOM     49  H   UNL     1     156.845 162.846 188.649  0.00  0.00    +0.062 HD
ATOM     50  H   UNL     1     157.711 165.137 190.509  0.00  0.00    +0.069 HD
ENDROOT
BRANCH  21  51
ATOM     51  C   UNL     1     159.190 163.049 191.250  0.00  0.00    -0.040 C 
ATOM     52  H   UNL     1     160.264 163.228 191.127  0.00  0.00    +0.028 HD
ATOM     53  H   UNL     1     158.733 163.994 191.569  0.00  0.00    +0.028 HD
ATOM     54  H   UNL     1     159.099 162.322 192.065  0.00  0.00    +0.028 HD
ENDBRANCH  21  51
BRANCH   2  55
ATOM     55  C   UNL     1     154.776 164.672 185.903  0.00  0.00    -0.057 C 
ATOM     56  H   UNL     1     155.671 164.934 186.481  0.00  0.00    +0.023 HD
ATOM     57  H   UNL     1     154.926 163.671 185.490  0.00  0.00    +0.023 HD
ATOM     58  H   UNL     1     154.708 165.375 185.066  0.00  0.00    +0.023 HD
ENDBRANCH   2  55
BRANCH   1  59
ATOM     59  C   UNL     1     152.750 165.293 189.271  0.00  0.00    +0.020 C 
ATOM     60  H   UNL     1     151.854 164.915 188.768  0.00  0.00    +0.036 HD
BRANCH  59  61
ATOM     61  C   UNL     1     152.964 164.251 190.381  0.00  0.00    -0.057 C 
ATOM     62  H   UNL     1     153.142 163.258 189.954  0.00  0.00    +0.023 HD
ATOM     63  H   UNL     1     153.848 164.496 190.981  0.00  0.00    +0.023 HD
ATOM     64  H   UNL     1     152.108 164.184 191.058  0.00  0.00    +0.023 HD
ENDBRANCH  59  61
BRANCH  59  65
ATOM     65  C   UNL     1     152.409 166.699 189.848  0.00  0.00    +0.064 C 
ATOM     66  H   UNL     1     152.865 166.827 190.834  0.00  0.00    +0.060 HD
BRANCH  65  67
ATOM     67  C   UNL     1     150.903 167.104 189.965  0.00  0.00    -0.017 C 
ATOM     68  H   UNL     1     150.752 168.000 189.361  0.00  0.00    +0.032 HD
BRANCH  67  69
ATOM     69  C   UNL     1     149.980 166.001 189.443  0.00  0.00    -0.060 C 
ATOM     70  H   UNL     1     150.539 165.191 188.967  0.00  0.00    +0.023 HD
ATOM     71  H   UNL     1     149.266 166.395 188.713  0.00  0.00    +0.023 HD
ATOM     72  H   UNL     1     149.423 165.526 190.252  0.00  0.00    +0.023 HD
ENDBRANCH  67  69
BRANCH  67  73
ATOM     73  C   UNL     1     150.568 167.486 191.433  0.00  0.00    -0.046 C 
ATOM     74  H   UNL     1     150.664 168.578 191.518  0.00  0.00    +0.027 HD
ATOM     75  H   UNL     1     149.513 167.261 191.640  0.00  0.00    +0.027 HD
BRANCH  73  76
ATOM     76  C   UNL     1     151.408 166.879 192.564  0.00  0.00    -0.026 C 
ATOM     77  H   UNL     1     152.357 166.478 192.189  0.00  0.00    +0.029 HD
ATOM     78  H   UNL     1     151.721 167.716 193.206  0.00  0.00    +0.029 HD
BRANCH  76  83
ATOM     79  C   UNL     1     148.729 166.616 194.615  0.00  0.00    +0.059 C 
ATOM     80  C   UNL     1     148.861 165.544 195.692  0.00  0.00    -0.000 C 
ATOM     81  C   UNL     1     150.325 165.143 195.908  0.00  0.00    +0.063 C 
ATOM     82  C   UNL     1     151.271 165.831 194.922  0.00  0.00    -0.000 C 
ATOM     83  C   UNL     1     150.729 165.851 193.490  0.00  0.00    +0.061 C 
ATOM     84  O   UNL     1     149.319 166.130 193.411  0.00  0.00    -0.373 OA
ATOM     85  H   UNL     1     149.225 167.546 194.917  0.00  0.00    +0.059 HD
ATOM     86  H   UNL     1     148.435 165.905 196.634  0.00  0.00    +0.032 HD
ATOM     87  H   UNL     1     148.276 164.662 195.398  0.00  0.00    +0.032 HD
ATOM     88  H   UNL     1     150.641 165.423 196.921  0.00  0.00    +0.060 HD
ATOM     89  H   UNL     1     151.429 166.859 195.267  0.00  0.00    +0.032 HD
ATOM     90  H   UNL     1     152.240 165.325 194.940  0.00  0.00    +0.032 HD
ATOM     91  H   UNL     1     150.859 164.854 193.052  0.00  0.00    +0.060 HD
BRANCH  79  92
ATOM     92  C   UNL     1     147.267 166.928 194.327  0.00  0.00    -0.039 C 
ATOM     93  H   UNL     1     146.601 166.232 194.844  0.00  0.00    +0.025 HD
ATOM     94  H   UNL     1     147.027 167.945 194.645  0.00  0.00    +0.025 HD
ATOM     95  H   UNL     1     147.060 166.878 193.250  0.00  0.00    +0.025 HD
ENDBRANCH  79  92
BRANCH  81  96
ATOM     96  O   UNL     1     150.483 163.724 195.765  0.00  0.00    -0.380 OA
BRANCH  96  97
ATOM     97  C   UNL     1     151.267 163.143 196.801  0.00  0.00    +0.037 C 
ATOM     98  H   UNL     1     151.426 163.873 197.604  0.00  0.00    +0.052 HD
ATOM     99  H   UNL     1     152.239 162.867 196.384  0.00  0.00    +0.052 HD
ATOM    100  H   UNL     1     150.793 162.241 197.205  0.00  0.00    +0.052 HD
ENDBRANCH  96  97
ENDBRANCH  81  96
ENDBRANCH  76  83
ENDBRANCH  73  76
ENDBRANCH  67  73
ENDBRANCH  65  67
BRANCH  65 101
ATOM    101  O   UNL     1     153.052 167.658 188.992  0.00  0.00    -0.391 OA
ATOM    102  H   UNL     1     153.019 167.285 188.086  0.00  0.00    +0.210 HD
ENDBRANCH  65 101
ENDBRANCH  59  65
ENDBRANCH   1  59
BRANCH  19 103
ATOM    103  O   UNL     1     159.704 159.599 190.704  0.00  0.00    -0.385 OA
ATOM    104  H   UNL     1     159.740 160.060 191.562  0.00  0.00    +0.210 HD
ENDBRANCH  19 103
BRANCH  18 105
ATOM    105  O   UNL     1     160.875 160.704 187.390  0.00  0.00    -0.377 OA
BRANCH 105 106
ATOM    106  C   UNL     1     161.753 160.248 186.371  0.00  0.00    +0.037 C 
ATOM    107  H   UNL     1     161.929 159.169 186.432  0.00  0.00    +0.052 HD
ATOM    108  H   UNL     1     161.296 160.470 185.402  0.00  0.00    +0.052 HD
ATOM    109  H   UNL     1     162.705 160.786 186.434  0.00  0.00    +0.052 HD
ENDBRANCH 105 106
ENDBRANCH  18 105
BRANCH   9 110
ATOM    110  O   UNL     1     154.390 160.076 185.350  0.00  0.00    -0.377 OA
BRANCH 110 111
ATOM    111  C   UNL     1     153.859 159.355 184.244  0.00  0.00    +0.037 C 
ATOM    112  H   UNL     1     154.144 158.302 184.308  0.00  0.00    +0.052 HD
ATOM    113  H   UNL     1     154.283 159.772 183.328  0.00  0.00    +0.052 HD
ATOM    114  H   UNL     1     152.769 159.448 184.197  0.00  0.00    +0.052 HD
ENDBRANCH 110 111
ENDBRANCH   9 110
BRANCH   5 115
ATOM    115  O   UNL     1     151.402 160.983 188.137  0.00  0.00    -0.377 OA
BRANCH 115 116
ATOM    116  C   UNL     1     150.181 160.623 187.506  0.00  0.00    +0.037 C 
ATOM    117  H   UNL     1     149.329 161.030 188.059  0.00  0.00    +0.052 HD
ATOM    118  H   UNL     1     150.151 160.975 186.471  0.00  0.00    +0.052 HD
ATOM    119  H   UNL     1     150.103 159.533 187.507  0.00  0.00    +0.052 HD
ENDBRANCH 115 116
ENDBRANCH   5 115
BRANCH   3 120
ATOM    120  O   UNL     1     151.375 163.655 187.165  0.00  0.00    -0.379 OA
BRANCH 120 121
ATOM    121  C   UNL     1     150.522 164.196 186.164  0.00  0.00    +0.037 C 
ATOM    122  H   UNL     1     151.022 165.061 185.722  0.00  0.00    +0.052 HD
ATOM    123  H   UNL     1     149.580 164.530 186.606  0.00  0.00    +0.052 HD
ATOM    124  H   UNL     1     150.329 163.466 185.373  0.00  0.00    +0.052 HD
ENDBRANCH 120 121
ENDBRANCH   3 120
TORSDOF 23
ENDMDL
MODEL 2
REMARK VINA RESULT:      -5.2      2.185      3.227
REMARK  Name = Lobophorolide_conf3
REMARK  23 active torsions:
REMARK  status: ('A' for Active; 'I' for Inactive)
REMARK    1  A    between atoms: C_1  and  C_2
REMARK    2  A    between atoms: C_4  and  O_53
REMARK    3  A    between atoms: C_6  and  C_8
REMARK    4  A    between atoms: C_8  and  C_9
REMARK    5  A    between atoms: C_9  and  C_10
REMARK    6  A    between atoms: C_10  and  C_11
REMARK    7  A    between atoms: C_10  and  C_12
REMARK    8  A    between atoms: C_12  and  C_13
REMARK    9  A    between atoms: C_12  and  O_52
REMARK   10  A    between atoms: C_13  and  C_14
REMARK   11  A    between atoms: C_13  and  C_15
REMARK   12  A    between atoms: C_16  and  C_51
REMARK   13  A    between atoms: C_17  and  O_49
REMARK   14  A    between atoms: C_19  and  O_47
REMARK   15  A    between atoms: C_23  and  O_45
REMARK   16  A    between atoms: C_32  and  O_43
REMARK   17  A    between atoms: C_33  and  O_42
REMARK   18  A    between atoms: C_35  and  C_41
REMARK   19  A    between atoms: O_43  and  C_44
REMARK   20  A    between atoms: O_45  and  C_46
REMARK   21  A    between atoms: O_47  and  C_48
REMARK   22  A    between atoms: O_49  and  C_50
REMARK   23  A    between atoms: O_53  and  C_54
REMARK                            x       y       z     vdW  Elec       q    Type
REMARK                         _______ _______ _______ _____ _____    ______ ____
ROOT
ATOM      1  C   UNL     1     154.136 165.699 188.570  0.00  0.00    +0.113 C 
ATOM      2  C   UNL     1     153.698 165.359 187.108  0.00  0.00    +0.020 C 
ATOM      3  C   UNL     1     152.752 164.144 186.888  0.00  0.00    +0.067 C 
ATOM      4  C   UNL     1     153.247 162.806 187.483  0.00  0.00    +0.003 C 
ATOM      5  C   UNL     1     152.299 161.635 187.133  0.00  0.00    +0.094 C 
ATOM      6  C   UNL     1     152.997 160.276 187.250  0.00  0.00    +0.145 C 
ATOM      7  C   UNL     1     152.953 159.540 188.585  0.00  0.00    +0.083 C 
ATOM      8  O   UNL     1     152.087 159.176 187.508  0.00  0.00    -0.363 OA
ATOM      9  C   UNL     1     154.027 159.880 186.186  0.00  0.00    +0.094 C 
ATOM     10  C   UNL     1     155.453 159.812 186.757  0.00  0.00    +0.003 C 
ATOM     11  C   UNL     1     156.550 159.491 185.719  0.00  0.00    +0.065 C 
ATOM     12  C   UNL     1     156.373 158.189 184.919  0.00  0.00    -0.008 C 
ATOM     13  C   UNL     1     156.695 156.985 185.747  0.00  0.00    -0.083 C 
ATOM     14  C   UNL     1     157.473 157.103 186.832  0.00  0.00    -0.059 C 
ATOM     15  C   UNL     1     158.075 158.419 187.285  0.00  0.00    +0.080 C 
ATOM     16  O   UNL     1     157.852 159.472 186.335  0.00  0.00    -0.369 OA
ATOM     17  C   UNL     1     159.585 158.248 187.503  0.00  0.00    +0.006 C 
ATOM     18  C   UNL     1     160.365 159.472 188.039  0.00  0.00    +0.090 C 
ATOM     19  C   UNL     1     159.787 160.123 189.331  0.00  0.00    +0.100 C 
ATOM     20  C   UNL     1     158.706 161.157 189.129  0.00  0.00    -0.051 C 
ATOM     21  C   UNL     1     158.465 162.238 189.900  0.00  0.00    -0.052 C 
ATOM     22  C   UNL     1     157.448 163.195 189.470  0.00  0.00    -0.052 C 
ATOM     23  C   UNL     1     157.296 164.427 189.975  0.00  0.00    +0.023 C 
ATOM     24  C   UNL     1     156.304 165.406 189.504  0.00  0.00    +0.332 C 
ATOM     25  O   UNL     1     156.465 166.604 189.681  0.00  0.00    -0.246 OA
ATOM     26  O   UNL     1     155.214 164.807 188.953  0.00  0.00    -0.458 OA
ATOM     27  H   UNL     1     154.524 166.720 188.508  0.00  0.00    +0.074 HD
ATOM     28  H   UNL     1     153.148 166.245 186.760  0.00  0.00    +0.036 HD
ATOM     29  H   UNL     1     152.658 163.984 185.805  0.00  0.00    +0.060 HD
ATOM     30  H   UNL     1     153.316 162.874 188.575  0.00  0.00    +0.032 HD
ATOM     31  H   UNL     1     154.252 162.603 187.101  0.00  0.00    +0.032 HD
ATOM     32  H   UNL     1     151.928 161.763 186.110  0.00  0.00    +0.063 HD
ATOM     33  H   UNL     1     153.725 158.832 188.854  0.00  0.00    +0.059 HD
ATOM     34  H   UNL     1     152.513 160.040 189.441  0.00  0.00    +0.059 HD
ATOM     35  H   UNL     1     153.764 158.883 185.804  0.00  0.00    +0.063 HD
ATOM     36  H   UNL     1     155.481 159.081 187.570  0.00  0.00    +0.032 HD
ATOM     37  H   UNL     1     155.709 160.770 187.226  0.00  0.00    +0.032 HD
ATOM     38  H   UNL     1     156.578 160.318 184.999  0.00  0.00    +0.060 HD
ATOM     39  H   UNL     1     157.075 158.194 184.075  0.00  0.00    +0.033 HD
ATOM     40  H   UNL     1     155.371 158.108 184.494  0.00  0.00    +0.033 HD
ATOM     41  H   UNL     1     156.306 156.017 185.445  0.00  0.00    +0.057 HD
ATOM     42  H   UNL     1     157.681 156.226 187.441  0.00  0.00    +0.059 HD
ATOM     43  H   UNL     1     157.596 158.691 188.230  0.00  0.00    +0.064 HD
ATOM     44  H   UNL     1     159.748 157.417 188.203  0.00  0.00    +0.032 HD
ATOM     45  H   UNL     1     160.034 157.946 186.550  0.00  0.00    +0.032 HD
ATOM     46  H   UNL     1     161.352 159.082 188.327  0.00  0.00    +0.063 HD
ATOM     47  H   UNL     1     160.637 160.615 189.818  0.00  0.00    +0.066 HD
ATOM     48  H   UNL     1     158.153 161.055 188.201  0.00  0.00    +0.060 HD
ATOM     49  H   UNL     1     156.810 162.883 188.645  0.00  0.00    +0.062 HD
ATOM     50  H   UNL     1     157.948 164.823 190.744  0.00  0.00    +0.069 HD
ENDROOT
BRANCH  21  51
ATOM     51  C   UNL     1     159.194 162.511 191.192  0.00  0.00    -0.040 C 
ATOM     52  H   UNL     1     160.279 162.390 191.105  0.00  0.00    +0.028 HD
ATOM     53  H   UNL     1     159.002 163.537 191.529  0.00  0.00    +0.028 HD
ATOM     54  H   UNL     1     158.877 161.818 191.980  0.00  0.00    +0.028 HD
ENDBRANCH  21  51
BRANCH   2  55
ATOM     55  C   UNL     1     154.926 165.245 186.190  0.00  0.00    -0.057 C 
ATOM     56  H   UNL     1     155.210 166.231 185.802  0.00  0.00    +0.023 HD
ATOM     57  H   UNL     1     155.794 164.826 186.707  0.00  0.00    +0.023 HD
ATOM     58  H   UNL     1     154.706 164.604 185.329  0.00  0.00    +0.023 HD
ENDBRANCH   2  55
BRANCH   1  59
ATOM     59  C   UNL     1     153.022 165.670 189.658  0.00  0.00    +0.020 C 
ATOM     60  H   UNL     1     152.106 165.344 189.155  0.00  0.00    +0.036 HD
BRANCH  59  61
ATOM     61  C   UNL     1     153.216 164.576 190.720  0.00  0.00    -0.057 C 
ATOM     62  H   UNL     1     152.444 163.804 190.630  0.00  0.00    +0.023 HD
ATOM     63  H   UNL     1     154.180 164.070 190.587  0.00  0.00    +0.023 HD
ATOM     64  H   UNL     1     153.185 164.975 191.737  0.00  0.00    +0.023 HD
ENDBRANCH  59  61
BRANCH  59  65
ATOM     65  C   UNL     1     152.739 167.061 190.298  0.00  0.00    +0.064 C 
ATOM     66  H   UNL     1     153.677 167.540 190.598  0.00  0.00    +0.060 HD
BRANCH  65  67
ATOM     67  C   UNL     1     151.761 167.130 191.515  0.00  0.00    -0.017 C 
ATOM     68  H   UNL     1     151.334 166.136 191.655  0.00  0.00    +0.032 HD
BRANCH  67  69
ATOM     69  C   UNL     1     152.488 167.535 192.800  0.00  0.00    -0.060 C 
ATOM     70  H   UNL     1     151.812 167.995 193.526  0.00  0.00    +0.023 HD
ATOM     71  H   UNL     1     153.295 168.244 192.592  0.00  0.00    +0.023 HD
ATOM     72  H   UNL     1     152.910 166.670 193.313  0.00  0.00    +0.023 HD
ENDBRANCH  67  69
BRANCH  67  73
ATOM     73  C   UNL     1     150.581 168.090 191.197  0.00  0.00    -0.046 C 
ATOM     74  H   UNL     1     151.016 169.050 190.885  0.00  0.00    +0.027 HD
ATOM     75  H   UNL     1     150.027 167.714 190.327  0.00  0.00    +0.027 HD
BRANCH  73  76
ATOM     76  C   UNL     1     149.565 168.401 192.303  0.00  0.00    -0.026 C 
ATOM     77  H   UNL     1     148.772 167.647 192.344  0.00  0.00    +0.029 HD
ATOM     78  H   UNL     1     150.093 168.269 193.259  0.00  0.00    +0.029 HD
BRANCH  76  83
ATOM     79  C   UNL     1     147.521 170.381 190.471  0.00  0.00    +0.059 C 
ATOM     80  C   UNL     1     147.703 171.876 190.715  0.00  0.00    -0.000 C 
ATOM     81  C   UNL     1     149.057 172.175 191.372  0.00  0.00    +0.063 C 
ATOM     82  C   UNL     1     149.834 170.904 191.715  0.00  0.00    -0.000 C 
ATOM     83  C   UNL     1     148.953 169.815 192.337  0.00  0.00    +0.061 C 
ATOM     84  O   UNL     1     147.662 169.694 191.712  0.00  0.00    -0.373 OA
ATOM     85  H   UNL     1     148.261 170.002 189.756  0.00  0.00    +0.059 HD
ATOM     86  H   UNL     1     147.624 172.423 189.770  0.00  0.00    +0.032 HD
ATOM     87  H   UNL     1     146.892 172.239 191.361  0.00  0.00    +0.032 HD
ATOM     88  H   UNL     1     149.677 172.769 190.688  0.00  0.00    +0.060 HD
ATOM     89  H   UNL     1     150.287 170.524 190.793  0.00  0.00    +0.032 HD
ATOM     90  H   UNL     1     150.646 171.154 192.403  0.00  0.00    +0.032 HD
ATOM     91  H   UNL     1     148.754 170.080 193.382  0.00  0.00    +0.060 HD
BRANCH  79  92
ATOM     92  C   UNL     1     146.132 170.080 189.923  0.00  0.00    -0.039 C 
ATOM     93  H   UNL     1     145.792 169.086 190.224  0.00  0.00    +0.025 HD
ATOM     94  H   UNL     1     145.414 170.820 190.284  0.00  0.00    +0.025 HD
ATOM     95  H   UNL     1     146.122 170.140 188.827  0.00  0.00    +0.025 HD
ENDBRANCH  79  92
BRANCH  81  96
ATOM     96  O   UNL     1     148.873 172.930 192.578  0.00  0.00    -0.380 OA
BRANCH  96  97
ATOM     97  C   UNL     1     147.522 173.329 192.786  0.00  0.00    +0.037 C 
ATOM     98  H   UNL     1     147.063 172.707 193.563  0.00  0.00    +0.052 HD
ATOM     99  H   UNL     1     146.973 173.182 191.852  0.00  0.00    +0.052 HD
ATOM    100  H   UNL     1     147.456 174.386 193.065  0.00  0.00    +0.052 HD
ENDBRANCH  96  97
ENDBRANCH  81  96
ENDBRANCH  76  83
ENDBRANCH  73  76
ENDBRANCH  67  73
ENDBRANCH  65  67
BRANCH  65 101
ATOM    101  O   UNL     1     152.195 167.887 189.255  0.00  0.00    -0.391 OA
ATOM    102  H   UNL     1     151.301 167.534 189.062  0.00  0.00    +0.210 HD
ENDBRANCH  65 101
ENDBRANCH  59  65
ENDBRANCH   1  59
BRANCH  19 103
ATOM    103  O   UNL     1     159.313 159.117 190.225  0.00  0.00    -0.385 OA
ATOM    104  H   UNL     1     158.873 159.571 190.967  0.00  0.00    +0.210 HD
ENDBRANCH  19 103
BRANCH  18 105
ATOM    105  O   UNL     1     160.560 160.482 187.039  0.00  0.00    -0.377 OA
BRANCH 105 106
ATOM    106  C   UNL     1     161.864 161.047 187.044  0.00  0.00    +0.037 C 
ATOM    107  H   UNL     1     161.841 162.132 187.195  0.00  0.00    +0.052 HD
ATOM    108  H   UNL     1     162.428 160.595 187.865  0.00  0.00    +0.052 HD
ATOM    109  H   UNL     1     162.374 160.812 186.104  0.00  0.00    +0.052 HD
ENDBRANCH 105 106
ENDBRANCH  18 105
BRANCH   9 110
ATOM    110  O   UNL     1     154.023 160.821 185.101  0.00  0.00    -0.377 OA
BRANCH 110 111
ATOM    111  C   UNL     1     153.403 160.301 183.930  0.00  0.00    +0.037 C 
ATOM    112  H   UNL     1     152.955 159.326 184.140  0.00  0.00    +0.052 HD
ATOM    113  H   UNL     1     154.172 160.170 183.165  0.00  0.00    +0.052 HD
ATOM    114  H   UNL     1     152.643 160.989 183.546  0.00  0.00    +0.052 HD
ENDBRANCH 110 111
ENDBRANCH   9 110
BRANCH   5 115
ATOM    115  O   UNL     1     151.188 161.703 188.051  0.00  0.00    -0.377 OA
BRANCH 115 116
ATOM    116  C   UNL     1     149.926 161.579 187.409  0.00  0.00    +0.037 C 
ATOM    117  H   UNL     1     149.117 161.617 188.145  0.00  0.00    +0.052 HD
ATOM    118  H   UNL     1     149.782 162.363 186.662  0.00  0.00    +0.052 HD
ATOM    119  H   UNL     1     149.891 160.608 186.909  0.00  0.00    +0.052 HD
ENDBRANCH 115 116
ENDBRANCH   5 115
BRANCH   3 120
ATOM    120  O   UNL     1     151.448 164.460 187.406  0.00  0.00    -0.379 OA
BRANCH 120 121
ATOM    121  C   UNL     1     150.768 165.454 186.648  0.00  0.00    +0.037 C 
ATOM    122  H   UNL     1     151.383 165.700 185.779  0.00  0.00    +0.052 HD
ATOM    123  H   UNL     1     150.634 166.361 187.244  0.00  0.00    +0.052 HD
ATOM    124  H   UNL     1     149.800 165.088 186.296  0.00  0.00    +0.052 HD
ENDBRANCH 120 121
ENDBRANCH   3 120
TORSDOF 23
ENDMDL
MODEL 3
REMARK VINA RESULT:      -5.1      1.145      2.046
REMARK  Name = Lobophorolide_conf3
REMARK  23 active torsions:
REMARK  status: ('A' for Active; 'I' for Inactive)
REMARK    1  A    between atoms: C_1  and  C_2
REMARK    2  A    between atoms: C_4  and  O_53
REMARK    3  A    between atoms: C_6  and  C_8
REMARK    4  A    between atoms: C_8  and  C_9
REMARK    5  A    between atoms: C_9  and  C_10
REMARK    6  A    between atoms: C_10  and  C_11
REMARK    7  A    between atoms: C_10  and  C_12
REMARK    8  A    between atoms: C_12  and  C_13
REMARK    9  A    between atoms: C_12  and  O_52
REMARK   10  A    between atoms: C_13  and  C_14
REMARK   11  A    between atoms: C_13  and  C_15
REMARK   12  A    between atoms: C_16  and  C_51
REMARK   13  A    between atoms: C_17  and  O_49
REMARK   14  A    between atoms: C_19  and  O_47
REMARK   15  A    between atoms: C_23  and  O_45
REMARK   16  A    between atoms: C_32  and  O_43
REMARK   17  A    between atoms: C_33  and  O_42
REMARK   18  A    between atoms: C_35  and  C_41
REMARK   19  A    between atoms: O_43  and  C_44
REMARK   20  A    between atoms: O_45  and  C_46
REMARK   21  A    between atoms: O_47  and  C_48
REMARK   22  A    between atoms: O_49  and  C_50
REMARK   23  A    between atoms: O_53  and  C_54
REMARK                            x       y       z     vdW  Elec       q    Type
REMARK                         _______ _______ _______ _____ _____    ______ ____
ROOT
ATOM      1  C   UNL     1     154.135 165.640 188.541  0.00  0.00    +0.113 C 
ATOM      2  C   UNL     1     153.716 165.314 187.070  0.00  0.00    +0.020 C 
ATOM      3  C   UNL     1     152.785 164.093 186.825  0.00  0.00    +0.067 C 
ATOM      4  C   UNL     1     153.287 162.752 187.410  0.00  0.00    +0.003 C 
ATOM      5  C   UNL     1     152.354 161.576 187.035  0.00  0.00    +0.094 C 
ATOM      6  C   UNL     1     153.066 160.223 187.143  0.00  0.00    +0.145 C 
ATOM      7  C   UNL     1     153.014 159.471 188.469  0.00  0.00    +0.083 C 
ATOM      8  O   UNL     1     152.163 159.111 187.378  0.00  0.00    -0.363 OA
ATOM      9  C   UNL     1     154.110 159.850 186.086  0.00  0.00    +0.094 C 
ATOM     10  C   UNL     1     155.531 159.789 186.672  0.00  0.00    +0.003 C 
ATOM     11  C   UNL     1     156.642 159.492 185.642  0.00  0.00    +0.065 C 
ATOM     12  C   UNL     1     156.488 158.198 184.824  0.00  0.00    -0.008 C 
ATOM     13  C   UNL     1     156.812 156.987 185.641  0.00  0.00    -0.083 C 
ATOM     14  C   UNL     1     157.578 157.100 186.736  0.00  0.00    -0.059 C 
ATOM     15  C   UNL     1     158.161 158.417 187.211  0.00  0.00    +0.080 C 
ATOM     16  O   UNL     1     157.938 159.478 186.271  0.00  0.00    -0.369 OA
ATOM     17  C   UNL     1     159.670 158.258 187.444  0.00  0.00    +0.006 C 
ATOM     18  C   UNL     1     160.431 159.483 188.003  0.00  0.00    +0.090 C 
ATOM     19  C   UNL     1     159.833 160.112 189.297  0.00  0.00    +0.100 C 
ATOM     20  C   UNL     1     158.744 161.138 189.096  0.00  0.00    -0.051 C 
ATOM     21  C   UNL     1     158.484 162.207 189.876  0.00  0.00    -0.052 C 
ATOM     22  C   UNL     1     157.462 163.159 189.447  0.00  0.00    -0.052 C 
ATOM     23  C   UNL     1     157.292 164.384 189.965  0.00  0.00    +0.023 C 
ATOM     24  C   UNL     1     156.295 165.358 189.495  0.00  0.00    +0.332 C 
ATOM     25  O   UNL     1     156.442 166.555 189.688  0.00  0.00    -0.246 OA
ATOM     26  O   UNL     1     155.218 164.755 188.925  0.00  0.00    -0.458 OA
ATOM     27  H   UNL     1     154.513 166.666 188.495  0.00  0.00    +0.074 HD
ATOM     28  H   UNL     1     153.161 166.199 186.727  0.00  0.00    +0.036 HD
ATOM     29  H   UNL     1     152.705 163.945 185.739  0.00  0.00    +0.060 HD
ATOM     30  H   UNL     1     153.344 162.808 188.503  0.00  0.00    +0.032 HD
ATOM     31  H   UNL     1     154.298 162.564 187.036  0.00  0.00    +0.032 HD
ATOM     32  H   UNL     1     151.993 161.713 186.009  0.00  0.00    +0.063 HD
ATOM     33  H   UNL     1     153.790 158.767 188.737  0.00  0.00    +0.059 HD
ATOM     34  H   UNL     1     152.560 159.956 189.326  0.00  0.00    +0.059 HD
ATOM     35  H   UNL     1     153.862 158.856 185.689  0.00  0.00    +0.063 HD
ATOM     36  H   UNL     1     155.557 159.049 187.476  0.00  0.00    +0.032 HD
ATOM     37  H   UNL     1     155.772 160.745 187.155  0.00  0.00    +0.032 HD
ATOM     38  H   UNL     1     156.670 160.328 184.932  0.00  0.00    +0.060 HD
ATOM     39  H   UNL     1     157.198 158.220 183.989  0.00  0.00    +0.033 HD
ATOM     40  H   UNL     1     155.490 158.112 184.388  0.00  0.00    +0.033 HD
ATOM     41  H   UNL     1     156.436 156.020 185.324  0.00  0.00    +0.057 HD
ATOM     42  H   UNL     1     157.788 156.218 187.337  0.00  0.00    +0.059 HD
ATOM     43  H   UNL     1     157.669 158.672 188.154  0.00  0.00    +0.064 HD
ATOM     44  H   UNL     1     159.834 157.420 188.136  0.00  0.00    +0.032 HD
ATOM     45  H   UNL     1     160.132 157.972 186.492  0.00  0.00    +0.032 HD
ATOM     46  H   UNL     1     161.420 159.100 188.298  0.00  0.00    +0.063 HD
ATOM     47  H   UNL     1     160.673 160.607 189.799  0.00  0.00    +0.066 HD
ATOM     48  H   UNL     1     158.203 161.042 188.160  0.00  0.00    +0.060 HD
ATOM     49  H   UNL     1     156.837 162.850 188.612  0.00  0.00    +0.062 HD
ATOM     50  H   UNL     1     157.932 164.776 190.745  0.00  0.00    +0.069 HD
ENDROOT
BRANCH  21  51
ATOM     51  C   UNL     1     159.196 162.472 191.180  0.00  0.00    -0.040 C 
ATOM     52  H   UNL     1     160.261 162.220 191.144  0.00  0.00    +0.028 HD
ATOM     53  H   UNL     1     159.116 163.532 191.449  0.00  0.00    +0.028 HD
ATOM     54  H   UNL     1     158.772 161.870 191.992  0.00  0.00    +0.028 HD
ENDBRANCH  21  51
BRANCH   2  55
ATOM     55  C   UNL     1     154.955 165.223 186.164  0.00  0.00    -0.057 C 
ATOM     56  H   UNL     1     155.680 164.509 186.575  0.00  0.00    +0.023 HD
ATOM     57  H   UNL     1     154.706 164.900 185.150  0.00  0.00    +0.023 HD
ATOM     58  H   UNL     1     155.455 166.195 186.094  0.00  0.00    +0.023 HD
ENDBRANCH   2  55
BRANCH   1  59
ATOM     59  C   UNL     1     153.009 165.587 189.616  0.00  0.00    +0.020 C 
ATOM     60  H   UNL     1     152.064 165.501 189.071  0.00  0.00    +0.036 HD
BRANCH  59  61
ATOM     61  C   UNL     1     153.016 164.304 190.462  0.00  0.00    -0.057 C 
ATOM     62  H   UNL     1     153.917 163.713 190.265  0.00  0.00    +0.023 HD
ATOM     63  H   UNL     1     153.027 164.542 191.531  0.00  0.00    +0.023 HD
ATOM     64  H   UNL     1     152.144 163.674 190.268  0.00  0.00    +0.023 HD
ENDBRANCH  59  61
BRANCH  59  65
ATOM     65  C   UNL     1     152.929 166.868 190.498  0.00  0.00    +0.064 C 
ATOM     66  H   UNL     1     153.933 167.257 190.697  0.00  0.00    +0.060 HD
BRANCH  65  67
ATOM     67  C   UNL     1     152.177 166.777 191.866  0.00  0.00    -0.017 C 
ATOM     68  H   UNL     1     151.853 165.744 192.000  0.00  0.00    +0.032 HD
BRANCH  67  69
ATOM     69  C   UNL     1     153.087 167.159 193.036  0.00  0.00    -0.060 C 
ATOM     70  H   UNL     1     153.538 168.146 192.899  0.00  0.00    +0.023 HD
ATOM     71  H   UNL     1     153.895 166.432 193.163  0.00  0.00    +0.023 HD
ATOM     72  H   UNL     1     152.531 167.228 193.972  0.00  0.00    +0.023 HD
ENDBRANCH  67  69
BRANCH  67  73
ATOM     73  C   UNL     1     150.894 167.653 191.827  0.00  0.00    -0.046 C 
ATOM     74  H   UNL     1     150.783 168.116 192.818  0.00  0.00    +0.027 HD
ATOM     75  H   UNL     1     151.037 168.483 191.122  0.00  0.00    +0.027 HD
BRANCH  73  76
ATOM     76  C   UNL     1     149.554 166.983 191.498  0.00  0.00    -0.026 C 
ATOM     77  H   UNL     1     149.158 167.326 190.536  0.00  0.00    +0.029 HD
ATOM     78  H   UNL     1     149.771 165.919 191.321  0.00  0.00    +0.029 HD
BRANCH  76  83
ATOM     79  C   UNL     1     148.913 165.802 194.605  0.00  0.00    +0.059 C 
ATOM     80  C   UNL     1     147.431 165.715 194.954  0.00  0.00    -0.000 C 
ATOM     81  C   UNL     1     146.556 165.736 193.695  0.00  0.00    +0.063 C 
ATOM     82  C   UNL     1     147.373 165.947 192.419  0.00  0.00    -0.000 C 
ATOM     83  C   UNL     1     148.448 167.027 192.571  0.00  0.00    +0.061 C 
ATOM     84  O   UNL     1     149.133 166.983 193.837  0.00  0.00    -0.373 OA
ATOM     85  H   UNL     1     149.239 164.926 194.032  0.00  0.00    +0.059 HD
ATOM     86  H   UNL     1     147.233 164.802 195.525  0.00  0.00    +0.032 HD
ATOM     87  H   UNL     1     147.162 166.559 195.604  0.00  0.00    +0.032 HD
ATOM     88  H   UNL     1     146.027 164.779 193.595  0.00  0.00    +0.060 HD
ATOM     89  H   UNL     1     147.846 164.994 192.159  0.00  0.00    +0.032 HD
ATOM     90  H   UNL     1     146.699 166.214 191.601  0.00  0.00    +0.032 HD
ATOM     91  H   UNL     1     147.966 168.011 192.529  0.00  0.00    +0.060 HD
BRANCH  79  92
ATOM     92  C   UNL     1     149.769 165.894 195.861  0.00  0.00    -0.039 C 
ATOM     93  H   UNL     1     149.250 165.479 196.729  0.00  0.00    +0.025 HD
ATOM     94  H   UNL     1     150.707 165.353 195.721  0.00  0.00    +0.025 HD
ATOM     95  H   UNL     1     150.036 166.937 196.077  0.00  0.00    +0.025 HD
ENDBRANCH  79  92
BRANCH  81  96
ATOM     96  O   UNL     1     145.578 166.782 193.781  0.00  0.00    -0.380 OA
BRANCH  96  97
ATOM     97  C   UNL     1     144.268 166.351 193.429  0.00  0.00    +0.037 C 
ATOM     98  H   UNL     1     144.319 165.637 192.600  0.00  0.00    +0.052 HD
ATOM     99  H   UNL     1     143.694 167.223 193.104  0.00  0.00    +0.052 HD
ATOM    100  H   UNL     1     143.753 165.895 194.283  0.00  0.00    +0.052 HD
ENDBRANCH  96  97
ENDBRANCH  81  96
ENDBRANCH  76  83
ENDBRANCH  73  76
ENDBRANCH  67  73
ENDBRANCH  65  67
BRANCH  65 101
ATOM    101  O   UNL     1     152.271 167.870 189.705  0.00  0.00    -0.391 OA
ATOM    102  H   UNL     1     152.464 167.651 188.770  0.00  0.00    +0.210 HD
ENDBRANCH  65 101
ENDBRANCH  59  65
ENDBRANCH   1  59
BRANCH  19 103
ATOM    103  O   UNL     1     159.360 159.091 190.173  0.00  0.00    -0.385 OA
ATOM    104  H   UNL     1     158.529 159.410 190.569  0.00  0.00    +0.210 HD
ENDBRANCH  19 103
BRANCH  18 105
ATOM    105  O   UNL     1     160.628 160.507 187.017  0.00  0.00    -0.377 OA
BRANCH 105 106
ATOM    106  C   UNL     1     161.644 160.203 186.072  0.00  0.00    +0.037 C 
ATOM    107  H   UNL     1     161.522 160.768 185.141  0.00  0.00    +0.052 HD
ATOM    108  H   UNL     1     162.610 160.466 186.512  0.00  0.00    +0.052 HD
ATOM    109  H   UNL     1     161.643 159.129 185.859  0.00  0.00    +0.052 HD
ENDBRANCH 105 106
ENDBRANCH  18 105
BRANCH   9 110
ATOM    110  O   UNL     1     154.109 160.804 185.012  0.00  0.00    -0.377 OA
BRANCH 110 111
ATOM    111  C   UNL     1     153.503 160.294 183.830  0.00  0.00    +0.037 C 
ATOM    112  H   UNL     1     153.807 160.886 182.963  0.00  0.00    +0.052 HD
ATOM    113  H   UNL     1     152.419 160.373 183.939  0.00  0.00    +0.052 HD
ATOM    114  H   UNL     1     153.762 159.241 183.675  0.00  0.00    +0.052 HD
ENDBRANCH 110 111
ENDBRANCH   9 110
BRANCH   5 115
ATOM    115  O   UNL     1     151.233 161.622 187.941  0.00  0.00    -0.377 OA
BRANCH 115 116
ATOM    116  C   UNL     1     149.980 161.480 187.286  0.00  0.00    +0.037 C 
ATOM    117  H   UNL     1     149.547 162.461 187.070  0.00  0.00    +0.052 HD
ATOM    118  H   UNL     1     150.080 160.909 186.360  0.00  0.00    +0.052 HD
ATOM    119  H   UNL     1     149.303 160.944 187.956  0.00  0.00    +0.052 HD
ENDBRANCH 115 116
ENDBRANCH   5 115
BRANCH   3 120
ATOM    120  O   UNL     1     151.472 164.389 187.332  0.00  0.00    -0.379 OA
BRANCH 120 121
ATOM    121  C   UNL     1     150.773 165.352 186.553  0.00  0.00    +0.037 C 
ATOM    122  H   UNL     1     151.470 165.771 185.823  0.00  0.00    +0.052 HD
ATOM    123  H   UNL     1     150.409 166.164 187.187  0.00  0.00    +0.052 HD
ATOM    124  H   UNL     1     149.940 164.893 186.014  0.00  0.00    +0.052 HD
ENDBRANCH 120 121
ENDBRANCH   3 120
TORSDOF 23
ENDMDL
MODEL 4
REMARK VINA RESULT:      -5.0     19.847     23.996
REMARK  Name = Lobophorolide_conf3
REMARK  23 active torsions:
REMARK  status: ('A' for Active; 'I' for Inactive)
REMARK    1  A    between atoms: C_1  and  C_2
REMARK    2  A    between atoms: C_4  and  O_53
REMARK    3  A    between atoms: C_6  and  C_8
REMARK    4  A    between atoms: C_8  and  C_9
REMARK    5  A    between atoms: C_9  and  C_10
REMARK    6  A    between atoms: C_10  and  C_11
REMARK    7  A    between atoms: C_10  and  C_12
REMARK    8  A    between atoms: C_12  and  C_13
REMARK    9  A    between atoms: C_12  and  O_52
REMARK   10  A    between atoms: C_13  and  C_14
REMARK   11  A    between atoms: C_13  and  C_15
REMARK   12  A    between atoms: C_16  and  C_51
REMARK   13  A    between atoms: C_17  and  O_49
REMARK   14  A    between atoms: C_19  and  O_47
REMARK   15  A    between atoms: C_23  and  O_45
REMARK   16  A    between atoms: C_32  and  O_43
REMARK   17  A    between atoms: C_33  and  O_42
REMARK   18  A    between atoms: C_35  and  C_41
REMARK   19  A    between atoms: O_43  and  C_44
REMARK   20  A    between atoms: O_45  and  C_46
REMARK   21  A    between atoms: O_47  and  C_48
REMARK   22  A    between atoms: O_49  and  C_50
REMARK   23  A    between atoms: O_53  and  C_54
REMARK                            x       y       z     vdW  Elec       q    Type
REMARK                         _______ _______ _______ _____ _____    ______ ____
ROOT
ATOM      1  C   UNL     1     142.596 184.815 190.428  0.00  0.00    +0.113 C 
ATOM      2  C   UNL     1     142.406 184.037 189.085  0.00  0.00    +0.020 C 
ATOM      3  C   UNL     1     143.052 182.627 188.956  0.00  0.00    +0.067 C 
ATOM      4  C   UNL     1     144.569 182.567 189.250  0.00  0.00    +0.003 C 
ATOM      5  C   UNL     1     145.146 181.153 189.001  0.00  0.00    +0.094 C 
ATOM      6  C   UNL     1     146.663 181.183 188.781  0.00  0.00    +0.145 C 
ATOM      7  C   UNL     1     147.582 181.038 189.990  0.00  0.00    +0.083 C 
ATOM      8  O   UNL     1     147.322 179.935 189.119  0.00  0.00    -0.363 OA
ATOM      9  C   UNL     1     147.208 181.737 187.461  0.00  0.00    +0.094 C 
ATOM     10  C   UNL     1     147.972 183.057 187.658  0.00  0.00    +0.003 C 
ATOM     11  C   UNL     1     148.484 183.708 186.354  0.00  0.00    +0.065 C 
ATOM     12  C   UNL     1     149.396 182.841 185.470  0.00  0.00    -0.008 C 
ATOM     13  C   UNL     1     150.773 182.725 186.045  0.00  0.00    -0.083 C 
ATOM     14  C   UNL     1     151.218 183.643 186.916  0.00  0.00    -0.059 C 
ATOM     15  C   UNL     1     150.391 184.833 187.365  0.00  0.00    +0.080 C 
ATOM     16  O   UNL     1     149.164 184.947 186.630  0.00  0.00    -0.369 OA
ATOM     17  C   UNL     1     151.207 186.122 187.189  0.00  0.00    +0.006 C 
ATOM     18  C   UNL     1     150.553 187.441 187.664  0.00  0.00    +0.090 C 
ATOM     19  C   UNL     1     150.015 187.436 189.126  0.00  0.00    +0.100 C 
ATOM     20  C   UNL     1     148.612 186.911 189.317  0.00  0.00    -0.051 C 
ATOM     21  C   UNL     1     147.718 187.307 190.247  0.00  0.00    -0.052 C 
ATOM     22  C   UNL     1     146.363 186.766 190.194  0.00  0.00    -0.052 C 
ATOM     23  C   UNL     1     145.314 187.264 190.865  0.00  0.00    +0.023 C 
ATOM     24  C   UNL     1     143.940 186.749 190.768  0.00  0.00    +0.332 C 
ATOM     25  O   UNL     1     142.980 187.452 191.044  0.00  0.00    -0.246 OA
ATOM     26  O   UNL     1     143.909 185.432 190.430  0.00  0.00    -0.458 OA
ATOM     27  H   UNL     1     141.834 185.601 190.397  0.00  0.00    +0.074 HD
ATOM     28  H   UNL     1     141.321 183.889 188.990  0.00  0.00    +0.036 HD
ATOM     29  H   UNL     1     142.925 182.295 187.917  0.00  0.00    +0.060 HD
ATOM     30  H   UNL     1     144.769 182.839 190.292  0.00  0.00    +0.032 HD
ATOM     31  H   UNL     1     145.078 183.298 188.614  0.00  0.00    +0.032 HD
ATOM     32  H   UNL     1     144.663 180.714 188.121  0.00  0.00    +0.063 HD
ATOM     33  H   UNL     1     148.583 181.447 189.977  0.00  0.00    +0.059 HD
ATOM     34  H   UNL     1     147.141 181.015 190.980  0.00  0.00    +0.059 HD
ATOM     35  H   UNL     1     147.904 181.000 187.037  0.00  0.00    +0.063 HD
ATOM     36  H   UNL     1     148.806 182.890 188.346  0.00  0.00    +0.032 HD
ATOM     37  H   UNL     1     147.326 183.786 188.162  0.00  0.00    +0.032 HD
ATOM     38  H   UNL     1     147.608 183.981 185.754  0.00  0.00    +0.060 HD
ATOM     39  H   UNL     1     149.499 183.321 184.489  0.00  0.00    +0.033 HD
ATOM     40  H   UNL     1     148.969 181.852 185.294  0.00  0.00    +0.033 HD
ATOM     41  H   UNL     1     151.409 181.903 185.733  0.00  0.00    +0.057 HD
ATOM     42  H   UNL     1     152.211 183.536 187.347  0.00  0.00    +0.059 HD
ATOM     43  H   UNL     1     150.156 184.689 188.423  0.00  0.00    +0.064 HD
ATOM     44  H   UNL     1     152.160 186.011 187.725  0.00  0.00    +0.032 HD
ATOM     45  H   UNL     1     151.455 186.224 186.127  0.00  0.00    +0.032 HD
ATOM     46  H   UNL     1     151.363 188.185 187.656  0.00  0.00    +0.063 HD
ATOM     47  H   UNL     1     150.029 188.484 189.448  0.00  0.00    +0.066 HD
ATOM     48  H   UNL     1     148.279 186.226 188.544  0.00  0.00    +0.060 HD
ATOM     49  H   UNL     1     146.203 185.930 189.516  0.00  0.00    +0.062 HD
ATOM     50  H   UNL     1     145.393 188.141 191.494  0.00  0.00    +0.069 HD
ENDROOT
BRANCH  21  51
ATOM     51  C   UNL     1     148.050 188.284 191.348  0.00  0.00    -0.040 C 
ATOM     52  H   UNL     1     148.145 189.315 190.991  0.00  0.00    +0.028 HD
ATOM     53  H   UNL     1     147.267 188.272 192.116  0.00  0.00    +0.028 HD
ATOM     54  H   UNL     1     149.009 188.040 191.819  0.00  0.00    +0.028 HD
ENDBRANCH  21  51
BRANCH   2  55
ATOM     55  C   UNL     1     142.814 184.915 187.891  0.00  0.00    -0.057 C 
ATOM     56  H   UNL     1     143.091 184.291 187.032  0.00  0.00    +0.023 HD
ATOM     57  H   UNL     1     142.010 185.584 187.573  0.00  0.00    +0.023 HD
ATOM     58  H   UNL     1     143.684 185.531 188.144  0.00  0.00    +0.023 HD
ENDBRANCH   2  55
BRANCH   1  59
ATOM     59  C   UNL     1     142.398 184.002 191.741  0.00  0.00    +0.020 C 
ATOM     60  H   UNL     1     142.041 183.011 191.442  0.00  0.00    +0.036 HD
BRANCH  59  61
ATOM     61  C   UNL     1     143.710 183.669 192.471  0.00  0.00    -0.057 C 
ATOM     62  H   UNL     1     144.100 182.698 192.146  0.00  0.00    +0.023 HD
ATOM     63  H   UNL     1     144.484 184.409 192.239  0.00  0.00    +0.023 HD
ATOM     64  H   UNL     1     143.586 183.642 193.556  0.00  0.00    +0.023 HD
ENDBRANCH  59  61
BRANCH  59  65
ATOM     65  C   UNL     1     141.336 184.616 192.701  0.00  0.00    +0.064 C 
ATOM     66  H   UNL     1     140.557 185.128 192.129  0.00  0.00    +0.060 HD
BRANCH  65  67
ATOM     67  C   UNL     1     141.826 185.596 193.817  0.00  0.00    -0.017 C 
ATOM     68  H   UNL     1     142.898 185.748 193.678  0.00  0.00    +0.032 HD
BRANCH  67  69
ATOM     69  C   UNL     1     141.125 186.952 193.724  0.00  0.00    -0.060 C 
ATOM     70  H   UNL     1     141.128 187.482 194.681  0.00  0.00    +0.023 HD
ATOM     71  H   UNL     1     140.084 186.839 193.403  0.00  0.00    +0.023 HD
ATOM     72  H   UNL     1     141.632 187.621 193.027  0.00  0.00    +0.023 HD
ENDBRANCH  67  69
BRANCH  67  73
ATOM     73  C   UNL     1     141.638 184.946 195.216  0.00  0.00    -0.046 C 
ATOM     74  H   UNL     1     141.192 185.707 195.872  0.00  0.00    +0.027 HD
ATOM     75  H   UNL     1     140.898 184.138 195.149  0.00  0.00    +0.027 HD
BRANCH  73  76
ATOM     76  C   UNL     1     142.870 184.397 195.946  0.00  0.00    -0.026 C 
ATOM     77  H   UNL     1     142.604 183.971 196.920  0.00  0.00    +0.029 HD
ATOM     78  H   UNL     1     143.212 183.524 195.370  0.00  0.00    +0.029 HD
BRANCH  76  83
ATOM     79  C   UNL     1     145.144 185.339 198.269  0.00  0.00    +0.059 C 
ATOM     80  C   UNL     1     145.787 186.697 198.010  0.00  0.00    -0.000 C 
ATOM     81  C   UNL     1     144.951 187.536 197.035  0.00  0.00    +0.063 C 
ATOM     82  C   UNL     1     143.748 186.767 196.485  0.00  0.00    -0.000 C 
ATOM     83  C   UNL     1     144.091 185.327 196.091  0.00  0.00    +0.061 C 
ATOM     84  O   UNL     1     144.970 184.669 197.022  0.00  0.00    -0.373 OA
ATOM     85  H   UNL     1     144.172 185.447 198.766  0.00  0.00    +0.059 HD
ATOM     86  H   UNL     1     145.908 187.241 198.953  0.00  0.00    +0.032 HD
ATOM     87  H   UNL     1     146.794 186.549 197.598  0.00  0.00    +0.032 HD
ATOM     88  H   UNL     1     144.568 188.428 197.547  0.00  0.00    +0.060 HD
ATOM     89  H   UNL     1     142.970 186.760 197.255  0.00  0.00    +0.032 HD
ATOM     90  H   UNL     1     143.349 187.298 195.617  0.00  0.00    +0.032 HD
ATOM     91  H   UNL     1     144.628 185.343 195.136  0.00  0.00    +0.060 HD
BRANCH  79  92
ATOM     92  C   UNL     1     146.034 184.469 199.148  0.00  0.00    -0.039 C 
ATOM     93  H   UNL     1     145.510 183.569 199.479  0.00  0.00    +0.025 HD
ATOM     94  H   UNL     1     146.931 184.171 198.600  0.00  0.00    +0.025 HD
ATOM     95  H   UNL     1     146.374 185.024 200.031  0.00  0.00    +0.025 HD
ENDBRANCH  79  92
BRANCH  81  96
ATOM     96  O   UNL     1     145.755 187.966 195.927  0.00  0.00    -0.380 OA
BRANCH  96  97
ATOM     97  C   UNL     1     146.839 188.802 196.317  0.00  0.00    +0.037 C 
ATOM     98  H   UNL     1     147.728 188.192 196.515  0.00  0.00    +0.052 HD
ATOM     99  H   UNL     1     146.560 189.321 197.237  0.00  0.00    +0.052 HD
ATOM    100  H   UNL     1     147.063 189.551 195.549  0.00  0.00    +0.052 HD
ENDBRANCH  96  97
ENDBRANCH  81  96
ENDBRANCH  76  83
ENDBRANCH  73  76
ENDBRANCH  67  73
ENDBRANCH  65  67
BRANCH  65 101
ATOM    101  O   UNL     1     140.684 183.511 193.348  0.00  0.00    -0.391 OA
ATOM    102  H   UNL     1     139.722 183.639 193.209  0.00  0.00    +0.210 HD
ENDBRANCH  65 101
ENDBRANCH  59  65
ENDBRANCH   1  59
BRANCH  19 103
ATOM    103  O   UNL     1     150.905 186.719 189.980  0.00  0.00    -0.385 OA
ATOM    104  H   UNL     1     150.969 187.217 190.815  0.00  0.00    +0.210 HD
ENDBRANCH  19 103
BRANCH  18 105
ATOM    105  O   UNL     1     149.523 187.897 186.774  0.00  0.00    -0.377 OA
BRANCH 105 106
ATOM    106  C   UNL     1     149.996 188.240 185.480  0.00  0.00    +0.037 C 
ATOM    107  H   UNL     1     149.297 187.936 184.693  0.00  0.00    +0.052 HD
ATOM    108  H   UNL     1     150.116 189.326 185.436  0.00  0.00    +0.052 HD
ATOM    109  H   UNL     1     150.974 187.778 185.308  0.00  0.00    +0.052 HD
ENDBRANCH 105 106
ENDBRANCH  18 105
BRANCH   9 110
ATOM    110  O   UNL     1     146.140 181.973 186.530  0.00  0.00    -0.377 OA
BRANCH 110 111
ATOM    111  C   UNL     1     146.106 181.009 185.484  0.00  0.00    +0.037 C 
ATOM    112  H   UNL     1     146.621 180.096 185.793  0.00  0.00    +0.052 HD
ATOM    113  H   UNL     1     146.628 181.424 184.618  0.00  0.00    +0.052 HD
ATOM    114  H   UNL     1     145.076 180.778 185.191  0.00  0.00    +0.052 HD
ENDBRANCH 110 111
ENDBRANCH   9 110
BRANCH   5 115
ATOM    115  O   UNL     1     144.827 180.358 190.162  0.00  0.00    -0.377 OA
BRANCH 115 116
ATOM    116  C   UNL     1     144.245 179.103 189.835  0.00  0.00    +0.037 C 
ATOM    117  H   UNL     1     144.480 178.828 188.803  0.00  0.00    +0.052 HD
ATOM    118  H   UNL     1     144.589 178.318 190.514  0.00  0.00    +0.052 HD
ATOM    119  H   UNL     1     143.160 179.195 189.929  0.00  0.00    +0.052 HD
ENDBRANCH 115 116
ENDBRANCH   5 115
BRANCH   3 120
ATOM    120  O   UNL     1     142.349 181.706 189.808  0.00  0.00    -0.379 OA
BRANCH 120 121
ATOM    121  C   UNL     1     141.080 181.322 189.295  0.00  0.00    +0.037 C 
ATOM    122  H   UNL     1     140.335 181.470 190.081  0.00  0.00    +0.052 HD
ATOM    123  H   UNL     1     141.084 180.264 189.019  0.00  0.00    +0.052 HD
ATOM    124  H   UNL     1     140.801 181.935 188.433  0.00  0.00    +0.052 HD
ENDBRANCH 120 121
ENDBRANCH   3 120
TORSDOF 23
ENDMDL
MODEL 5
REMARK VINA RESULT:      -5.0      4.082     10.625
REMARK  Name = Lobophorolide_conf3
REMARK  23 active torsions:
REMARK  status: ('A' for Active; 'I' for Inactive)
REMARK    1  A    between atoms: C_1  and  C_2
REMARK    2  A    between atoms: C_4  and  O_53
REMARK    3  A    between atoms: C_6  and  C_8
REMARK    4  A    between atoms: C_8  and  C_9
REMARK    5  A    between atoms: C_9  and  C_10
REMARK    6  A    between atoms: C_10  and  C_11
REMARK    7  A    between atoms: C_10  and  C_12
REMARK    8  A    between atoms: C_12  and  C_13
REMARK    9  A    between atoms: C_12  and  O_52
REMARK   10  A    between atoms: C_13  and  C_14
REMARK   11  A    between atoms: C_13  and  C_15
REMARK   12  A    between atoms: C_16  and  C_51
REMARK   13  A    between atoms: C_17  and  O_49
REMARK   14  A    between atoms: C_19  and  O_47
REMARK   15  A    between atoms: C_23  and  O_45
REMARK   16  A    between atoms: C_32  and  O_43
REMARK   17  A    between atoms: C_33  and  O_42
REMARK   18  A    between atoms: C_35  and  C_41
REMARK   19  A    between atoms: O_43  and  C_44
REMARK   20  A    between atoms: O_45  and  C_46
REMARK   21  A    between atoms: O_47  and  C_48
REMARK   22  A    between atoms: O_49  and  C_50
REMARK   23  A    between atoms: O_53  and  C_54
REMARK                            x       y       z     vdW  Elec       q    Type
REMARK                         _______ _______ _______ _____ _____    ______ ____
ROOT
ATOM      1  C   UNL     1     154.114 164.815 188.348  0.00  0.00    +0.113 C 
ATOM      2  C   UNL     1     153.452 163.484 187.860  0.00  0.00    +0.020 C 
ATOM      3  C   UNL     1     152.536 163.538 186.604  0.00  0.00    +0.067 C 
ATOM      4  C   UNL     1     151.381 164.565 186.673  0.00  0.00    +0.003 C 
ATOM      5  C   UNL     1     150.463 164.481 185.431  0.00  0.00    +0.094 C 
ATOM      6  C   UNL     1     149.080 165.084 185.698  0.00  0.00    +0.145 C 
ATOM      7  C   UNL     1     148.857 166.565 185.412  0.00  0.00    +0.083 C 
ATOM      8  O   UNL     1     148.413 165.559 184.500  0.00  0.00    -0.363 OA
ATOM      9  C   UNL     1     148.097 164.315 186.588  0.00  0.00    +0.094 C 
ATOM     10  C   UNL     1     147.834 165.038 187.919  0.00  0.00    +0.003 C 
ATOM     11  C   UNL     1     146.910 164.278 188.895  0.00  0.00    +0.065 C 
ATOM     12  C   UNL     1     145.519 163.897 188.362  0.00  0.00    -0.008 C 
ATOM     13  C   UNL     1     144.608 165.083 188.299  0.00  0.00    -0.083 C 
ATOM     14  C   UNL     1     144.855 166.162 189.055  0.00  0.00    -0.059 C 
ATOM     15  C   UNL     1     146.032 166.258 190.007  0.00  0.00    +0.080 C 
ATOM     16  O   UNL     1     146.739 165.014 190.122  0.00  0.00    -0.369 OA
ATOM     17  C   UNL     1     145.538 166.689 191.395  0.00  0.00    +0.006 C 
ATOM     18  C   UNL     1     146.610 166.912 192.488  0.00  0.00    +0.090 C 
ATOM     19  C   UNL     1     147.775 167.871 192.100  0.00  0.00    +0.100 C 
ATOM     20  C   UNL     1     148.940 167.243 191.374  0.00  0.00    -0.051 C 
ATOM     21  C   UNL     1     150.235 167.616 191.444  0.00  0.00    -0.052 C 
ATOM     22  C   UNL     1     151.239 166.803 190.761  0.00  0.00    -0.052 C 
ATOM     23  C   UNL     1     152.561 166.889 190.967  0.00  0.00    +0.023 C 
ATOM     24  C   UNL     1     153.564 166.033 190.315  0.00  0.00    +0.332 C 
ATOM     25  O   UNL     1     154.664 165.855 190.817  0.00  0.00    -0.246 OA
ATOM     26  O   UNL     1     153.138 165.570 189.110  0.00  0.00    -0.458 OA
ATOM     27  H   UNL     1     154.915 164.489 189.019  0.00  0.00    +0.074 HD
ATOM     28  H   UNL     1     154.292 162.824 187.601  0.00  0.00    +0.036 HD
ATOM     29  H   UNL     1     152.065 162.552 186.491  0.00  0.00    +0.060 HD
ATOM     30  H   UNL     1     151.777 165.584 186.737  0.00  0.00    +0.032 HD
ATOM     31  H   UNL     1     150.801 164.379 187.582  0.00  0.00    +0.032 HD
ATOM     32  H   UNL     1     150.348 163.432 185.135  0.00  0.00    +0.063 HD
ATOM     33  H   UNL     1     148.093 167.122 185.937  0.00  0.00    +0.059 HD
ATOM     34  H   UNL     1     149.707 167.173 185.120  0.00  0.00    +0.059 HD
ATOM     35  H   UNL     1     147.141 164.227 186.053  0.00  0.00    +0.063 HD
ATOM     36  H   UNL     1     147.427 166.032 187.714  0.00  0.00    +0.032 HD
ATOM     37  H   UNL     1     148.785 165.219 188.435  0.00  0.00    +0.032 HD
ATOM     38  H   UNL     1     147.419 163.349 189.179  0.00  0.00    +0.060 HD
ATOM     39  H   UNL     1     145.060 163.177 189.051  0.00  0.00    +0.033 HD
ATOM     40  H   UNL     1     145.579 163.406 187.388  0.00  0.00    +0.033 HD
ATOM     41  H   UNL     1     143.738 165.047 187.650  0.00  0.00    +0.057 HD
ATOM     42  H   UNL     1     144.201 167.028 188.984  0.00  0.00    +0.059 HD
ATOM     43  H   UNL     1     146.714 167.015 189.609  0.00  0.00    +0.064 HD
ATOM     44  H   UNL     1     144.968 167.622 191.293  0.00  0.00    +0.032 HD
ATOM     45  H   UNL     1     144.834 165.930 191.755  0.00  0.00    +0.032 HD
ATOM     46  H   UNL     1     146.083 167.415 193.312  0.00  0.00    +0.063 HD
ATOM     47  H   UNL     1     148.149 168.279 193.046  0.00  0.00    +0.066 HD
ATOM     48  H   UNL     1     148.697 166.333 190.835  0.00  0.00    +0.060 HD
ATOM     49  H   UNL     1     150.861 166.045 190.078  0.00  0.00    +0.062 HD
ATOM     50  H   UNL     1     152.991 167.570 191.690  0.00  0.00    +0.069 HD
ENDROOT
BRANCH  21  51
ATOM     51  C   UNL     1     150.703 168.838 192.194  0.00  0.00    -0.040 C 
ATOM     52  H   UNL     1     149.956 169.638 192.218  0.00  0.00    +0.028 HD
ATOM     53  H   UNL     1     150.942 168.579 193.233  0.00  0.00    +0.028 HD
ATOM     54  H   UNL     1     151.594 169.273 191.727  0.00  0.00    +0.028 HD
ENDBRANCH  21  51
BRANCH   2  55
ATOM     55  C   UNL     1     152.718 162.791 189.020  0.00  0.00    -0.057 C 
ATOM     56  H   UNL     1     151.855 162.225 188.646  0.00  0.00    +0.023 HD
ATOM     57  H   UNL     1     153.363 162.095 189.563  0.00  0.00    +0.023 HD
ATOM     58  H   UNL     1     152.341 163.530 189.736  0.00  0.00    +0.023 HD
ENDBRANCH   2  55
BRANCH   1  59
ATOM     59  C   UNL     1     154.742 165.725 187.252  0.00  0.00    +0.020 C 
ATOM     60  H   UNL     1     154.621 165.196 186.302  0.00  0.00    +0.036 HD
BRANCH  59  61
ATOM     61  C   UNL     1     153.963 167.026 187.002  0.00  0.00    -0.057 C 
ATOM     62  H   UNL     1     152.981 166.814 186.566  0.00  0.00    +0.023 HD
ATOM     63  H   UNL     1     153.778 167.557 187.943  0.00  0.00    +0.023 HD
ATOM     64  H   UNL     1     154.495 167.707 186.333  0.00  0.00    +0.023 HD
ENDBRANCH  59  61
BRANCH  59  65
ATOM     65  C   UNL     1     156.264 165.986 187.455  0.00  0.00    +0.064 C 
ATOM     66  H   UNL     1     156.441 167.037 187.704  0.00  0.00    +0.060 HD
BRANCH  65  67
ATOM     67  C   UNL     1     157.241 165.603 186.296  0.00  0.00    -0.017 C 
ATOM     68  H   UNL     1     158.260 165.704 186.673  0.00  0.00    +0.032 HD
BRANCH  67  69
ATOM     69  C   UNL     1     157.032 164.159 185.837  0.00  0.00    -0.060 C 
ATOM     70  H   UNL     1     157.965 163.693 185.508  0.00  0.00    +0.023 HD
ATOM     71  H   UNL     1     156.317 164.105 185.010  0.00  0.00    +0.023 HD
ATOM     72  H   UNL     1     156.670 163.526 186.649  0.00  0.00    +0.023 HD
ENDBRANCH  67  69
BRANCH  67  73
ATOM     73  C   UNL     1     157.091 166.607 185.120  0.00  0.00    -0.046 C 
ATOM     74  H   UNL     1     157.480 166.114 184.218  0.00  0.00    +0.027 HD
ATOM     75  H   UNL     1     156.026 166.790 184.927  0.00  0.00    +0.027 HD
BRANCH  73  76
ATOM     76  C   UNL     1     157.792 167.968 185.218  0.00  0.00    -0.026 C 
ATOM     77  H   UNL     1     158.264 168.108 186.197  0.00  0.00    +0.029 HD
ATOM     78  H   UNL     1     158.647 167.930 184.526  0.00  0.00    +0.029 HD
BRANCH  76  83
ATOM     79  C   UNL     1     156.068 169.239 182.598  0.00  0.00    +0.059 C 
ATOM     80  C   UNL     1     155.934 170.759 182.607  0.00  0.00    -0.000 C 
ATOM     81  C   UNL     1     156.979 171.408 183.523  0.00  0.00    +0.063 C 
ATOM     82  C   UNL     1     157.818 170.375 184.277  0.00  0.00    -0.000 C 
ATOM     83  C   UNL     1     156.980 169.221 184.838  0.00  0.00    +0.061 C 
ATOM     84  O   UNL     1     155.956 168.762 183.937  0.00  0.00    -0.373 OA
ATOM     85  H   UNL     1     157.032 168.927 182.177  0.00  0.00    +0.059 HD
ATOM     86  H   UNL     1     156.042 171.151 181.590  0.00  0.00    +0.032 HD
ATOM     87  H   UNL     1     154.926 171.031 182.947  0.00  0.00    +0.032 HD
ATOM     88  H   UNL     1     157.667 172.020 182.925  0.00  0.00    +0.060 HD
ATOM     89  H   UNL     1     158.569 169.978 183.586  0.00  0.00    +0.032 HD
ATOM     90  H   UNL     1     158.350 170.871 185.093  0.00  0.00    +0.032 HD
ATOM     91  H   UNL     1     156.452 169.574 185.732  0.00  0.00    +0.060 HD
BRANCH  79  92
ATOM     92  C   UNL     1     154.959 168.595 181.776  0.00  0.00    -0.039 C 
ATOM     93  H   UNL     1     154.830 167.542 182.036  0.00  0.00    +0.025 HD
ATOM     94  H   UNL     1     154.013 169.116 181.943  0.00  0.00    +0.025 HD
ATOM     95  H   UNL     1     155.173 168.670 180.703  0.00  0.00    +0.025 HD
ENDBRANCH  79  92
BRANCH  81  96
ATOM     96  O   UNL     1     156.342 172.260 184.485  0.00  0.00    -0.380 OA
BRANCH  96  97
ATOM     97  C   UNL     1     156.329 173.629 184.096  0.00  0.00    +0.037 C 
ATOM     98  H   UNL     1     156.267 174.269 184.983  0.00  0.00    +0.052 HD
ATOM     99  H   UNL     1     155.444 173.803 183.478  0.00  0.00    +0.052 HD
ATOM    100  H   UNL     1     157.218 173.887 183.510  0.00  0.00    +0.052 HD
ENDBRANCH  96  97
ENDBRANCH  81  96
ENDBRANCH  76  83
ENDBRANCH  73  76
ENDBRANCH  67  73
ENDBRANCH  65  67
BRANCH  65 101
ATOM    101  O   UNL     1     156.655 165.238 188.619  0.00  0.00    -0.391 OA
ATOM    102  H   UNL     1     156.325 165.741 189.393  0.00  0.00    +0.210 HD
ENDBRANCH  65 101
ENDBRANCH  59  65
ENDBRANCH   1  59
BRANCH  19 103
ATOM    103  O   UNL     1     147.281 168.968 191.333  0.00  0.00    -0.385 OA
ATOM    104  H   UNL     1     146.672 168.605 190.665  0.00  0.00    +0.210 HD
ENDBRANCH  19 103
BRANCH  18 105
ATOM    105  O   UNL     1     147.149 165.681 192.992  0.00  0.00    -0.377 OA
BRANCH 105 106
ATOM    106  C   UNL     1     146.655 165.323 194.274  0.00  0.00    +0.037 C 
ATOM    107  H   UNL     1     146.048 164.412 194.242  0.00  0.00    +0.052 HD
ATOM    108  H   UNL     1     147.510 165.146 194.933  0.00  0.00    +0.052 HD
ATOM    109  H   UNL     1     146.066 166.149 194.689  0.00  0.00    +0.052 HD
ENDBRANCH 105 106
ENDBRANCH  18 105
BRANCH   9 110
ATOM    110  O   UNL     1     148.600 163.002 186.883  0.00  0.00    -0.377 OA
BRANCH 110 111
ATOM    111  C   UNL     1     147.917 161.982 186.163  0.00  0.00    +0.037 C 
ATOM    112  H   UNL     1     147.818 161.085 186.780  0.00  0.00    +0.052 HD
ATOM    113  H   UNL     1     148.510 161.731 185.280  0.00  0.00    +0.052 HD
ATOM    114  H   UNL     1     146.930 162.323 185.834  0.00  0.00    +0.052 HD
ENDBRANCH 110 111
ENDBRANCH   9 110
BRANCH   5 115
ATOM    115  O   UNL     1     151.123 165.202 184.370  0.00  0.00    -0.377 OA
BRANCH 115 116
ATOM    116  C   UNL     1     151.106 164.509 183.129  0.00  0.00    +0.037 C 
ATOM    117  H   UNL     1     150.109 164.108 182.928  0.00  0.00    +0.052 HD
ATOM    118  H   UNL     1     151.416 165.160 182.308  0.00  0.00    +0.052 HD
ATOM    119  H   UNL     1     151.807 163.673 183.196  0.00  0.00    +0.052 HD
ENDBRANCH 115 116
ENDBRANCH   5 115
BRANCH   3 120
ATOM    120  O   UNL     1     153.343 163.784 185.440  0.00  0.00    -0.379 OA
BRANCH 120 121
ATOM    121  C   UNL     1     153.838 162.594 184.838  0.00  0.00    +0.037 C 
ATOM    122  H   UNL     1     154.848 162.793 184.470  0.00  0.00    +0.052 HD
ATOM    123  H   UNL     1     153.212 162.307 183.990  0.00  0.00    +0.052 HD
ATOM    124  H   UNL     1     153.888 161.777 185.563  0.00  0.00    +0.052 HD
ENDBRANCH 120 121
ENDBRANCH   3 120
TORSDOF 23
ENDMDL
MODEL 6
REMARK VINA RESULT:      -4.9      2.856      9.846
REMARK  Name = Lobophorolide_conf3
REMARK  23 active torsions:
REMARK  status: ('A' for Active; 'I' for Inactive)
REMARK    1  A    between atoms: C_1  and  C_2
REMARK    2  A    between atoms: C_4  and  O_53
REMARK    3  A    between atoms: C_6  and  C_8
REMARK    4  A    between atoms: C_8  and  C_9
REMARK    5  A    between atoms: C_9  and  C_10
REMARK    6  A    between atoms: C_10  and  C_11
REMARK    7  A    between atoms: C_10  and  C_12
REMARK    8  A    between atoms: C_12  and  C_13
REMARK    9  A    between atoms: C_12  and  O_52
REMARK   10  A    between atoms: C_13  and  C_14
REMARK   11  A    between atoms: C_13  and  C_15
REMARK   12  A    between atoms: C_16  and  C_51
REMARK   13  A    between atoms: C_17  and  O_49
REMARK   14  A    between atoms: C_19  and  O_47
REMARK   15  A    between atoms: C_23  and  O_45
REMARK   16  A    between atoms: C_32  and  O_43
REMARK   17  A    between atoms: C_33  and  O_42
REMARK   18  A    between atoms: C_35  and  C_41
REMARK   19  A    between atoms: O_43  and  C_44
REMARK   20  A    between atoms: O_45  and  C_46
REMARK   21  A    between atoms: O_47  and  C_48
REMARK   22  A    between atoms: O_49  and  C_50
REMARK   23  A    between atoms: O_53  and  C_54
REMARK                            x       y       z     vdW  Elec       q    Type
REMARK                         _______ _______ _______ _____ _____    ______ ____
ROOT
ATOM      1  C   UNL     1     154.121 164.819 188.426  0.00  0.00    +0.113 C 
ATOM      2  C   UNL     1     153.477 163.481 187.937  0.00  0.00    +0.020 C 
ATOM      3  C   UNL     1     152.579 163.519 186.667  0.00  0.00    +0.067 C 
ATOM      4  C   UNL     1     151.415 164.537 186.713  0.00  0.00    +0.003 C 
ATOM      5  C   UNL     1     150.516 164.438 185.457  0.00  0.00    +0.094 C 
ATOM      6  C   UNL     1     149.124 165.031 185.700  0.00  0.00    +0.145 C 
ATOM      7  C   UNL     1     148.894 166.509 185.402  0.00  0.00    +0.083 C 
ATOM      8  O   UNL     1     148.472 165.494 184.489  0.00  0.00    -0.363 OA
ATOM      9  C   UNL     1     148.135 164.260 186.580  0.00  0.00    +0.094 C 
ATOM     10  C   UNL     1     147.846 164.988 187.903  0.00  0.00    +0.003 C 
ATOM     11  C   UNL     1     146.913 164.227 188.870  0.00  0.00    +0.065 C 
ATOM     12  C   UNL     1     145.534 163.830 188.318  0.00  0.00    -0.008 C 
ATOM     13  C   UNL     1     144.614 165.008 188.234  0.00  0.00    -0.083 C 
ATOM     14  C   UNL     1     144.841 166.094 188.987  0.00  0.00    -0.059 C 
ATOM     15  C   UNL     1     146.003 166.206 189.956  0.00  0.00    +0.080 C 
ATOM     16  O   UNL     1     146.718 164.969 190.089  0.00  0.00    -0.369 OA
ATOM     17  C   UNL     1     145.485 166.641 191.334  0.00  0.00    +0.006 C 
ATOM     18  C   UNL     1     146.539 166.879 192.441  0.00  0.00    +0.090 C 
ATOM     19  C   UNL     1     147.701 167.846 192.064  0.00  0.00    +0.100 C 
ATOM     20  C   UNL     1     148.882 167.223 191.360  0.00  0.00    -0.051 C 
ATOM     21  C   UNL     1     150.173 167.607 191.447  0.00  0.00    -0.052 C 
ATOM     22  C   UNL     1     151.193 166.799 190.784  0.00  0.00    -0.052 C 
ATOM     23  C   UNL     1     152.511 166.897 191.009  0.00  0.00    +0.023 C 
ATOM     24  C   UNL     1     153.532 166.045 190.378  0.00  0.00    +0.332 C 
ATOM     25  O   UNL     1     154.625 165.879 190.897  0.00  0.00    -0.246 OA
ATOM     26  O   UNL     1     153.127 165.571 189.169  0.00  0.00    -0.458 OA
ATOM     27  H   UNL     1     154.914 164.505 189.111  0.00  0.00    +0.074 HD
ATOM     28  H   UNL     1     154.325 162.826 187.695  0.00  0.00    +0.036 HD
ATOM     29  H   UNL     1     152.118 162.528 186.553  0.00  0.00    +0.060 HD
ATOM     30  H   UNL     1     151.802 165.560 186.776  0.00  0.00    +0.032 HD
ATOM     31  H   UNL     1     150.823 164.352 187.614  0.00  0.00    +0.032 HD
ATOM     32  H   UNL     1     150.414 163.386 185.166  0.00  0.00    +0.063 HD
ATOM     33  H   UNL     1     148.117 167.063 185.912  0.00  0.00    +0.059 HD
ATOM     34  H   UNL     1     149.743 167.122 185.119  0.00  0.00    +0.059 HD
ATOM     35  H   UNL     1     147.188 164.160 186.031  0.00  0.00    +0.063 HD
ATOM     36  H   UNL     1     147.434 165.978 187.686  0.00  0.00    +0.032 HD
ATOM     37  H   UNL     1     148.788 165.180 188.432  0.00  0.00    +0.032 HD
ATOM     38  H   UNL     1     147.426 163.304 189.167  0.00  0.00    +0.060 HD
ATOM     39  H   UNL     1     145.070 163.111 189.005  0.00  0.00    +0.033 HD
ATOM     40  H   UNL     1     145.613 163.334 187.348  0.00  0.00    +0.033 HD
ATOM     41  H   UNL     1     143.755 164.962 187.573  0.00  0.00    +0.057 HD
ATOM     42  H   UNL     1     144.181 166.954 188.901  0.00  0.00    +0.059 HD
ATOM     43  H   UNL     1     146.685 166.966 189.564  0.00  0.00    +0.064 HD
ATOM     44  H   UNL     1     144.909 167.569 191.218  0.00  0.00    +0.032 HD
ATOM     45  H   UNL     1     144.782 165.878 191.688  0.00  0.00    +0.032 HD
ATOM     46  H   UNL     1     145.995 167.384 193.254  0.00  0.00    +0.063 HD
ATOM     47  H   UNL     1     148.058 168.262 193.014  0.00  0.00    +0.066 HD
ATOM     48  H   UNL     1     148.655 166.307 190.823  0.00  0.00    +0.060 HD
ATOM     49  H   UNL     1     150.832 166.034 190.100  0.00  0.00    +0.062 HD
ATOM     50  H   UNL     1     152.925 167.585 191.734  0.00  0.00    +0.069 HD
ENDROOT
BRANCH  21  51
ATOM     51  C   UNL     1     150.620 168.838 192.197  0.00  0.00    -0.040 C 
ATOM     52  H   UNL     1     151.493 168.658 192.833  0.00  0.00    +0.028 HD
ATOM     53  H   UNL     1     150.882 169.638 191.494  0.00  0.00    +0.028 HD
ATOM     54  H   UNL     1     149.831 169.203 192.865  0.00  0.00    +0.028 HD
ENDBRANCH  21  51
BRANCH   2  55
ATOM     55  C   UNL     1     152.731 162.788 189.090  0.00  0.00    -0.057 C 
ATOM     56  H   UNL     1     152.126 161.955 188.711  0.00  0.00    +0.023 HD
ATOM     57  H   UNL     1     153.413 162.390 189.846  0.00  0.00    +0.023 HD
ATOM     58  H   UNL     1     152.051 163.489 189.586  0.00  0.00    +0.023 HD
ENDBRANCH   2  55
BRANCH   1  59
ATOM     59  C   UNL     1     154.757 165.729 187.334  0.00  0.00    +0.020 C 
ATOM     60  H   UNL     1     154.607 165.217 186.378  0.00  0.00    +0.036 HD
BRANCH  59  61
ATOM     61  C   UNL     1     154.011 167.055 187.115  0.00  0.00    -0.057 C 
ATOM     62  H   UNL     1     152.955 166.873 186.887  0.00  0.00    +0.023 HD
ATOM     63  H   UNL     1     154.033 167.669 188.023  0.00  0.00    +0.023 HD
ATOM     64  H   UNL     1     154.442 167.644 186.302  0.00  0.00    +0.023 HD
ENDBRANCH  59  61
BRANCH  59  65
ATOM     65  C   UNL     1     156.289 165.944 187.518  0.00  0.00    +0.064 C 
ATOM     66  H   UNL     1     156.524 167.013 187.538  0.00  0.00    +0.060 HD
BRANCH  65  67
ATOM     67  C   UNL     1     157.259 165.265 186.496  0.00  0.00    -0.017 C 
ATOM     68  H   UNL     1     156.668 164.955 185.633  0.00  0.00    +0.032 HD
BRANCH  67  69
ATOM     69  C   UNL     1     158.345 166.233 186.023  0.00  0.00    -0.060 C 
ATOM     70  H   UNL     1     158.798 166.779 186.854  0.00  0.00    +0.023 HD
ATOM     71  H   UNL     1     157.943 166.966 185.316  0.00  0.00    +0.023 HD
ATOM     72  H   UNL     1     159.172 165.707 185.543  0.00  0.00    +0.023 HD
ENDBRANCH  67  69
BRANCH  67  73
ATOM     73  C   UNL     1     157.868 163.977 187.115  0.00  0.00    -0.046 C 
ATOM     74  H   UNL     1     158.844 163.815 186.638  0.00  0.00    +0.027 HD
ATOM     75  H   UNL     1     158.078 164.144 188.180  0.00  0.00    +0.027 HD
BRANCH  73  76
ATOM     76  C   UNL     1     157.090 162.661 186.991  0.00  0.00    -0.026 C 
ATOM     77  H   UNL     1     156.147 162.800 186.451  0.00  0.00    +0.029 HD
ATOM     78  H   UNL     1     157.675 162.013 186.321  0.00  0.00    +0.029 HD
BRANCH  76  83
ATOM     79  C   UNL     1     158.622 161.928 189.918  0.00  0.00    +0.059 C 
ATOM     80  C   UNL     1     158.148 160.635 190.574  0.00  0.00    -0.000 C 
ATOM     81  C   UNL     1     157.434 159.725 189.567  0.00  0.00    +0.063 C 
ATOM     82  C   UNL     1     157.280 160.381 188.193  0.00  0.00    -0.000 C 
ATOM     83  C   UNL     1     156.847 161.848 188.278  0.00  0.00    +0.061 C 
ATOM     84  O   UNL     1     157.500 162.581 189.330  0.00  0.00    -0.373 OA
ATOM     85  H   UNL     1     159.377 161.730 189.148  0.00  0.00    +0.059 HD
ATOM     86  H   UNL     1     158.998 160.103 191.012  0.00  0.00    +0.032 HD
ATOM     87  H   UNL     1     157.466 160.877 191.400  0.00  0.00    +0.032 HD
ATOM     88  H   UNL     1     158.010 158.801 189.430  0.00  0.00    +0.060 HD
ATOM     89  H   UNL     1     158.244 160.314 187.676  0.00  0.00    +0.032 HD
ATOM     90  H   UNL     1     156.551 159.817 187.606  0.00  0.00    +0.032 HD
ATOM     91  H   UNL     1     155.776 161.884 188.512  0.00  0.00    +0.060 HD
BRANCH  79  92
ATOM     92  C   UNL     1     159.229 162.874 190.946  0.00  0.00    -0.039 C 
ATOM     93  H   UNL     1     160.170 162.483 191.342  0.00  0.00    +0.025 HD
ATOM     94  H   UNL     1     159.418 163.852 190.497  0.00  0.00    +0.025 HD
ATOM     95  H   UNL     1     158.538 163.040 191.782  0.00  0.00    +0.025 HD
ENDBRANCH  79  92
BRANCH  81  96
ATOM     96  O   UNL     1     156.129 159.374 190.046  0.00  0.00    -0.380 OA
BRANCH  96  97
ATOM     97  C   UNL     1     156.125 158.191 190.839  0.00  0.00    +0.037 C 
ATOM     98  H   UNL     1     155.475 158.327 191.711  0.00  0.00    +0.052 HD
ATOM     99  H   UNL     1     157.145 158.009 191.189  0.00  0.00    +0.052 HD
ATOM    100  H   UNL     1     155.796 157.322 190.259  0.00  0.00    +0.052 HD
ENDBRANCH  96  97
ENDBRANCH  81  96
ENDBRANCH  76  83
ENDBRANCH  73  76
ENDBRANCH  67  73
ENDBRANCH  65  67
BRANCH  65 101
ATOM    101  O   UNL     1     156.617 165.446 188.826  0.00  0.00    -0.391 OA
ATOM    102  H   UNL     1     155.775 165.408 189.325  0.00  0.00    +0.210 HD
ENDBRANCH  65 101
ENDBRANCH  59  65
ENDBRANCH   1  59
BRANCH  19 103
ATOM    103  O   UNL     1     147.210 168.934 191.284  0.00  0.00    -0.385 OA
ATOM    104  H   UNL     1     147.105 169.696 191.882  0.00  0.00    +0.210 HD
ENDBRANCH  19 103
BRANCH  18 105
ATOM    105  O   UNL     1     147.080 165.656 192.961  0.00  0.00    -0.377 OA
BRANCH 105 106
ATOM    106  C   UNL     1     146.536 165.278 194.217  0.00  0.00    +0.037 C 
ATOM    107  H   UNL     1     146.618 164.200 194.394  0.00  0.00    +0.052 HD
ATOM    108  H   UNL     1     147.092 165.800 195.001  0.00  0.00    +0.052 HD
ATOM    109  H   UNL     1     145.487 165.587 194.275  0.00  0.00    +0.052 HD
ENDBRANCH 105 106
ENDBRANCH  18 105
BRANCH   9 110
ATOM    110  O   UNL     1     148.644 162.953 186.890  0.00  0.00    -0.377 OA
BRANCH 110 111
ATOM    111  C   UNL     1     147.982 161.923 186.165  0.00  0.00    +0.037 C 
ATOM    112  H   UNL     1     148.062 160.973 186.699  0.00  0.00    +0.052 HD
ATOM    113  H   UNL     1     148.474 161.817 185.195  0.00  0.00    +0.052 HD
ATOM    114  H   UNL     1     146.929 162.172 185.995  0.00  0.00    +0.052 HD
ENDBRANCH 110 111
ENDBRANCH   9 110
BRANCH   5 115
ATOM    115  O   UNL     1     151.186 165.158 184.402  0.00  0.00    -0.377 OA
BRANCH 115 116
ATOM    116  C   UNL     1     151.212 164.448 183.171  0.00  0.00    +0.037 C 
ATOM    117  H   UNL     1     152.156 163.907 183.060  0.00  0.00    +0.052 HD
ATOM    118  H   UNL     1     150.376 163.748 183.100  0.00  0.00    +0.052 HD
ATOM    119  H   UNL     1     151.132 165.173 182.357  0.00  0.00    +0.052 HD
ENDBRANCH 115 116
ENDBRANCH   5 115
BRANCH   3 120
ATOM    120  O   UNL     1     153.401 163.765 185.513  0.00  0.00    -0.379 OA
BRANCH 120 121
ATOM    121  C   UNL     1     153.968 162.581 184.966  0.00  0.00    +0.037 C 
ATOM    122  H   UNL     1     153.463 162.366 184.021  0.00  0.00    +0.052 HD
ATOM    123  H   UNL     1     153.812 161.736 185.641  0.00  0.00    +0.052 HD
ATOM    124  H   UNL     1     155.036 162.711 184.766  0.00  0.00    +0.052 HD
ENDBRANCH 120 121
ENDBRANCH   3 120
TORSDOF 23
ENDMDL
MODEL 7
REMARK VINA RESULT:      -4.9     19.876     23.931
REMARK  Name = Lobophorolide_conf3
REMARK  23 active torsions:
REMARK  status: ('A' for Active; 'I' for Inactive)
REMARK    1  A    between atoms: C_1  and  C_2
REMARK    2  A    between atoms: C_4  and  O_53
REMARK    3  A    between atoms: C_6  and  C_8
REMARK    4  A    between atoms: C_8  and  C_9
REMARK    5  A    between atoms: C_9  and  C_10
REMARK    6  A    between atoms: C_10  and  C_11
REMARK    7  A    between atoms: C_10  and  C_12
REMARK    8  A    between atoms: C_12  and  C_13
REMARK    9  A    between atoms: C_12  and  O_52
REMARK   10  A    between atoms: C_13  and  C_14
REMARK   11  A    between atoms: C_13  and  C_15
REMARK   12  A    between atoms: C_16  and  C_51
REMARK   13  A    between atoms: C_17  and  O_49
REMARK   14  A    between atoms: C_19  and  O_47
REMARK   15  A    between atoms: C_23  and  O_45
REMARK   16  A    between atoms: C_32  and  O_43
REMARK   17  A    between atoms: C_33  and  O_42
REMARK   18  A    between atoms: C_35  and  C_41
REMARK   19  A    between atoms: O_43  and  C_44
REMARK   20  A    between atoms: O_45  and  C_46
REMARK   21  A    between atoms: O_47  and  C_48
REMARK   22  A    between atoms: O_49  and  C_50
REMARK   23  A    between atoms: O_53  and  C_54
REMARK                            x       y       z     vdW  Elec       q    Type
REMARK                         _______ _______ _______ _____ _____    ______ ____
ROOT
ATOM      1  C   UNL     1     142.608 184.721 190.865  0.00  0.00    +0.113 C 
ATOM      2  C   UNL     1     142.369 184.006 189.495  0.00  0.00    +0.020 C 
ATOM      3  C   UNL     1     143.042 182.623 189.262  0.00  0.00    +0.067 C 
ATOM      4  C   UNL     1     144.574 182.590 189.475  0.00  0.00    +0.003 C 
ATOM      5  C   UNL     1     145.173 181.207 189.126  0.00  0.00    +0.094 C 
ATOM      6  C   UNL     1     146.675 181.291 188.832  0.00  0.00    +0.145 C 
ATOM      7  C   UNL     1     147.658 181.111 189.983  0.00  0.00    +0.083 C 
ATOM      8  O   UNL     1     147.382 180.047 189.071  0.00  0.00    -0.363 OA
ATOM      9  C   UNL     1     147.137 181.925 187.516  0.00  0.00    +0.094 C 
ATOM     10  C   UNL     1     147.877 183.254 187.742  0.00  0.00    +0.003 C 
ATOM     11  C   UNL     1     148.304 183.983 186.449  0.00  0.00    +0.065 C 
ATOM     12  C   UNL     1     149.191 183.187 185.477  0.00  0.00    -0.008 C 
ATOM     13  C   UNL     1     150.598 183.082 185.976  0.00  0.00    -0.083 C 
ATOM     14  C   UNL     1     151.064 183.966 186.869  0.00  0.00    -0.059 C 
ATOM     15  C   UNL     1     150.232 185.109 187.419  0.00  0.00    +0.080 C 
ATOM     16  O   UNL     1     148.965 185.226 186.754  0.00  0.00    -0.369 OA
ATOM     17  C   UNL     1     151.004 186.428 187.269  0.00  0.00    +0.006 C 
ATOM     18  C   UNL     1     150.342 187.703 187.843  0.00  0.00    +0.090 C 
ATOM     19  C   UNL     1     149.880 187.609 189.328  0.00  0.00    +0.100 C 
ATOM     20  C   UNL     1     148.504 187.037 189.562  0.00  0.00    -0.051 C 
ATOM     21  C   UNL     1     147.649 187.361 190.555  0.00  0.00    -0.052 C 
ATOM     22  C   UNL     1     146.306 186.786 190.542  0.00  0.00    -0.052 C 
ATOM     23  C   UNL     1     145.282 187.220 191.290  0.00  0.00    +0.023 C 
ATOM     24  C   UNL     1     143.918 186.672 191.236  0.00  0.00    +0.332 C 
ATOM     25  O   UNL     1     142.956 187.334 191.595  0.00  0.00    -0.246 OA
ATOM     26  O   UNL     1     143.903 185.373 190.832  0.00  0.00    -0.458 OA
ATOM     27  H   UNL     1     141.826 185.486 190.912  0.00  0.00    +0.074 HD
ATOM     28  H   UNL     1     141.284 183.833 189.447  0.00  0.00    +0.036 HD
ATOM     29  H   UNL     1     142.870 182.339 188.214  0.00  0.00    +0.060 HD
ATOM     30  H   UNL     1     144.820 182.815 190.519  0.00  0.00    +0.032 HD
ATOM     31  H   UNL     1     145.031 183.366 188.853  0.00  0.00    +0.032 HD
ATOM     32  H   UNL     1     144.656 180.799 188.249  0.00  0.00    +0.063 HD
ATOM     33  H   UNL     1     148.647 181.548 189.941  0.00  0.00    +0.059 HD
ATOM     34  H   UNL     1     147.270 181.026 190.992  0.00  0.00    +0.059 HD
ATOM     35  H   UNL     1     147.828 181.229 187.020  0.00  0.00    +0.063 HD
ATOM     36  H   UNL     1     148.749 183.077 188.378  0.00  0.00    +0.032 HD
ATOM     37  H   UNL     1     147.239 183.938 188.314  0.00  0.00    +0.032 HD
ATOM     38  H   UNL     1     147.391 184.261 185.908  0.00  0.00    +0.060 HD
ATOM     39  H   UNL     1     149.231 183.719 184.518  0.00  0.00    +0.033 HD
ATOM     40  H   UNL     1     148.780 182.197 185.272  0.00  0.00    +0.033 HD
ATOM     41  H   UNL     1     151.238 182.294 185.590  0.00  0.00    +0.057 HD
ATOM     42  H   UNL     1     152.080 183.867 187.244  0.00  0.00    +0.059 HD
ATOM     43  H   UNL     1     150.055 184.906 188.479  0.00  0.00    +0.064 HD
ATOM     44  H   UNL     1     151.986 186.317 187.750  0.00  0.00    +0.032 HD
ATOM     45  H   UNL     1     151.195 186.590 186.202  0.00  0.00    +0.032 HD
ATOM     46  H   UNL     1     151.132 188.468 187.833  0.00  0.00    +0.063 HD
ATOM     47  H   UNL     1     149.884 188.640 189.703  0.00  0.00    +0.066 HD
ATOM     48  H   UNL     1     148.148 186.382 188.773  0.00  0.00    +0.060 HD
ATOM     49  H   UNL     1     146.134 185.980 189.832  0.00  0.00    +0.062 HD
ATOM     50  H   UNL     1     145.371 188.066 191.959  0.00  0.00    +0.069 HD
ENDROOT
BRANCH  21  51
ATOM     51  C   UNL     1     148.012 188.291 191.686  0.00  0.00    -0.040 C 
ATOM     52  H   UNL     1     147.229 189.024 191.905  0.00  0.00    +0.028 HD
ATOM     53  H   UNL     1     148.195 187.720 192.605  0.00  0.00    +0.028 HD
ATOM     54  H   UNL     1     148.910 188.872 191.449  0.00  0.00    +0.028 HD
ENDBRANCH  21  51
BRANCH   2  55
ATOM     55  C   UNL     1     142.692 184.954 188.328  0.00  0.00    -0.057 C 
ATOM     56  H   UNL     1     141.980 184.809 187.506  0.00  0.00    +0.023 HD
ATOM     57  H   UNL     1     142.652 186.005 188.624  0.00  0.00    +0.023 HD
ATOM     58  H   UNL     1     143.694 184.753 187.934  0.00  0.00    +0.023 HD
ENDBRANCH   2  55
BRANCH   1  59
ATOM     59  C   UNL     1     142.498 183.838 192.143  0.00  0.00    +0.020 C 
ATOM     60  H   UNL     1     142.158 182.852 191.811  0.00  0.00    +0.036 HD
BRANCH  59  61
ATOM     61  C   UNL     1     143.853 183.513 192.793  0.00  0.00    -0.057 C 
ATOM     62  H   UNL     1     143.817 182.545 193.305  0.00  0.00    +0.023 HD
ATOM     63  H   UNL     1     144.640 183.435 192.034  0.00  0.00    +0.023 HD
ATOM     64  H   UNL     1     144.159 184.272 193.516  0.00  0.00    +0.023 HD
ENDBRANCH  59  61
BRANCH  59  65
ATOM     65  C   UNL     1     141.465 184.368 193.181  0.00  0.00    +0.064 C 
ATOM     66  H   UNL     1     141.970 184.955 193.955  0.00  0.00    +0.060 HD
BRANCH  65  67
ATOM     67  C   UNL     1     140.540 183.332 193.899  0.00  0.00    -0.017 C 
ATOM     68  H   UNL     1     139.549 183.779 193.990  0.00  0.00    +0.032 HD
BRANCH  67  69
ATOM     69  C   UNL     1     140.419 182.035 193.097  0.00  0.00    -0.060 C 
ATOM     70  H   UNL     1     141.185 181.306 193.379  0.00  0.00    +0.023 HD
ATOM     71  H   UNL     1     140.510 182.223 192.023  0.00  0.00    +0.023 HD
ATOM     72  H   UNL     1     139.468 181.534 193.283  0.00  0.00    +0.023 HD
ENDBRANCH  67  69
BRANCH  67  73
ATOM     73  C   UNL     1     141.053 183.070 195.342  0.00  0.00    -0.046 C 
ATOM     74  H   UNL     1     140.370 182.345 195.805  0.00  0.00    +0.027 HD
ATOM     75  H   UNL     1     142.033 182.576 195.299  0.00  0.00    +0.027 HD
BRANCH  73  76
ATOM     76  C   UNL     1     141.167 184.254 196.310  0.00  0.00    -0.026 C 
ATOM     77  H   UNL     1     140.944 185.204 195.812  0.00  0.00    +0.029 HD
ATOM     78  H   UNL     1     140.344 184.147 197.034  0.00  0.00    +0.029 HD
BRANCH  76  83
ATOM     79  C   UNL     1     142.492 186.177 198.760  0.00  0.00    +0.059 C 
ATOM     80  C   UNL     1     144.017 186.179 198.806  0.00  0.00    -0.000 C 
ATOM     81  C   UNL     1     144.618 185.699 197.480  0.00  0.00    +0.063 C 
ATOM     82  C   UNL     1     143.551 185.237 196.487  0.00  0.00    -0.000 C 
ATOM     83  C   UNL     1     142.460 184.381 197.139  0.00  0.00    +0.061 C 
ATOM     84  O   UNL     1     142.047 184.863 198.432  0.00  0.00    -0.373 OA
ATOM     85  H   UNL     1     142.116 186.889 198.016  0.00  0.00    +0.059 HD
ATOM     86  H   UNL     1     144.384 187.186 199.033  0.00  0.00    +0.032 HD
ATOM     87  H   UNL     1     144.356 185.527 199.622  0.00  0.00    +0.032 HD
ATOM     88  H   UNL     1     145.178 186.517 197.008  0.00  0.00    +0.060 HD
ATOM     89  H   UNL     1     143.097 186.127 196.038  0.00  0.00    +0.032 HD
ATOM     90  H   UNL     1     144.028 184.670 195.683  0.00  0.00    +0.032 HD
ATOM     91  H   UNL     1     142.860 183.375 197.312  0.00  0.00    +0.060 HD
BRANCH  79  92
ATOM     92  C   UNL     1     141.902 186.547 200.114  0.00  0.00    -0.039 C 
ATOM     93  H   UNL     1     142.518 186.171 200.934  0.00  0.00    +0.025 HD
ATOM     94  H   UNL     1     141.818 187.632 200.207  0.00  0.00    +0.025 HD
ATOM     95  H   UNL     1     140.887 186.143 200.223  0.00  0.00    +0.025 HD
ENDBRANCH  79  92
BRANCH  81  96
ATOM     96  O   UNL     1     145.524 184.609 197.706  0.00  0.00    -0.380 OA
BRANCH  96  97
ATOM     97  C   UNL     1     145.597 184.219 199.072  0.00  0.00    +0.037 C 
ATOM     98  H   UNL     1     146.637 184.010 199.347  0.00  0.00    +0.052 HD
ATOM     99  H   UNL     1     145.012 183.304 199.201  0.00  0.00    +0.052 HD
ATOM    100  H   UNL     1     145.184 184.990 199.732  0.00  0.00    +0.052 HD
ENDBRANCH  96  97
ENDBRANCH  81  96
ENDBRANCH  76  83
ENDBRANCH  73  76
ENDBRANCH  67  73
ENDBRANCH  65  67
BRANCH  65 101
ATOM    101  O   UNL     1     140.619 185.294 192.479  0.00  0.00    -0.391 OA
ATOM    102  H   UNL     1     141.188 186.052 192.230  0.00  0.00    +0.210 HD
ENDBRANCH  65 101
ENDBRANCH  59  65
ENDBRANCH   1  59
BRANCH  19 103
ATOM    103  O   UNL     1     150.831 186.876 190.099  0.00  0.00    -0.385 OA
ATOM    104  H   UNL     1     151.674 187.364 190.062  0.00  0.00    +0.210 HD
ENDBRANCH  19 103
BRANCH  18 105
ATOM    105  O   UNL     1     149.257 188.174 187.031  0.00  0.00    -0.377 OA
BRANCH 105 106
ATOM    106  C   UNL     1     149.653 188.591 185.733  0.00  0.00    +0.037 C 
ATOM    107  H   UNL     1     150.359 189.428 185.767  0.00  0.00    +0.052 HD
ATOM    108  H   UNL     1     150.142 187.747 185.236  0.00  0.00    +0.052 HD
ATOM    109  H   UNL     1     148.771 188.871 185.147  0.00  0.00    +0.052 HD
ENDBRANCH 105 106
ENDBRANCH  18 105
BRANCH   9 110
ATOM    110  O   UNL     1     146.017 182.177 186.653  0.00  0.00    -0.377 OA
BRANCH 110 111
ATOM    111  C   UNL     1     145.947 181.259 185.568  0.00  0.00    +0.037 C 
ATOM    112  H   UNL     1     146.751 181.456 184.853  0.00  0.00    +0.052 HD
ATOM    113  H   UNL     1     144.990 181.402 185.059  0.00  0.00    +0.052 HD
ATOM    114  H   UNL     1     146.003 180.224 185.920  0.00  0.00    +0.052 HD
ENDBRANCH 110 111
ENDBRANCH   9 110
BRANCH   5 115
ATOM    115  O   UNL     1     144.935 180.347 190.258  0.00  0.00    -0.377 OA
BRANCH 115 116
ATOM    116  C   UNL     1     144.297 179.125 189.907  0.00  0.00    +0.037 C 
ATOM    117  H   UNL     1     145.013 178.298 189.934  0.00  0.00    +0.052 HD
ATOM    118  H   UNL     1     143.459 178.910 190.574  0.00  0.00    +0.052 HD
ATOM    119  H   UNL     1     143.917 179.220 188.887  0.00  0.00    +0.052 HD
ENDBRANCH 115 116
ENDBRANCH   5 115
BRANCH   3 120
ATOM    120  O   UNL     1     142.408 181.641 190.099  0.00  0.00    -0.379 OA
BRANCH 120 121
ATOM    121  C   UNL     1     141.143 181.216 189.608  0.00  0.00    +0.037 C 
ATOM    122  H   UNL     1     141.313 180.485 188.814  0.00  0.00    +0.052 HD
ATOM    123  H   UNL     1     140.594 182.062 189.186  0.00  0.00    +0.052 HD
ATOM    124  H   UNL     1     140.553 180.741 190.396  0.00  0.00    +0.052 HD
ENDBRANCH 120 121
ENDBRANCH   3 120
TORSDOF 23
ENDMDL
MODEL 8
REMARK VINA RESULT:      -4.9     19.412     23.109
REMARK  Name = Lobophorolide_conf3
REMARK  23 active torsions:
REMARK  status: ('A' for Active; 'I' for Inactive)
REMARK    1  A    between atoms: C_1  and  C_2
REMARK    2  A    between atoms: C_4  and  O_53
REMARK    3  A    between atoms: C_6  and  C_8
REMARK    4  A    between atoms: C_8  and  C_9
REMARK    5  A    between atoms: C_9  and  C_10
REMARK    6  A    between atoms: C_10  and  C_11
REMARK    7  A    between atoms: C_10  and  C_12
REMARK    8  A    between atoms: C_12  and  C_13
REMARK    9  A    between atoms: C_12  and  O_52
REMARK   10  A    between atoms: C_13  and  C_14
REMARK   11  A    between atoms: C_13  and  C_15
REMARK   12  A    between atoms: C_16  and  C_51
REMARK   13  A    between atoms: C_17  and  O_49
REMARK   14  A    between atoms: C_19  and  O_47
REMARK   15  A    between atoms: C_23  and  O_45
REMARK   16  A    between atoms: C_32  and  O_43
REMARK   17  A    between atoms: C_33  and  O_42
REMARK   18  A    between atoms: C_35  and  C_41
REMARK   19  A    between atoms: O_43  and  C_44
REMARK   20  A    between atoms: O_45  and  C_46
REMARK   21  A    between atoms: O_47  and  C_48
REMARK   22  A    between atoms: O_49  and  C_50
REMARK   23  A    between atoms: O_53  and  C_54
REMARK                            x       y       z     vdW  Elec       q    Type
REMARK                         _______ _______ _______ _____ _____    ______ ____
ROOT
ATOM      1  C   UNL     1     142.533 184.534 190.866  0.00  0.00    +0.113 C 
ATOM      2  C   UNL     1     142.323 183.830 189.485  0.00  0.00    +0.020 C 
ATOM      3  C   UNL     1     143.031 182.467 189.240  0.00  0.00    +0.067 C 
ATOM      4  C   UNL     1     144.561 182.468 189.465  0.00  0.00    +0.003 C 
ATOM      5  C   UNL     1     145.196 181.105 189.103  0.00  0.00    +0.094 C 
ATOM      6  C   UNL     1     146.697 181.228 188.823  0.00  0.00    +0.145 C 
ATOM      7  C   UNL     1     147.676 181.057 189.980  0.00  0.00    +0.083 C 
ATOM      8  O   UNL     1     147.432 179.998 189.052  0.00  0.00    -0.363 OA
ATOM      9  C   UNL     1     147.154 181.889 187.519  0.00  0.00    +0.094 C 
ATOM     10  C   UNL     1     147.860 183.232 187.767  0.00  0.00    +0.003 C 
ATOM     11  C   UNL     1     148.280 183.988 186.487  0.00  0.00    +0.065 C 
ATOM     12  C   UNL     1     149.194 183.226 185.513  0.00  0.00    -0.008 C 
ATOM     13  C   UNL     1     150.599 183.148 186.021  0.00  0.00    -0.083 C 
ATOM     14  C   UNL     1     151.036 184.032 186.930  0.00  0.00    -0.059 C 
ATOM     15  C   UNL     1     150.173 185.148 187.487  0.00  0.00    +0.080 C 
ATOM     16  O   UNL     1     148.909 185.242 186.813  0.00  0.00    -0.369 OA
ATOM     17  C   UNL     1     150.915 186.486 187.360  0.00  0.00    +0.006 C 
ATOM     18  C   UNL     1     150.218 187.737 187.944  0.00  0.00    +0.090 C 
ATOM     19  C   UNL     1     149.747 187.614 189.424  0.00  0.00    +0.100 C 
ATOM     20  C   UNL     1     148.382 187.006 189.640  0.00  0.00    -0.051 C 
ATOM     21  C   UNL     1     147.513 187.297 190.630  0.00  0.00    -0.052 C 
ATOM     22  C   UNL     1     146.184 186.690 190.599  0.00  0.00    -0.052 C 
ATOM     23  C   UNL     1     145.144 187.090 191.343  0.00  0.00    +0.023 C 
ATOM     24  C   UNL     1     143.794 186.510 191.272  0.00  0.00    +0.332 C 
ATOM     25  O   UNL     1     142.814 187.145 191.631  0.00  0.00    -0.246 OA
ATOM     26  O   UNL     1     143.813 185.217 190.851  0.00  0.00    -0.458 OA
ATOM     27  H   UNL     1     141.733 185.279 190.916  0.00  0.00    +0.074 HD
ATOM     28  H   UNL     1     141.243 183.632 189.426  0.00  0.00    +0.036 HD
ATOM     29  H   UNL     1     142.874 182.193 188.188  0.00  0.00    +0.060 HD
ATOM     30  H   UNL     1     144.794 182.686 190.514  0.00  0.00    +0.032 HD
ATOM     31  H   UNL     1     145.004 183.263 188.857  0.00  0.00    +0.032 HD
ATOM     32  H   UNL     1     144.696 180.696 188.218  0.00  0.00    +0.063 HD
ATOM     33  H   UNL     1     148.654 181.517 189.951  0.00  0.00    +0.059 HD
ATOM     34  H   UNL     1     147.282 180.950 190.985  0.00  0.00    +0.059 HD
ATOM     35  H   UNL     1     147.866 181.217 187.020  0.00  0.00    +0.063 HD
ATOM     36  H   UNL     1     148.731 183.068 188.408  0.00  0.00    +0.032 HD
ATOM     37  H   UNL     1     147.202 183.894 188.343  0.00  0.00    +0.032 HD
ATOM     38  H   UNL     1     147.365 184.251 185.942  0.00  0.00    +0.060 HD
ATOM     39  H   UNL     1     149.228 183.770 184.561  0.00  0.00    +0.033 HD
ATOM     40  H   UNL     1     148.808 182.229 185.292  0.00  0.00    +0.033 HD
ATOM     41  H   UNL     1     151.260 182.380 185.631  0.00  0.00    +0.057 HD
ATOM     42  H   UNL     1     152.052 183.951 187.311  0.00  0.00    +0.059 HD
ATOM     43  H   UNL     1     149.993 184.926 188.543  0.00  0.00    +0.064 HD
ATOM     44  H   UNL     1     151.895 186.393 187.847  0.00  0.00    +0.032 HD
ATOM     45  H   UNL     1     151.109 186.666 186.296  0.00  0.00    +0.032 HD
ATOM     46  H   UNL     1     150.990 188.521 187.950  0.00  0.00    +0.063 HD
ATOM     47  H   UNL     1     149.723 188.639 189.812  0.00  0.00    +0.066 HD
ATOM     48  H   UNL     1     148.049 186.353 188.839  0.00  0.00    +0.060 HD
ATOM     49  H   UNL     1     146.037 185.890 189.877  0.00  0.00    +0.062 HD
ATOM     50  H   UNL     1     145.207 187.930 192.023  0.00  0.00    +0.069 HD
ENDROOT
BRANCH  21  51
ATOM     51  C   UNL     1     147.844 188.221 191.775  0.00  0.00    -0.040 C 
ATOM     52  H   UNL     1     148.408 187.727 192.574  0.00  0.00    +0.028 HD
ATOM     53  H   UNL     1     148.445 189.066 191.420  0.00  0.00    +0.028 HD
ATOM     54  H   UNL     1     146.934 188.610 192.246  0.00  0.00    +0.028 HD
ENDBRANCH  21  51
BRANCH   2  55
ATOM     55  C   UNL     1     142.632 184.801 188.333  0.00  0.00    -0.057 C 
ATOM     56  H   UNL     1     141.985 185.685 188.390  0.00  0.00    +0.023 HD
ATOM     57  H   UNL     1     143.670 185.144 188.346  0.00  0.00    +0.023 HD
ATOM     58  H   UNL     1     142.449 184.321 187.365  0.00  0.00    +0.023 HD
ENDBRANCH   2  55
BRANCH   1  59
ATOM     59  C   UNL     1     142.435 183.632 192.131  0.00  0.00    +0.020 C 
ATOM     60  H   UNL     1     142.320 182.605 191.772  0.00  0.00    +0.036 HD
BRANCH  59  61
ATOM     61  C   UNL     1     143.740 183.550 192.940  0.00  0.00    -0.057 C 
ATOM     62  H   UNL     1     143.554 183.744 194.001  0.00  0.00    +0.023 HD
ATOM     63  H   UNL     1     144.174 182.545 192.878  0.00  0.00    +0.023 HD
ATOM     64  H   UNL     1     144.492 184.261 192.588  0.00  0.00    +0.023 HD
ENDBRANCH  59  61
BRANCH  59  65
ATOM     65  C   UNL     1     141.209 183.957 193.035  0.00  0.00    +0.064 C 
ATOM     66  H   UNL     1     141.524 184.080 194.076  0.00  0.00    +0.060 HD
BRANCH  65  67
ATOM     67  C   UNL     1     139.997 182.969 193.020  0.00  0.00    -0.017 C 
ATOM     68  H   UNL     1     139.404 183.156 193.917  0.00  0.00    +0.032 HD
BRANCH  67  69
ATOM     69  C   UNL     1     139.109 183.185 191.793  0.00  0.00    -0.060 C 
ATOM     70  H   UNL     1     138.080 183.430 192.070  0.00  0.00    +0.023 HD
ATOM     71  H   UNL     1     139.085 182.293 191.159  0.00  0.00    +0.023 HD
ATOM     72  H   UNL     1     139.451 184.029 191.192  0.00  0.00    +0.023 HD
ENDBRANCH  67  69
BRANCH  67  73
ATOM     73  C   UNL     1     140.505 181.503 193.110  0.00  0.00    -0.046 C 
ATOM     74  H   UNL     1     140.634 181.138 192.082  0.00  0.00    +0.027 HD
ATOM     75  H   UNL     1     141.505 181.488 193.562  0.00  0.00    +0.027 HD
BRANCH  73  76
ATOM     76  C   UNL     1     139.643 180.468 193.844  0.00  0.00    -0.026 C 
ATOM     77  H   UNL     1     139.239 180.871 194.780  0.00  0.00    +0.029 HD
ATOM     78  H   UNL     1     138.746 180.313 193.225  0.00  0.00    +0.029 HD
BRANCH  76  83
ATOM     79  C   UNL     1     140.266 177.590 192.176  0.00  0.00    +0.059 C 
ATOM     80  C   UNL     1     140.385 176.357 193.066  0.00  0.00    -0.000 C 
ATOM     81  C   UNL     1     139.750 176.595 194.442  0.00  0.00    +0.063 C 
ATOM     82  C   UNL     1     139.257 178.033 194.617  0.00  0.00    -0.000 C 
ATOM     83  C   UNL     1     140.249 179.073 194.088  0.00  0.00    +0.061 C 
ATOM     84  O   UNL     1     140.869 178.696 192.844  0.00  0.00    -0.373 OA
ATOM     85  H   UNL     1     139.217 177.822 191.956  0.00  0.00    +0.059 HD
ATOM     86  H   UNL     1     139.906 175.499 192.584  0.00  0.00    +0.032 HD
ATOM     87  H   UNL     1     141.446 176.101 193.189  0.00  0.00    +0.032 HD
ATOM     88  H   UNL     1     138.887 175.930 194.572  0.00  0.00    +0.060 HD
ATOM     89  H   UNL     1     138.305 178.131 194.083  0.00  0.00    +0.032 HD
ATOM     90  H   UNL     1     139.062 178.219 195.676  0.00  0.00    +0.032 HD
ATOM     91  H   UNL     1     141.069 179.174 194.809  0.00  0.00    +0.060 HD
BRANCH  79  92
ATOM     92  C   UNL     1     140.996 177.386 190.855  0.00  0.00    -0.039 C 
ATOM     93  H   UNL     1     141.400 176.374 190.775  0.00  0.00    +0.025 HD
ATOM     94  H   UNL     1     140.317 177.561 190.017  0.00  0.00    +0.025 HD
ATOM     95  H   UNL     1     141.819 178.103 190.748  0.00  0.00    +0.025 HD
ENDBRANCH  79  92
BRANCH  81  96
ATOM     96  O   UNL     1     140.694 176.313 195.485  0.00  0.00    -0.380 OA
BRANCH  96  97
ATOM     97  C   UNL     1     141.884 175.696 195.008  0.00  0.00    +0.037 C 
ATOM     98  H   UNL     1     141.944 175.790 193.918  0.00  0.00    +0.052 HD
ATOM     99  H   UNL     1     141.848 174.634 195.265  0.00  0.00    +0.052 HD
ATOM    100  H   UNL     1     142.776 176.134 195.470  0.00  0.00    +0.052 HD
ENDBRANCH  96  97
ENDBRANCH  81  96
ENDBRANCH  76  83
ENDBRANCH  73  76
ENDBRANCH  67  73
ENDBRANCH  65  67
BRANCH  65 101
ATOM    101  O   UNL     1     140.725 185.245 192.618  0.00  0.00    -0.391 OA
ATOM    102  H   UNL     1     139.788 185.117 192.361  0.00  0.00    +0.210 HD
ENDBRANCH  65 101
ENDBRANCH  59  65
ENDBRANCH   1  59
BRANCH  19 103
ATOM    103  O   UNL     1     150.709 186.894 190.193  0.00  0.00    -0.385 OA
ATOM    104  H   UNL     1     150.651 185.958 189.929  0.00  0.00    +0.210 HD
ENDBRANCH  19 103
BRANCH  18 105
ATOM    105  O   UNL     1     149.128 188.192 187.129  0.00  0.00    -0.377 OA
BRANCH 105 106
ATOM    106  C   UNL     1     149.524 188.633 185.838  0.00  0.00    +0.037 C 
ATOM    107  H   UNL     1     150.548 189.020 185.832  0.00  0.00    +0.052 HD
ATOM    108  H   UNL     1     149.473 187.779 185.155  0.00  0.00    +0.052 HD
ATOM    109  H   UNL     1     148.832 189.402 185.480  0.00  0.00    +0.052 HD
ENDBRANCH 105 106
ENDBRANCH  18 105
BRANCH   9 110
ATOM    110  O   UNL     1     146.035 182.125 186.650  0.00  0.00    -0.377 OA
BRANCH 110 111
ATOM    111  C   UNL     1     145.997 181.221 185.552  0.00  0.00    +0.037 C 
ATOM    112  H   UNL     1     146.741 181.503 184.803  0.00  0.00    +0.052 HD
ATOM    113  H   UNL     1     145.006 181.280 185.095  0.00  0.00    +0.052 HD
ATOM    114  H   UNL     1     146.168 180.191 185.881  0.00  0.00    +0.052 HD
ENDBRANCH 110 111
ENDBRANCH   9 110
BRANCH   5 115
ATOM    115  O   UNL     1     144.969 180.224 190.223  0.00  0.00    -0.377 OA
BRANCH 115 116
ATOM    116  C   UNL     1     144.312 179.017 189.860  0.00  0.00    +0.037 C 
ATOM    117  H   UNL     1     144.833 178.154 190.284  0.00  0.00    +0.052 HD
ATOM    118  H   UNL     1     143.270 179.019 190.191  0.00  0.00    +0.052 HD
ATOM    119  H   UNL     1     144.332 178.932 188.771  0.00  0.00    +0.052 HD
ENDBRANCH 115 116
ENDBRANCH   5 115
BRANCH   3 120
ATOM    120  O   UNL     1     142.414 181.460 190.060  0.00  0.00    -0.379 OA
BRANCH 120 121
ATOM    121  C   UNL     1     141.187 180.975 189.527  0.00  0.00    +0.037 C 
ATOM    122  H   UNL     1     140.868 180.121 190.129  0.00  0.00    +0.052 HD
ATOM    123  H   UNL     1     141.326 180.638 188.497  0.00  0.00    +0.052 HD
ATOM    124  H   UNL     1     140.408 181.741 189.571  0.00  0.00    +0.052 HD
ENDBRANCH 120 121
ENDBRANCH   3 120
TORSDOF 23
ENDMDL
MODEL 9
REMARK VINA RESULT:      -4.9      3.085     10.067
REMARK  Name = Lobophorolide_conf3
REMARK  23 active torsions:
REMARK  status: ('A' for Active; 'I' for Inactive)
REMARK    1  A    between atoms: C_1  and  C_2
REMARK    2  A    between atoms: C_4  and  O_53
REMARK    3  A    between atoms: C_6  and  C_8
REMARK    4  A    between atoms: C_8  and  C_9
REMARK    5  A    between atoms: C_9  and  C_10
REMARK    6  A    between atoms: C_10  and  C_11
REMARK    7  A    between atoms: C_10  and  C_12
REMARK    8  A    between atoms: C_12  and  C_13
REMARK    9  A    between atoms: C_12  and  O_52
REMARK   10  A    between atoms: C_13  and  C_14
REMARK   11  A    between atoms: C_13  and  C_15
REMARK   12  A    between atoms: C_16  and  C_51
REMARK   13  A    between atoms: C_17  and  O_49
REMARK   14  A    between atoms: C_19  and  O_47
REMARK   15  A    between atoms: C_23  and  O_45
REMARK   16  A    between atoms: C_32  and  O_43
REMARK   17  A    between atoms: C_33  and  O_42
REMARK   18  A    between atoms: C_35  and  C_41
REMARK   19  A    between atoms: O_43  and  C_44
REMARK   20  A    between atoms: O_45  and  C_46
REMARK   21  A    between atoms: O_47  and  C_48
REMARK   22  A    between atoms: O_49  and  C_50
REMARK   23  A    between atoms: O_53  and  C_54
REMARK                            x       y       z     vdW  Elec       q    Type
REMARK                         _______ _______ _______ _____ _____    ______ ____
ROOT
ATOM      1  C   UNL     1     153.892 164.698 188.339  0.00  0.00    +0.113 C 
ATOM      2  C   UNL     1     153.190 163.393 187.839  0.00  0.00    +0.020 C 
ATOM      3  C   UNL     1     152.252 163.492 186.602  0.00  0.00    +0.067 C 
ATOM      4  C   UNL     1     151.122 164.543 186.713  0.00  0.00    +0.003 C 
ATOM      5  C   UNL     1     150.180 164.504 185.487  0.00  0.00    +0.094 C 
ATOM      6  C   UNL     1     148.816 165.133 185.792  0.00  0.00    +0.145 C 
ATOM      7  C   UNL     1     148.622 166.624 185.539  0.00  0.00    +0.083 C 
ATOM      8  O   UNL     1     148.138 165.646 184.616  0.00  0.00    -0.363 OA
ATOM      9  C   UNL     1     147.833 164.369 186.686  0.00  0.00    +0.094 C 
ATOM     10  C   UNL     1     147.612 165.072 188.035  0.00  0.00    +0.003 C 
ATOM     11  C   UNL     1     146.688 164.315 189.014  0.00  0.00    +0.065 C 
ATOM     12  C   UNL     1     145.279 163.975 188.500  0.00  0.00    -0.008 C 
ATOM     13  C   UNL     1     144.395 165.182 188.477  0.00  0.00    -0.083 C 
ATOM     14  C   UNL     1     144.681 166.240 189.249  0.00  0.00    -0.059 C 
ATOM     15  C   UNL     1     145.877 166.291 190.180  0.00  0.00    +0.080 C 
ATOM     16  O   UNL     1     146.557 165.030 190.258  0.00  0.00    -0.369 OA
ATOM     17  C   UNL     1     145.420 166.706 191.586  0.00  0.00    +0.006 C 
ATOM     18  C   UNL     1     146.517 166.884 192.661  0.00  0.00    +0.090 C 
ATOM     19  C   UNL     1     147.696 167.823 192.269  0.00  0.00    +0.100 C 
ATOM     20  C   UNL     1     148.832 167.184 191.510  0.00  0.00    -0.051 C 
ATOM     21  C   UNL     1     150.137 167.526 191.562  0.00  0.00    -0.052 C 
ATOM     22  C   UNL     1     151.108 166.704 190.845  0.00  0.00    -0.052 C 
ATOM     23  C   UNL     1     152.436 166.756 191.026  0.00  0.00    +0.023 C 
ATOM     24  C   UNL     1     153.407 165.891 190.340  0.00  0.00    +0.332 C 
ATOM     25  O   UNL     1     154.511 165.678 190.816  0.00  0.00    -0.246 OA
ATOM     26  O   UNL     1     152.948 165.461 189.134  0.00  0.00    -0.458 OA
ATOM     27  H   UNL     1     154.697 164.342 188.989  0.00  0.00    +0.074 HD
ATOM     28  H   UNL     1     154.009 162.719 187.551  0.00  0.00    +0.036 HD
ATOM     29  H   UNL     1     151.757 162.519 186.479  0.00  0.00    +0.060 HD
ATOM     30  H   UNL     1     151.543 165.552 186.788  0.00  0.00    +0.032 HD
ATOM     31  H   UNL     1     150.555 164.353 187.629  0.00  0.00    +0.032 HD
ATOM     32  H   UNL     1     150.035 163.464 185.173  0.00  0.00    +0.063 HD
ATOM     33  H   UNL     1     147.881 167.188 186.088  0.00  0.00    +0.059 HD
ATOM     34  H   UNL     1     149.480 167.218 185.242  0.00  0.00    +0.059 HD
ATOM     35  H   UNL     1     146.865 164.313 186.167  0.00  0.00    +0.063 HD
ATOM     36  H   UNL     1     147.224 166.079 187.857  0.00  0.00    +0.032 HD
ATOM     37  H   UNL     1     148.576 165.221 188.536  0.00  0.00    +0.032 HD
ATOM     38  H   UNL     1     147.181 163.369 189.271  0.00  0.00    +0.060 HD
ATOM     39  H   UNL     1     144.817 163.252 189.185  0.00  0.00    +0.033 HD
ATOM     40  H   UNL     1     145.310 163.502 187.517  0.00  0.00    +0.033 HD
ATOM     41  H   UNL     1     143.513 165.178 187.845  0.00  0.00    +0.057 HD
ATOM     42  H   UNL     1     144.046 167.122 189.207  0.00  0.00    +0.059 HD
ATOM     43  H   UNL     1     146.569 167.041 189.784  0.00  0.00    +0.064 HD
ATOM     44  H   UNL     1     144.869 167.654 191.512  0.00  0.00    +0.032 HD
ATOM     45  H   UNL     1     144.705 165.956 191.944  0.00  0.00    +0.032 HD
ATOM     46  H   UNL     1     146.016 167.383 193.505  0.00  0.00    +0.063 HD
ATOM     47  H   UNL     1     148.097 168.204 193.216  0.00  0.00    +0.066 HD
ATOM     48  H   UNL     1     148.558 166.290 190.958  0.00  0.00    +0.060 HD
ATOM     49  H   UNL     1     150.701 165.968 190.154  0.00  0.00    +0.062 HD
ATOM     50  H   UNL     1     152.895 167.413 191.754  0.00  0.00    +0.069 HD
ENDROOT
BRANCH  21  51
ATOM     51  C   UNL     1     150.646 168.722 192.326  0.00  0.00    -0.040 C 
ATOM     52  H   UNL     1     150.578 169.655 191.757  0.00  0.00    +0.028 HD
ATOM     53  H   UNL     1     150.071 168.857 193.250  0.00  0.00    +0.028 HD
ATOM     54  H   UNL     1     151.705 168.606 192.585  0.00  0.00    +0.028 HD
ENDBRANCH  21  51
BRANCH   2  55
ATOM     55  C   UNL     1     152.462 162.694 188.999  0.00  0.00    -0.057 C 
ATOM     56  H   UNL     1     151.419 162.486 188.729  0.00  0.00    +0.023 HD
ATOM     57  H   UNL     1     152.932 161.746 189.273  0.00  0.00    +0.023 HD
ATOM     58  H   UNL     1     152.450 163.333 189.889  0.00  0.00    +0.023 HD
ENDBRANCH   2  55
BRANCH   1  59
ATOM     59  C   UNL     1     154.520 165.616 187.249  0.00  0.00    +0.020 C 
ATOM     60  H   UNL     1     154.351 165.117 186.289  0.00  0.00    +0.036 HD
BRANCH  59  61
ATOM     61  C   UNL     1     153.781 166.950 187.057  0.00  0.00    -0.057 C 
ATOM     62  H   UNL     1     153.618 167.155 185.993  0.00  0.00    +0.023 HD
ATOM     63  H   UNL     1     152.790 166.918 187.523  0.00  0.00    +0.023 HD
ATOM     64  H   UNL     1     154.327 167.793 187.488  0.00  0.00    +0.023 HD
ENDBRANCH  59  61
BRANCH  59  65
ATOM     65  C   UNL     1     156.055 165.817 187.413  0.00  0.00    +0.064 C 
ATOM     66  H   UNL     1     156.445 166.451 186.610  0.00  0.00    +0.060 HD
BRANCH  65  67
ATOM     67  C   UNL     1     156.963 164.547 187.497  0.00  0.00    -0.017 C 
ATOM     68  H   UNL     1     156.416 163.717 187.046  0.00  0.00    +0.032 HD
BRANCH  67  69
ATOM     69  C   UNL     1     158.274 164.740 186.732  0.00  0.00    -0.060 C 
ATOM     70  H   UNL     1     159.099 164.184 187.186  0.00  0.00    +0.023 HD
ATOM     71  H   UNL     1     158.559 165.796 186.695  0.00  0.00    +0.023 HD
ATOM     72  H   UNL     1     158.205 164.363 185.711  0.00  0.00    +0.023 HD
ENDBRANCH  67  69
BRANCH  67  73
ATOM     73  C   UNL     1     157.215 164.170 188.982  0.00  0.00    -0.046 C 
ATOM     74  H   UNL     1     158.086 164.747 189.324  0.00  0.00    +0.027 HD
ATOM     75  H   UNL     1     156.370 164.509 189.596  0.00  0.00    +0.027 HD
BRANCH  73  76
ATOM     76  C   UNL     1     157.490 162.702 189.334  0.00  0.00    -0.026 C 
ATOM     77  H   UNL     1     156.683 162.275 189.940  0.00  0.00    +0.029 HD
ATOM     78  H   UNL     1     157.428 162.137 188.391  0.00  0.00    +0.029 HD
BRANCH  76  83
ATOM     79  C   UNL     1     158.851 160.555 191.568  0.00  0.00    +0.059 C 
ATOM     80  C   UNL     1     160.158 161.034 192.191  0.00  0.00    -0.000 C 
ATOM     81  C   UNL     1     160.332 162.550 192.030  0.00  0.00    +0.063 C 
ATOM     82  C   UNL     1     159.215 163.182 191.198  0.00  0.00    -0.000 C 
ATOM     83  C   UNL     1     158.858 162.358 189.956  0.00  0.00    +0.061 C 
ATOM     84  O   UNL     1     158.830 160.939 190.195  0.00  0.00    -0.373 OA
ATOM     85  H   UNL     1     157.984 160.985 192.083  0.00  0.00    +0.059 HD
ATOM     86  H   UNL     1     160.186 160.771 193.253  0.00  0.00    +0.032 HD
ATOM     87  H   UNL     1     160.999 160.514 191.713  0.00  0.00    +0.032 HD
ATOM     88  H   UNL     1     160.323 163.030 193.017  0.00  0.00    +0.060 HD
ATOM     89  H   UNL     1     158.331 163.281 191.837  0.00  0.00    +0.032 HD
ATOM     90  H   UNL     1     159.518 164.187 190.895  0.00  0.00    +0.032 HD
ATOM     91  H   UNL     1     159.632 162.516 189.196  0.00  0.00    +0.060 HD
BRANCH  79  92
ATOM     92  C   UNL     1     158.737 159.037 191.631  0.00  0.00    -0.039 C 
ATOM     93  H   UNL     1     157.947 158.668 190.973  0.00  0.00    +0.025 HD
ATOM     94  H   UNL     1     159.683 158.574 191.339  0.00  0.00    +0.025 HD
ATOM     95  H   UNL     1     158.527 158.703 192.655  0.00  0.00    +0.025 HD
ENDBRANCH  79  92
BRANCH  81  96
ATOM     96  O   UNL     1     161.586 162.846 191.399  0.00  0.00    -0.380 OA
BRANCH  96  97
ATOM     97  C   UNL     1     162.441 161.712 191.297  0.00  0.00    +0.037 C 
ATOM     98  H   UNL     1     161.913 160.815 191.639  0.00  0.00    +0.052 HD
ATOM     99  H   UNL     1     163.308 161.875 191.943  0.00  0.00    +0.052 HD
ATOM    100  H   UNL     1     162.795 161.569 190.270  0.00  0.00    +0.052 HD
ENDBRANCH  96  97
ENDBRANCH  81  96
ENDBRANCH  76  83
ENDBRANCH  73  76
ENDBRANCH  67  73
ENDBRANCH  65  67
BRANCH  65 101
ATOM    101  O   UNL     1     156.242 166.566 188.626  0.00  0.00    -0.391 OA
ATOM    102  H   UNL     1     155.875 166.015 189.348  0.00  0.00    +0.210 HD
ENDBRANCH  65 101
ENDBRANCH  59  65
ENDBRANCH   1  59
BRANCH  19 103
ATOM    103  O   UNL     1     147.213 168.946 191.534  0.00  0.00    -0.385 OA
ATOM    104  H   UNL     1     146.893 169.602 192.180  0.00  0.00    +0.210 HD
ENDBRANCH  19 103
BRANCH  18 105
ATOM    105  O   UNL     1     147.036 165.631 193.131  0.00  0.00    -0.377 OA
BRANCH 105 106
ATOM    106  C   UNL     1     146.890 165.441 194.531  0.00  0.00    +0.037 C 
ATOM    107  H   UNL     1     145.863 165.620 194.866  0.00  0.00    +0.052 HD
ATOM    108  H   UNL     1     147.154 164.405 194.765  0.00  0.00    +0.052 HD
ATOM    109  H   UNL     1     147.578 166.102 195.070  0.00  0.00    +0.052 HD
ENDBRANCH 105 106
ENDBRANCH  18 105
BRANCH   9 110
ATOM    110  O   UNL     1     148.311 163.040 186.946  0.00  0.00    -0.377 OA
BRANCH 110 111
ATOM    111  C   UNL     1     147.592 162.050 186.219  0.00  0.00    +0.037 C 
ATOM    112  H   UNL     1     147.992 161.056 186.437  0.00  0.00    +0.052 HD
ATOM    113  H   UNL     1     147.722 162.247 185.152  0.00  0.00    +0.052 HD
ATOM    114  H   UNL     1     146.523 162.085 186.452  0.00  0.00    +0.052 HD
ENDBRANCH 110 111
ENDBRANCH   9 110
BRANCH   5 115
ATOM    115  O   UNL     1     150.836 165.231 184.427  0.00  0.00    -0.377 OA
BRANCH 115 116
ATOM    116  C   UNL     1     150.814 164.544 183.183  0.00  0.00    +0.037 C 
ATOM    117  H   UNL     1     149.785 164.336 182.878  0.00  0.00    +0.052 HD
ATOM    118  H   UNL     1     151.321 165.120 182.404  0.00  0.00    +0.052 HD
ATOM    119  H   UNL     1     151.336 163.592 183.309  0.00  0.00    +0.052 HD
ENDBRANCH 115 116
ENDBRANCH   5 115
BRANCH   3 120
ATOM    120  O   UNL     1     153.043 163.742 185.427  0.00  0.00    -0.379 OA
BRANCH 120 121
ATOM    121  C   UNL     1     153.677 162.575 184.918  0.00  0.00    +0.037 C 
ATOM    122  H   UNL     1     153.840 162.716 183.847  0.00  0.00    +0.052 HD
ATOM    123  H   UNL     1     153.036 161.701 185.057  0.00  0.00    +0.052 HD
ATOM    124  H   UNL     1     154.646 162.412 185.398  0.00  0.00    +0.052 HD
ENDBRANCH 120 121
ENDBRANCH   3 120
TORSDOF 23
ENDMDL
MODEL 10
REMARK VINA RESULT:      -4.8      5.020     10.020
REMARK  Name = Lobophorolide_conf3
REMARK  23 active torsions:
REMARK  status: ('A' for Active; 'I' for Inactive)
REMARK    1  A    between atoms: C_1  and  C_2
REMARK    2  A    between atoms: C_4  and  O_53
REMARK    3  A    between atoms: C_6  and  C_8
REMARK    4  A    between atoms: C_8  and  C_9
REMARK    5  A    between atoms: C_9  and  C_10
REMARK    6  A    between atoms: C_10  and  C_11
REMARK    7  A    between atoms: C_10  and  C_12
REMARK    8  A    between atoms: C_12  and  C_13
REMARK    9  A    between atoms: C_12  and  O_52
REMARK   10  A    between atoms: C_13  and  C_14
REMARK   11  A    between atoms: C_13  and  C_15
REMARK   12  A    between atoms: C_16  and  C_51
REMARK   13  A    between atoms: C_17  and  O_49
REMARK   14  A    between atoms: C_19  and  O_47
REMARK   15  A    between atoms: C_23  and  O_45
REMARK   16  A    between atoms: C_32  and  O_43
REMARK   17  A    between atoms: C_33  and  O_42
REMARK   18  A    between atoms: C_35  and  C_41
REMARK   19  A    between atoms: O_43  and  C_44
REMARK   20  A    between atoms: O_45  and  C_46
REMARK   21  A    between atoms: O_47  and  C_48
REMARK   22  A    between atoms: O_49  and  C_50
REMARK   23  A    between atoms: O_53  and  C_54
REMARK                            x       y       z     vdW  Elec       q    Type
REMARK                         _______ _______ _______ _____ _____    ______ ____
ROOT
ATOM      1  C   UNL     1     145.255 163.443 187.549  0.00  0.00    +0.113 C 
ATOM      2  C   UNL     1     146.012 163.930 186.270  0.00  0.00    +0.020 C 
ATOM      3  C   UNL     1     147.338 163.214 185.885  0.00  0.00    +0.067 C 
ATOM      4  C   UNL     1     148.411 163.167 186.998  0.00  0.00    +0.003 C 
ATOM      5  C   UNL     1     149.729 162.529 186.500  0.00  0.00    +0.094 C 
ATOM      6  C   UNL     1     150.925 162.928 187.372  0.00  0.00    +0.145 C 
ATOM      7  C   UNL     1     151.284 162.052 188.568  0.00  0.00    +0.083 C 
ATOM      8  O   UNL     1     152.011 161.966 187.340  0.00  0.00    -0.363 OA
ATOM      9  C   UNL     1     151.471 164.355 187.270  0.00  0.00    +0.094 C 
ATOM     10  C   UNL     1     151.230 165.160 188.558  0.00  0.00    +0.003 C 
ATOM     11  C   UNL     1     151.691 166.633 188.495  0.00  0.00    +0.065 C 
ATOM     12  C   UNL     1     153.168 166.873 188.140  0.00  0.00    -0.008 C 
ATOM     13  C   UNL     1     154.070 166.558 189.292  0.00  0.00    -0.083 C 
ATOM     14  C   UNL     1     153.587 166.552 190.543  0.00  0.00    -0.059 C 
ATOM     15  C   UNL     1     152.140 166.861 190.876  0.00  0.00    +0.080 C 
ATOM     16  O   UNL     1     151.405 167.316 189.731  0.00  0.00    -0.369 OA
ATOM     17  C   UNL     1     152.082 167.935 191.972  0.00  0.00    +0.006 C 
ATOM     18  C   UNL     1     150.683 168.331 192.499  0.00  0.00    +0.090 C 
ATOM     19  C   UNL     1     149.782 167.149 192.968  0.00  0.00    +0.100 C 
ATOM     20  C   UNL     1     148.962 166.471 191.898  0.00  0.00    -0.051 C 
ATOM     21  C   UNL     1     147.749 165.898 192.047  0.00  0.00    -0.052 C 
ATOM     22  C   UNL     1     147.057 165.400 190.861  0.00  0.00    -0.052 C 
ATOM     23  C   UNL     1     145.759 165.066 190.818  0.00  0.00    +0.023 C 
ATOM     24  C   UNL     1     145.053 164.615 189.609  0.00  0.00    +0.332 C 
ATOM     25  O   UNL     1     143.840 164.724 189.508  0.00  0.00    -0.246 OA
ATOM     26  O   UNL     1     145.891 164.022 188.717  0.00  0.00    -0.458 OA
ATOM     27  H   UNL     1     144.250 163.863 187.446  0.00  0.00    +0.074 HD
ATOM     28  H   UNL     1     145.314 163.755 185.439  0.00  0.00    +0.036 HD
ATOM     29  H   UNL     1     147.787 163.767 185.048  0.00  0.00    +0.060 HD
ATOM     30  H   UNL     1     148.051 162.583 187.853  0.00  0.00    +0.032 HD
ATOM     31  H   UNL     1     148.596 164.187 187.350  0.00  0.00    +0.032 HD
ATOM     32  H   UNL     1     149.916 162.844 185.466  0.00  0.00    +0.063 HD
ATOM     33  H   UNL     1     151.808 162.465 189.419  0.00  0.00    +0.059 HD
ATOM     34  H   UNL     1     150.628 161.228 188.826  0.00  0.00    +0.059 HD
ATOM     35  H   UNL     1     152.556 164.300 187.100  0.00  0.00    +0.063 HD
ATOM     36  H   UNL     1     151.715 164.652 189.396  0.00  0.00    +0.032 HD
ATOM     37  H   UNL     1     150.161 165.157 188.801  0.00  0.00    +0.032 HD
ATOM     38  H   UNL     1     151.084 167.138 187.734  0.00  0.00    +0.060 HD
ATOM     39  H   UNL     1     153.308 167.935 187.904  0.00  0.00    +0.033 HD
ATOM     40  H   UNL     1     153.467 166.311 187.252  0.00  0.00    +0.033 HD
ATOM     41  H   UNL     1     155.120 166.356 189.101  0.00  0.00    +0.057 HD
ATOM     42  H   UNL     1     154.245 166.299 191.370  0.00  0.00    +0.059 HD
ATOM     43  H   UNL     1     151.684 165.937 191.243  0.00  0.00    +0.064 HD
ATOM     44  H   UNL     1     152.677 167.594 192.831  0.00  0.00    +0.032 HD
ATOM     45  H   UNL     1     152.573 168.837 191.590  0.00  0.00    +0.032 HD
ATOM     46  H   UNL     1     150.872 168.928 193.404  0.00  0.00    +0.063 HD
ATOM     47  H   UNL     1     149.089 167.580 193.701  0.00  0.00    +0.066 HD
ATOM     48  H   UNL     1     149.364 166.568 190.894  0.00  0.00    +0.060 HD
ATOM     49  H   UNL     1     147.642 165.353 189.945  0.00  0.00    +0.062 HD
ATOM     50  H   UNL     1     145.107 165.165 191.677  0.00  0.00    +0.069 HD
ENDROOT
BRANCH  21  51
ATOM     51  C   UNL     1     147.069 165.741 193.384  0.00  0.00    -0.040 C 
ATOM     52  H   UNL     1     146.862 164.697 193.640  0.00  0.00    +0.028 HD
ATOM     53  H   UNL     1     147.696 166.158 194.182  0.00  0.00    +0.028 HD
ATOM     54  H   UNL     1     146.099 166.251 193.398  0.00  0.00    +0.028 HD
ENDBRANCH  21  51
BRANCH   2  55
ATOM     55  C   UNL     1     146.229 165.452 186.319  0.00  0.00    -0.057 C 
ATOM     56  H   UNL     1     147.165 165.691 186.839  0.00  0.00    +0.023 HD
ATOM     57  H   UNL     1     146.278 165.896 185.321  0.00  0.00    +0.023 HD
ATOM     58  H   UNL     1     145.415 165.940 186.866  0.00  0.00    +0.023 HD
ENDBRANCH   2  55
BRANCH   1  59
ATOM     59  C   UNL     1     145.119 161.903 187.736  0.00  0.00    +0.020 C 
ATOM     60  H   UNL     1     145.478 161.445 186.809  0.00  0.00    +0.036 HD
BRANCH  59  61
ATOM     61  C   UNL     1     146.079 161.316 188.783  0.00  0.00    -0.057 C 
ATOM     62  H   UNL     1     145.865 161.720 189.778  0.00  0.00    +0.023 HD
ATOM     63  H   UNL     1     145.960 160.229 188.855  0.00  0.00    +0.023 HD
ATOM     64  H   UNL     1     147.126 161.522 188.547  0.00  0.00    +0.023 HD
ENDBRANCH  59  61
BRANCH  59  65
ATOM     65  C   UNL     1     143.652 161.430 187.960  0.00  0.00    +0.064 C 
ATOM     66  H   UNL     1     142.953 162.248 187.761  0.00  0.00    +0.060 HD
BRANCH  65  67
ATOM     67  C   UNL     1     143.277 160.813 189.347  0.00  0.00    -0.017 C 
ATOM     68  H   UNL     1     144.161 160.868 189.985  0.00  0.00    +0.032 HD
BRANCH  67  69
ATOM     69  C   UNL     1     142.140 161.585 190.018  0.00  0.00    -0.060 C 
ATOM     70  H   UNL     1     141.990 161.274 191.056  0.00  0.00    +0.023 HD
ATOM     71  H   UNL     1     141.195 161.445 189.483  0.00  0.00    +0.023 HD
ATOM     72  H   UNL     1     142.354 162.654 190.070  0.00  0.00    +0.023 HD
ENDBRANCH  67  69
BRANCH  67  73
ATOM     73  C   UNL     1     142.930 159.307 189.183  0.00  0.00    -0.046 C 
ATOM     74  H   UNL     1     141.980 159.248 188.634  0.00  0.00    +0.027 HD
ATOM     75  H   UNL     1     143.679 158.825 188.541  0.00  0.00    +0.027 HD
BRANCH  73  76
ATOM     76  C   UNL     1     142.769 158.447 190.443  0.00  0.00    -0.026 C 
ATOM     77  H   UNL     1     142.680 159.065 191.343  0.00  0.00    +0.029 HD
ATOM     78  H   UNL     1     141.783 157.963 190.367  0.00  0.00    +0.029 HD
BRANCH  76  83
ATOM     79  C   UNL     1     146.101 157.888 190.241  0.00  0.00    +0.059 C 
ATOM     80  C   UNL     1     146.487 156.423 190.068  0.00  0.00    -0.000 C 
ATOM     81  C   UNL     1     145.303 155.588 189.564  0.00  0.00    +0.063 C 
ATOM     82  C   UNL     1     144.012 156.402 189.466  0.00  0.00    -0.000 C 
ATOM     83  C   UNL     1     143.791 157.317 190.675  0.00  0.00    +0.061 C 
ATOM     84  O   UNL     1     144.991 157.967 191.133  0.00  0.00    -0.373 OA
ATOM     85  H   UNL     1     145.833 158.346 189.281  0.00  0.00    +0.059 HD
ATOM     86  H   UNL     1     147.323 156.336 189.367  0.00  0.00    +0.032 HD
ATOM     87  H   UNL     1     146.837 156.024 191.030  0.00  0.00    +0.032 HD
ATOM     88  H   UNL     1     145.525 155.196 188.563  0.00  0.00    +0.060 HD
ATOM     89  H   UNL     1     144.062 157.008 188.555  0.00  0.00    +0.032 HD
ATOM     90  H   UNL     1     143.164 155.720 189.363  0.00  0.00    +0.032 HD
ATOM     91  H   UNL     1     143.444 156.706 191.518  0.00  0.00    +0.060 HD
BRANCH  79  92
ATOM     92  C   UNL     1     147.246 158.689 190.847  0.00  0.00    -0.039 C 
ATOM     93  H   UNL     1     147.821 158.089 191.556  0.00  0.00    +0.025 HD
ATOM     94  H   UNL     1     147.917 159.044 190.062  0.00  0.00    +0.025 HD
ATOM     95  H   UNL     1     146.869 159.581 191.365  0.00  0.00    +0.025 HD
ENDBRANCH  79  92
BRANCH  81  96
ATOM     96  O   UNL     1     145.067 154.475 190.438  0.00  0.00    -0.380 OA
BRANCH  96  97
ATOM     97  C   UNL     1     144.016 153.626 189.989  0.00  0.00    +0.037 C 
ATOM     98  H   UNL     1     143.466 154.111 189.175  0.00  0.00    +0.052 HD
ATOM     99  H   UNL     1     143.329 153.459 190.823  0.00  0.00    +0.052 HD
ATOM    100  H   UNL     1     144.400 152.656 189.655  0.00  0.00    +0.052 HD
ENDBRANCH  96  97
ENDBRANCH  81  96
ENDBRANCH  76  83
ENDBRANCH  73  76
ENDBRANCH  67  73
ENDBRANCH  65  67
BRANCH  65 101
ATOM    101  O   UNL     1     143.386 160.436 186.956  0.00  0.00    -0.391 OA
ATOM    102  H   UNL     1     142.907 159.710 187.407  0.00  0.00    +0.210 HD
ENDBRANCH  65 101
ENDBRANCH  59  65
ENDBRANCH   1  59
BRANCH  19 103
ATOM    103  O   UNL     1     150.564 166.170 193.652  0.00  0.00    -0.385 OA
ATOM    104  H   UNL     1     150.352 166.240 194.600  0.00  0.00    +0.210 HD
ENDBRANCH  19 103
BRANCH  18 105
ATOM    105  O   UNL     1     149.956 169.149 191.571  0.00  0.00    -0.377 OA
BRANCH 105 106
ATOM    106  C   UNL     1     149.897 170.519 191.941  0.00  0.00    +0.037 C 
ATOM    107  H   UNL     1     149.775 170.649 193.022  0.00  0.00    +0.052 HD
ATOM    108  H   UNL     1     150.835 170.995 191.640  0.00  0.00    +0.052 HD
ATOM    109  H   UNL     1     149.076 171.012 191.411  0.00  0.00    +0.052 HD
ENDBRANCH 105 106
ENDBRANCH  18 105
BRANCH   9 110
ATOM    110  O   UNL     1     150.855 165.059 186.180  0.00  0.00    -0.377 OA
BRANCH 110 111
ATOM    111  C   UNL     1     151.663 165.066 185.009  0.00  0.00    +0.037 C 
ATOM    112  H   UNL     1     151.958 166.089 184.759  0.00  0.00    +0.052 HD
ATOM    113  H   UNL     1     151.071 164.666 184.182  0.00  0.00    +0.052 HD
ATOM    114  H   UNL     1     152.551 164.439 185.137  0.00  0.00    +0.052 HD
ENDBRANCH 110 111
ENDBRANCH   9 110
BRANCH   5 115
ATOM    115  O   UNL     1     149.544 161.099 186.533  0.00  0.00    -0.377 OA
BRANCH 115 116
ATOM    116  C   UNL     1     149.974 160.453 185.341  0.00  0.00    +0.037 C 
ATOM    117  H   UNL     1     149.817 161.103 184.475  0.00  0.00    +0.052 HD
ATOM    118  H   UNL     1     151.027 160.169 185.403  0.00  0.00    +0.052 HD
ATOM    119  H   UNL     1     149.375 159.549 185.208  0.00  0.00    +0.052 HD
ENDBRANCH 115 116
ENDBRANCH   5 115
BRANCH   3 120
ATOM    120  O   UNL     1     147.042 161.882 185.431  0.00  0.00    -0.379 OA
BRANCH 120 121
ATOM    121  C   UNL     1     146.453 161.847 184.138  0.00  0.00    +0.037 C 
ATOM    122  H   UNL     1     145.384 162.047 184.244  0.00  0.00    +0.052 HD
ATOM    123  H   UNL     1     146.575 160.857 183.690  0.00  0.00    +0.052 HD
ATOM    124  H   UNL     1     146.886 162.611 183.486  0.00  0.00    +0.052 HD
ENDBRANCH 120 121
ENDBRANCH   3 120
TORSDOF 23
ENDMDL
