MODEL 1
REMARK VINA RESULT:      -4.6      0.000      0.000
REMARK  Name = Mycalolide B_conf1
REMARK  35 active torsions:
REMARK  status: ('A' for Active; 'I' for Inactive)
REMARK    1  A    between atoms: C_1  and  C_2
REMARK    2  A    between atoms: C_3  and  O_72
REMARK    3  A    between atoms: C_22  and  O_70
REMARK    4  A    between atoms: C_23  and  C_69
REMARK    5  A    between atoms: C_29  and  O_68
REMARK    6  A    between atoms: C_34  and  C_35
REMARK    7  A    between atoms: C_35  and  C_36
REMARK    8  A    between atoms: C_36  and  C_37
REMARK    9  A    between atoms: C_36  and  O_66
REMARK   10  A    between atoms: C_37  and  C_38
REMARK   11  A    between atoms: C_37  and  C_39
REMARK   12  A    between atoms: C_39  and  C_40
REMARK   13  A    between atoms: C_40  and  C_41
REMARK   14  A    between atoms: C_41  and  C_42
REMARK   15  A    between atoms: C_41  and  O_57
REMARK   16  A    between atoms: C_42  and  C_43
REMARK   17  A    between atoms: C_42  and  C_44
REMARK   18  A    between atoms: C_44  and  C_45
REMARK   19  A    between atoms: C_44  and  O_53
REMARK   20  A    between atoms: C_45  and  C_46
REMARK   21  A    between atoms: C_45  and  C_47
REMARK   22  A    between atoms: C_48  and  N_49
REMARK   23  A    between atoms: N_49  and  C_50
REMARK   24  A    between atoms: O_53  and  C_54
REMARK   25  A    between atoms: C_54  and  C_56
REMARK   26  A    between atoms: O_57  and  C_58
REMARK   27  A    between atoms: C_58  and  C_60
REMARK   28  A    between atoms: C_60  and  C_61
REMARK   29  A    between atoms: C_60  and  O_64
REMARK   30  A    between atoms: C_61  and  O_62
REMARK   31  A    between atoms: O_62  and  C_63
REMARK   32  A    between atoms: O_64  and  C_65
REMARK   33  A    between atoms: O_66  and  C_67
REMARK   34  A    between atoms: O_70  and  C_71
REMARK   35  A    between atoms: O_72  and  C_73
REMARK                            x       y       z     vdW  Elec       q    Type
REMARK                         _______ _______ _______ _____ _____    ______ ____
ROOT
ATOM      1  C   UNL     1     151.142 167.638 189.938  0.00  0.00    +0.011 C 
ATOM      2  H   UNL     1     150.621 168.476 189.457  0.00  0.00    +0.033 HD
ATOM      3  H   UNL     1     152.020 168.088 190.413  0.00  0.00    +0.033 HD
ENDROOT
BRANCH   1  36
ATOM      4  C   UNL     1     150.486 167.567 192.450  0.00  0.00    +0.020 C 
ATOM      5  C   UNL     1     151.449 166.740 193.354  0.00  0.00    +0.068 C 
ATOM      6  C   UNL     1     152.877 166.452 192.810  0.00  0.00    -0.008 C 
ATOM      7  C   UNL     1     152.963 165.367 191.773  0.00  0.00    -0.077 C 
ATOM      8  C   UNL     1     153.966 165.196 190.898  0.00  0.00    -0.003 C 
ATOM      9  C   UNL     1     153.899 164.140 189.944  0.00  0.00    +0.220 A 
ATOM     10  N   UNL     1     152.803 163.475 189.610  0.00  0.00    -0.205 NA
ATOM     11  C   UNL     1     153.196 162.552 188.677  0.00  0.00    +0.164 A 
ATOM     12  C   UNL     1     154.536 162.689 188.438  0.00  0.00    +0.125 A 
ATOM     13  O   UNL     1     154.997 163.706 189.219  0.00  0.00    -0.443 OA
ATOM     14  C   UNL     1     152.235 161.519 188.016  0.00  0.00    +0.250 A 
ATOM     15  N   UNL     1     150.944 161.483 188.282  0.00  0.00    -0.203 NA
ATOM     16  C   UNL     1     150.464 160.444 187.527  0.00  0.00    +0.164 A 
ATOM     17  C   UNL     1     151.489 159.876 186.817  0.00  0.00    +0.125 A 
ATOM     18  O   UNL     1     152.633 160.558 187.113  0.00  0.00    -0.442 OA
ATOM     19  C   UNL     1     148.973 159.985 187.491  0.00  0.00    +0.249 A 
ATOM     20  N   UNL     1     148.015 160.583 188.183  0.00  0.00    -0.210 NA
ATOM     21  C   UNL     1     146.862 159.907 187.853  0.00  0.00    +0.109 A 
ATOM     22  C   UNL     1     147.174 158.899 186.969  0.00  0.00    +0.118 A 
ATOM     23  O   UNL     1     148.514 158.934 186.731  0.00  0.00    -0.442 OA
ATOM     24  C   UNL     1     145.526 160.335 188.384  0.00  0.00    +0.113 C 
ATOM     25  C   UNL     1     145.293 161.841 188.136  0.00  0.00    +0.051 C 
ATOM     26  C   UNL     1     143.902 162.216 188.627  0.00  0.00    +0.161 C 
ATOM     27  O   UNL     1     142.911 161.537 188.360  0.00  0.00    -0.292 OA
ATOM     28  C   UNL     1     143.698 163.472 189.408  0.00  0.00    -0.023 C 
ATOM     29  C   UNL     1     144.510 164.542 189.362  0.00  0.00    -0.078 C 
ATOM     30  C   UNL     1     144.252 165.811 190.130  0.00  0.00    -0.008 C 
ATOM     31  C   UNL     1     145.405 166.200 191.075  0.00  0.00    +0.069 C 
ATOM     32  C   UNL     1     146.610 166.784 190.327  0.00  0.00    +0.071 C 
ATOM     33  C   UNL     1     147.910 166.432 191.009  0.00  0.00    +0.310 C 
ATOM     34  O   UNL     1     148.086 165.457 191.723  0.00  0.00    -0.251 OA
ATOM     35  O   UNL     1     148.877 167.317 190.633  0.00  0.00    -0.461 OA
ATOM     36  C   UNL     1     150.243 167.001 191.017  0.00  0.00    +0.110 C 
ATOM     37  H   UNL     1     149.509 167.553 192.950  0.00  0.00    +0.036 HD
ATOM     38  H   UNL     1     151.598 167.311 194.281  0.00  0.00    +0.060 HD
ATOM     39  H   UNL     1     153.342 167.376 192.454  0.00  0.00    +0.033 HD
ATOM     40  H   UNL     1     153.474 166.101 193.664  0.00  0.00    +0.033 HD
ATOM     41  H   UNL     1     152.139 164.647 191.772  0.00  0.00    +0.057 HD
ATOM     42  H   UNL     1     154.837 165.840 190.892  0.00  0.00    +0.067 HD
ATOM     43  H   UNL     1     155.256 162.199 187.800  0.00  0.00    +0.105 HD
ATOM     44  H   UNL     1     151.574 159.058 186.121  0.00  0.00    +0.105 HD
ATOM     45  H   UNL     1     146.614 158.140 186.442  0.00  0.00    +0.105 HD
ATOM     46  H   UNL     1     144.732 159.757 187.892  0.00  0.00    +0.067 HD
ATOM     47  H   UNL     1     146.038 162.407 188.707  0.00  0.00    +0.041 HD
ATOM     48  H   UNL     1     142.785 163.479 189.997  0.00  0.00    +0.065 HD
ATOM     49  H   UNL     1     145.395 164.538 188.729  0.00  0.00    +0.057 HD
ATOM     50  H   UNL     1     144.067 166.628 189.421  0.00  0.00    +0.033 HD
ATOM     51  H   UNL     1     143.327 165.717 190.713  0.00  0.00    +0.033 HD
ATOM     52  H   UNL     1     145.678 165.333 191.687  0.00  0.00    +0.060 HD
ATOM     53  H   UNL     1     146.525 167.874 190.270  0.00  0.00    +0.040 HD
ATOM     54  H   UNL     1     146.689 166.386 189.310  0.00  0.00    +0.040 HD
ATOM     55  H   UNL     1     150.363 165.914 190.997  0.00  0.00    +0.074 HD
BRANCH   4  56
ATOM     56  C   UNL     1     150.883 169.051 192.463  0.00  0.00    -0.057 C 
ATOM     57  H   UNL     1     150.260 169.658 191.798  0.00  0.00    +0.023 HD
ATOM     58  H   UNL     1     150.816 169.466 193.473  0.00  0.00    +0.023 HD
ATOM     59  H   UNL     1     151.922 169.173 192.131  0.00  0.00    +0.023 HD
ENDBRANCH   4  56
BRANCH  25  60
ATOM     60  C   UNL     1     145.377 162.222 186.655  0.00  0.00    -0.053 C 
ATOM     61  H   UNL     1     144.381 162.304 186.205  0.00  0.00    +0.024 HD
ATOM     62  H   UNL     1     145.931 161.469 186.089  0.00  0.00    +0.024 HD
ATOM     63  H   UNL     1     145.876 163.187 186.520  0.00  0.00    +0.024 HD
ENDBRANCH  25  60
BRANCH  31  64
ATOM     64  O   UNL     1     144.925 167.212 191.972  0.00  0.00    -0.391 OA
ATOM     65  H   UNL     1     145.561 167.274 192.710  0.00  0.00    +0.210 HD
ENDBRANCH  31  64
BRANCH  24  66
ATOM     66  O   UNL     1     145.441 160.125 189.808  0.00  0.00    -0.373 OA
BRANCH  66  67
ATOM     67  C   UNL     1     145.179 158.772 190.156  0.00  0.00    +0.037 C 
ATOM     68  H   UNL     1     144.985 158.672 191.227  0.00  0.00    +0.052 HD
ATOM     69  H   UNL     1     146.017 158.133 189.859  0.00  0.00    +0.052 HD
ATOM     70  H   UNL     1     144.290 158.445 189.612  0.00  0.00    +0.052 HD
ENDBRANCH  66  67
ENDBRANCH  24  66
BRANCH   5  71
ATOM     71  O   UNL     1     150.882 165.473 193.723  0.00  0.00    -0.379 OA
BRANCH  71  72
ATOM     72  C   UNL     1     150.943 165.172 195.109  0.00  0.00    +0.037 C 
ATOM     73  H   UNL     1     151.994 165.191 195.416  0.00  0.00    +0.052 HD
ATOM     74  H   UNL     1     150.401 165.920 195.696  0.00  0.00    +0.052 HD
ATOM     75  H   UNL     1     150.552 164.176 195.321  0.00  0.00    +0.052 HD
ENDBRANCH  71  72
ENDBRANCH   5  71
ENDBRANCH   1  36
BRANCH   1  76
ATOM     76  C   UNL     1     151.657 166.693 188.832  0.00  0.00    +0.064 C 
ATOM     77  H   UNL     1     152.060 165.788 189.305  0.00  0.00    +0.060 HD
BRANCH  76  78
ATOM     78  C   UNL     1     150.632 166.238 187.753  0.00  0.00    -0.017 C 
ATOM     79  H   UNL     1     151.166 166.053 186.816  0.00  0.00    +0.032 HD
BRANCH  78  80
ATOM     80  C   UNL     1     149.880 164.960 188.161  0.00  0.00    -0.060 C 
ATOM     81  H   UNL     1     148.834 165.003 187.846  0.00  0.00    +0.023 HD
ATOM     82  H   UNL     1     149.900 164.817 189.246  0.00  0.00    +0.023 HD
ATOM     83  H   UNL     1     150.305 164.066 187.699  0.00  0.00    +0.023 HD
ENDBRANCH  78  80
BRANCH  78  84
ATOM     84  C   UNL     1     149.632 167.397 187.504  0.00  0.00    -0.045 C 
ATOM     85  H   UNL     1     148.691 167.128 187.986  0.00  0.00    +0.027 HD
ATOM     86  H   UNL     1     150.000 168.303 188.002  0.00  0.00    +0.027 HD
BRANCH  84  87
ATOM     87  C   UNL     1     149.352 167.721 186.037  0.00  0.00    -0.015 C 
ATOM     88  H   UNL     1     150.156 167.352 185.392  0.00  0.00    +0.030 HD
ATOM     89  H   UNL     1     149.366 168.812 185.904  0.00  0.00    +0.030 HD
BRANCH  87  90
ATOM     90  C   UNL     1     148.000 167.187 185.518  0.00  0.00    +0.109 C 
ATOM     91  H   UNL     1     147.758 167.733 184.599  0.00  0.00    +0.074 HD
BRANCH  90  92
ATOM     92  C   UNL     1     146.768 167.255 186.485  0.00  0.00    +0.031 C 
ATOM     93  H   UNL     1     147.201 167.353 187.490  0.00  0.00    +0.037 HD
BRANCH  92  94
ATOM     94  C   UNL     1     145.995 165.930 186.481  0.00  0.00    -0.056 C 
ATOM     95  H   UNL     1     146.309 165.250 187.275  0.00  0.00    +0.023 HD
ATOM     96  H   UNL     1     144.919 166.097 186.588  0.00  0.00    +0.023 HD
ATOM     97  H   UNL     1     146.129 165.407 185.531  0.00  0.00    +0.023 HD
ENDBRANCH  92  94
BRANCH  92  98
ATOM     98  C   UNL     1     145.874 168.515 186.261  0.00  0.00    +0.115 C 
ATOM     99  H   UNL     1     145.588 168.546 185.205  0.00  0.00    +0.074 HD
BRANCH  98 100
ATOM    100  C   UNL     1     144.575 168.640 187.115  0.00  0.00    +0.013 C 
ATOM    101  H   UNL     1     144.208 167.619 187.297  0.00  0.00    +0.038 HD
BRANCH 100 102
ATOM    102  C   UNL     1     143.417 169.323 186.380  0.00  0.00    -0.056 C 
ATOM    103  H   UNL     1     143.067 170.223 186.895  0.00  0.00    +0.024 HD
ATOM    104  H   UNL     1     143.714 169.607 185.367  0.00  0.00    +0.024 HD
ATOM    105  H   UNL     1     142.561 168.643 186.293  0.00  0.00    +0.024 HD
ENDBRANCH 100 102
BRANCH 100 106
ATOM    106  C   UNL     1     144.816 169.261 188.476  0.00  0.00    -0.064 C 
ATOM    107  C   UNL     1     144.190 170.385 188.857  0.00  0.00    -0.005 C 
ATOM    108  H   UNL     1     145.521 168.753 189.123  0.00  0.00    +0.059 HD
ATOM    109  H   UNL     1     143.491 170.853 188.159  0.00  0.00    +0.078 HD
BRANCH 107 110
ATOM    110  N   UNL     1     144.306 171.051 190.069  0.00  0.00    -0.284 N 
ATOM    111  C   UNL     1     145.439 171.719 190.510  0.00  0.00    +0.206 C 
ATOM    112  O   UNL     1     145.562 172.312 191.580  0.00  0.00    -0.279 OA
ATOM    113  H   UNL     1     146.283 171.679 189.809  0.00  0.00    +0.126 HD
BRANCH 110 114
ATOM    114  C   UNL     1     143.147 171.016 190.957  0.00  0.00    +0.007 C 
ATOM    115  H   UNL     1     142.458 171.842 190.761  0.00  0.00    +0.043 HD
ATOM    116  H   UNL     1     142.609 170.074 190.818  0.00  0.00    +0.043 HD
ATOM    117  H   UNL     1     143.497 171.088 191.990  0.00  0.00    +0.043 HD
ENDBRANCH 110 114
ENDBRANCH 107 110
ENDBRANCH 100 106
ENDBRANCH  98 100
BRANCH  98 118
ATOM    118  O   UNL     1     146.694 169.682 186.548  0.00  0.00    -0.461 OA
BRANCH 118 119
ATOM    119  C   UNL     1     146.568 170.747 185.709  0.00  0.00    +0.304 C 
ATOM    120  O   UNL     1     146.149 171.850 186.021  0.00  0.00    -0.251 OA
BRANCH 119 121
ATOM    121  C   UNL     1     147.029 170.370 184.334  0.00  0.00    +0.033 C 
ATOM    122  H   UNL     1     146.166 170.134 183.708  0.00  0.00    +0.034 HD
ATOM    123  H   UNL     1     147.664 169.481 184.398  0.00  0.00    +0.034 HD
ATOM    124  H   UNL     1     147.611 171.185 183.898  0.00  0.00    +0.034 HD
ENDBRANCH 119 121
ENDBRANCH 118 119
ENDBRANCH  98 118
ENDBRANCH  92  98
ENDBRANCH  90  92
BRANCH  90 125
ATOM    125  O   UNL     1     148.203 165.780 185.220  0.00  0.00    -0.459 OA
BRANCH 125 126
ATOM    126  C   UNL     1     148.736 165.461 183.999  0.00  0.00    +0.339 C 
ATOM    127  O   UNL     1     148.556 166.096 182.967  0.00  0.00    -0.248 OA
BRANCH 126 128
ATOM    128  C   UNL     1     149.632 164.216 184.149  0.00  0.00    +0.178 C 
ATOM    129  H   UNL     1     149.649 163.703 183.177  0.00  0.00    +0.074 HD
BRANCH 128 130
ATOM    130  C   UNL     1     151.065 164.671 184.478  0.00  0.00    +0.084 C 
ATOM    131  H   UNL     1     151.061 165.643 184.986  0.00  0.00    +0.059 HD
ATOM    132  H   UNL     1     151.634 164.770 183.546  0.00  0.00    +0.059 HD
BRANCH 130 133
ATOM    133  O   UNL     1     151.721 163.719 185.325  0.00  0.00    -0.380 OA
BRANCH 133 134
ATOM    134  C   UNL     1     153.096 163.577 185.000  0.00  0.00    +0.037 C 
ATOM    135  H   UNL     1     153.589 164.554 184.994  0.00  0.00    +0.052 HD
ATOM    136  H   UNL     1     153.593 162.907 185.708  0.00  0.00    +0.052 HD
ATOM    137  H   UNL     1     153.168 163.144 183.996  0.00  0.00    +0.052 HD
ENDBRANCH 133 134
ENDBRANCH 130 133
ENDBRANCH 128 130
BRANCH 128 138
ATOM    138  O   UNL     1     149.258 163.255 185.141  0.00  0.00    -0.366 OA
BRANCH 138 139
ATOM    139  C   UNL     1     148.514 162.165 184.619  0.00  0.00    +0.038 C 
ATOM    140  H   UNL     1     147.578 162.028 185.172  0.00  0.00    +0.052 HD
ATOM    141  H   UNL     1     149.104 161.245 184.638  0.00  0.00    +0.052 HD
ATOM    142  H   UNL     1     148.269 162.388 183.576  0.00  0.00    +0.052 HD
ENDBRANCH 138 139
ENDBRANCH 128 138
ENDBRANCH 126 128
ENDBRANCH 125 126
ENDBRANCH  90 125
ENDBRANCH  87  90
ENDBRANCH  84  87
ENDBRANCH  78  84
ENDBRANCH  76  78
BRANCH  76 143
ATOM    143  O   UNL     1     152.717 167.388 188.139  0.00  0.00    -0.379 OA
BRANCH 143 144
ATOM    144  C   UNL     1     153.371 166.597 187.157  0.00  0.00    +0.037 C 
ATOM    145  H   UNL     1     152.639 165.903 186.733  0.00  0.00    +0.052 HD
ATOM    146  H   UNL     1     153.763 167.224 186.350  0.00  0.00    +0.052 HD
ATOM    147  H   UNL     1     154.178 166.012 187.613  0.00  0.00    +0.052 HD
ENDBRANCH 143 144
ENDBRANCH  76 143
ENDBRANCH   1  76
TORSDOF 35
ENDMDL
MODEL 2
REMARK VINA RESULT:      -4.6      2.475      8.559
REMARK  Name = Mycalolide B_conf1
REMARK  35 active torsions:
REMARK  status: ('A' for Active; 'I' for Inactive)
REMARK    1  A    between atoms: C_1  and  C_2
REMARK    2  A    between atoms: C_3  and  O_72
REMARK    3  A    between atoms: C_22  and  O_70
REMARK    4  A    between atoms: C_23  and  C_69
REMARK    5  A    between atoms: C_29  and  O_68
REMARK    6  A    between atoms: C_34  and  C_35
REMARK    7  A    between atoms: C_35  and  C_36
REMARK    8  A    between atoms: C_36  and  C_37
REMARK    9  A    between atoms: C_36  and  O_66
REMARK   10  A    between atoms: C_37  and  C_38
REMARK   11  A    between atoms: C_37  and  C_39
REMARK   12  A    between atoms: C_39  and  C_40
REMARK   13  A    between atoms: C_40  and  C_41
REMARK   14  A    between atoms: C_41  and  C_42
REMARK   15  A    between atoms: C_41  and  O_57
REMARK   16  A    between atoms: C_42  and  C_43
REMARK   17  A    between atoms: C_42  and  C_44
REMARK   18  A    between atoms: C_44  and  C_45
REMARK   19  A    between atoms: C_44  and  O_53
REMARK   20  A    between atoms: C_45  and  C_46
REMARK   21  A    between atoms: C_45  and  C_47
REMARK   22  A    between atoms: C_48  and  N_49
REMARK   23  A    between atoms: N_49  and  C_50
REMARK   24  A    between atoms: O_53  and  C_54
REMARK   25  A    between atoms: C_54  and  C_56
REMARK   26  A    between atoms: O_57  and  C_58
REMARK   27  A    between atoms: C_58  and  C_60
REMARK   28  A    between atoms: C_60  and  C_61
REMARK   29  A    between atoms: C_60  and  O_64
REMARK   30  A    between atoms: C_61  and  O_62
REMARK   31  A    between atoms: O_62  and  C_63
REMARK   32  A    between atoms: O_64  and  C_65
REMARK   33  A    between atoms: O_66  and  C_67
REMARK   34  A    between atoms: O_70  and  C_71
REMARK   35  A    between atoms: O_72  and  C_73
REMARK                            x       y       z     vdW  Elec       q    Type
REMARK                         _______ _______ _______ _____ _____    ______ ____
ROOT
ATOM      1  C   UNL     1     148.206 164.870 185.086  0.00  0.00    +0.011 C 
ATOM      2  H   UNL     1     148.804 165.438 184.363  0.00  0.00    +0.033 HD
ATOM      3  H   UNL     1     147.512 164.282 184.477  0.00  0.00    +0.033 HD
ENDROOT
BRANCH   1  36
ATOM      4  C   UNL     1     149.477 162.606 185.142  0.00  0.00    +0.020 C 
ATOM      5  C   UNL     1     148.589 161.366 185.464  0.00  0.00    +0.068 C 
ATOM      6  C   UNL     1     147.055 161.507 185.262  0.00  0.00    -0.008 C 
ATOM      7  C   UNL     1     146.332 162.269 186.338  0.00  0.00    -0.077 C 
ATOM      8  C   UNL     1     145.125 162.845 186.216  0.00  0.00    -0.003 C 
ATOM      9  C   UNL     1     144.574 163.568 187.313  0.00  0.00    +0.220 A 
ATOM     10  N   UNL     1     145.253 164.007 188.363  0.00  0.00    -0.205 NA
ATOM     11  C   UNL     1     144.335 164.632 189.165  0.00  0.00    +0.164 A 
ATOM     12  C   UNL     1     143.104 164.583 188.572  0.00  0.00    +0.125 A 
ATOM     13  O   UNL     1     143.239 163.929 187.384  0.00  0.00    -0.443 OA
ATOM     14  C   UNL     1     144.680 165.282 190.539  0.00  0.00    +0.250 A 
ATOM     15  N   UNL     1     145.908 165.312 191.019  0.00  0.00    -0.203 NA
ATOM     16  C   UNL     1     145.791 165.942 192.231  0.00  0.00    +0.164 A 
ATOM     17  C   UNL     1     144.481 166.279 192.452  0.00  0.00    +0.125 A 
ATOM     18  O   UNL     1     143.754 165.869 191.373  0.00  0.00    -0.442 OA
ATOM     19  C   UNL     1     146.976 166.225 193.205  0.00  0.00    +0.249 A 
ATOM     20  N   UNL     1     148.230 165.896 192.933  0.00  0.00    -0.210 NA
ATOM     21  C   UNL     1     148.957 166.341 194.014  0.00  0.00    +0.109 A 
ATOM     22  C   UNL     1     148.099 166.921 194.920  0.00  0.00    +0.118 A 
ATOM     23  O   UNL     1     146.834 166.852 194.421  0.00  0.00    -0.442 OA
ATOM     24  C   UNL     1     150.452 166.219 194.054  0.00  0.00    +0.113 C 
ATOM     25  C   UNL     1     151.085 166.798 192.770  0.00  0.00    +0.051 C 
ATOM     26  C   UNL     1     152.601 166.716 192.884  0.00  0.00    +0.161 C 
ATOM     27  O   UNL     1     153.199 167.064 193.902  0.00  0.00    -0.292 OA
ATOM     28  C   UNL     1     153.414 166.258 191.719  0.00  0.00    -0.023 C 
ATOM     29  C   UNL     1     153.018 166.324 190.436  0.00  0.00    -0.078 C 
ATOM     30  C   UNL     1     153.881 165.893 189.280  0.00  0.00    -0.008 C 
ATOM     31  C   UNL     1     153.232 164.805 188.404  0.00  0.00    +0.069 C 
ATOM     32  C   UNL     1     152.126 165.359 187.497  0.00  0.00    +0.071 C 
ATOM     33  C   UNL     1     151.028 164.347 187.279  0.00  0.00    +0.310 C 
ATOM     34  O   UNL     1     150.750 163.437 188.045  0.00  0.00    -0.251 OA
ATOM     35  O   UNL     1     150.340 164.657 186.143  0.00  0.00    -0.461 OA
ATOM     36  C   UNL     1     149.110 163.921 185.897  0.00  0.00    +0.110 C 
ATOM     37  H   UNL     1     150.494 162.347 185.462  0.00  0.00    +0.036 HD
ATOM     38  H   UNL     1     148.901 160.557 184.789  0.00  0.00    +0.060 HD
ATOM     39  H   UNL     1     146.837 161.920 184.272  0.00  0.00    +0.033 HD
ATOM     40  H   UNL     1     146.639 160.489 185.283  0.00  0.00    +0.033 HD
ATOM     41  H   UNL     1     146.840 162.318 187.305  0.00  0.00    +0.057 HD
ATOM     42  H   UNL     1     144.548 162.778 185.302  0.00  0.00    +0.067 HD
ATOM     43  H   UNL     1     142.115 164.935 188.825  0.00  0.00    +0.105 HD
ATOM     44  H   UNL     1     143.943 166.767 193.247  0.00  0.00    +0.105 HD
ATOM     45  H   UNL     1     148.209 167.405 195.880  0.00  0.00    +0.105 HD
ATOM     46  H   UNL     1     150.842 166.756 194.929  0.00  0.00    +0.067 HD
ATOM     47  H   UNL     1     150.758 166.194 191.917  0.00  0.00    +0.041 HD
ATOM     48  H   UNL     1     154.406 165.903 191.988  0.00  0.00    +0.065 HD
ATOM     49  H   UNL     1     152.042 166.727 190.179  0.00  0.00    +0.057 HD
ATOM     50  H   UNL     1     154.117 166.769 188.663  0.00  0.00    +0.033 HD
ATOM     51  H   UNL     1     154.848 165.527 189.647  0.00  0.00    +0.033 HD
ATOM     52  H   UNL     1     152.872 163.992 189.045  0.00  0.00    +0.060 HD
ATOM     53  H   UNL     1     152.543 165.642 186.525  0.00  0.00    +0.040 HD
ATOM     54  H   UNL     1     151.640 166.236 187.938  0.00  0.00    +0.040 HD
ATOM     55  H   UNL     1     148.641 163.704 186.861  0.00  0.00    +0.074 HD
BRANCH   4  56
ATOM     56  C   UNL     1     149.608 162.790 183.622  0.00  0.00    -0.057 C 
ATOM     57  H   UNL     1     150.242 162.027 183.160  0.00  0.00    +0.023 HD
ATOM     58  H   UNL     1     148.626 162.762 183.138  0.00  0.00    +0.023 HD
ATOM     59  H   UNL     1     150.054 163.765 183.391  0.00  0.00    +0.023 HD
ENDBRANCH   4  56
BRANCH  25  60
ATOM     60  C   UNL     1     150.720 168.267 192.535  0.00  0.00    -0.053 C 
ATOM     61  H   UNL     1     150.531 168.467 191.474  0.00  0.00    +0.024 HD
ATOM     62  H   UNL     1     151.531 168.927 192.854  0.00  0.00    +0.024 HD
ATOM     63  H   UNL     1     149.816 168.545 193.085  0.00  0.00    +0.024 HD
ENDBRANCH  25  60
BRANCH  31  64
ATOM     64  O   UNL     1     154.246 164.251 187.554  0.00  0.00    -0.391 OA
ATOM     65  H   UNL     1     154.078 163.293 187.481  0.00  0.00    +0.210 HD
ENDBRANCH  31  64
BRANCH  24  66
ATOM     66  O   UNL     1     150.858 164.838 194.138  0.00  0.00    -0.373 OA
BRANCH  66  67
ATOM     67  C   UNL     1     150.993 164.377 195.475  0.00  0.00    +0.037 C 
ATOM     68  H   UNL     1     150.146 163.749 195.763  0.00  0.00    +0.052 HD
ATOM     69  H   UNL     1     151.090 165.224 196.162  0.00  0.00    +0.052 HD
ATOM     70  H   UNL     1     151.905 163.778 195.540  0.00  0.00    +0.052 HD
ENDBRANCH  66  67
ENDBRANCH  24  66
BRANCH   5  71
ATOM     71  O   UNL     1     148.791 160.898 186.807  0.00  0.00    -0.379 OA
BRANCH  71  72
ATOM     72  C   UNL     1     148.853 159.487 186.945  0.00  0.00    +0.037 C 
ATOM     73  H   UNL     1     147.931 159.150 187.432  0.00  0.00    +0.052 HD
ATOM     74  H   UNL     1     148.921 159.001 185.966  0.00  0.00    +0.052 HD
ATOM     75  H   UNL     1     149.691 159.182 187.573  0.00  0.00    +0.052 HD
ENDBRANCH  71  72
ENDBRANCH   5  71
ENDBRANCH   1  36
BRANCH   1  76
ATOM     76  C   UNL     1     147.359 165.870 185.901  0.00  0.00    +0.064 C 
ATOM     77  H   UNL     1     146.660 165.305 186.531  0.00  0.00    +0.060 HD
BRANCH  76  78
ATOM     78  C   UNL     1     148.126 166.859 186.828  0.00  0.00    -0.017 C 
ATOM     79  H   UNL     1     148.792 166.286 187.480  0.00  0.00    +0.032 HD
BRANCH  78  80
ATOM     80  C   UNL     1     148.959 167.879 186.033  0.00  0.00    -0.060 C 
ATOM     81  H   UNL     1     149.276 168.708 186.672  0.00  0.00    +0.023 HD
ATOM     82  H   UNL     1     148.387 168.295 185.199  0.00  0.00    +0.023 HD
ATOM     83  H   UNL     1     149.871 167.438 185.625  0.00  0.00    +0.023 HD
ENDBRANCH  78  80
BRANCH  78  84
ATOM     84  C   UNL     1     147.096 167.588 187.729  0.00  0.00    -0.045 C 
ATOM     85  H   UNL     1     146.104 167.392 187.320  0.00  0.00    +0.027 HD
ATOM     86  H   UNL     1     147.121 167.148 188.734  0.00  0.00    +0.027 HD
BRANCH  84  87
ATOM     87  C   UNL     1     147.282 169.101 187.851  0.00  0.00    -0.015 C 
ATOM     88  H   UNL     1     147.247 169.582 186.867  0.00  0.00    +0.030 HD
ATOM     89  H   UNL     1     148.294 169.306 188.226  0.00  0.00    +0.030 HD
BRANCH  87  90
ATOM     90  C   UNL     1     146.267 169.789 188.787  0.00  0.00    +0.109 C 
ATOM     91  H   UNL     1     145.820 169.013 189.419  0.00  0.00    +0.074 HD
BRANCH  90  92
ATOM     92  C   UNL     1     145.118 170.628 188.129  0.00  0.00    +0.031 C 
ATOM     93  H   UNL     1     145.482 170.866 187.121  0.00  0.00    +0.037 HD
BRANCH  92  94
ATOM     94  C   UNL     1     144.941 171.971 188.847  0.00  0.00    -0.056 C 
ATOM     95  H   UNL     1     144.945 171.879 189.934  0.00  0.00    +0.023 HD
ATOM     96  H   UNL     1     145.727 172.679 188.567  0.00  0.00    +0.023 HD
ATOM     97  H   UNL     1     143.995 172.441 188.563  0.00  0.00    +0.023 HD
ENDBRANCH  92  94
BRANCH  92  98
ATOM     98  C   UNL     1     143.792 169.824 187.945  0.00  0.00    +0.115 C 
ATOM     99  H   UNL     1     142.954 170.503 188.133  0.00  0.00    +0.074 HD
BRANCH  98 100
ATOM    100  C   UNL     1     143.552 169.132 186.569  0.00  0.00    +0.013 C 
ATOM    101  H   UNL     1     142.528 169.385 186.254  0.00  0.00    +0.038 HD
BRANCH 100 102
ATOM    102  C   UNL     1     143.547 167.601 186.641  0.00  0.00    -0.056 C 
ATOM    103  H   UNL     1     142.755 167.216 187.291  0.00  0.00    +0.024 HD
ATOM    104  H   UNL     1     143.410 167.166 185.647  0.00  0.00    +0.024 HD
ATOM    105  H   UNL     1     144.501 167.231 187.035  0.00  0.00    +0.024 HD
ENDBRANCH 100 102
BRANCH 100 106
ATOM    106  C   UNL     1     144.476 169.636 185.480  0.00  0.00    -0.064 C 
ATOM    107  C   UNL     1     144.265 169.348 184.187  0.00  0.00    -0.005 C 
ATOM    108  H   UNL     1     145.318 170.239 185.799  0.00  0.00    +0.059 HD
ATOM    109  H   UNL     1     143.398 168.733 183.927  0.00  0.00    +0.078 HD
BRANCH 107 110
ATOM    110  N   UNL     1     145.017 169.750 183.094  0.00  0.00    -0.284 N 
ATOM    111  C   UNL     1     146.382 169.552 182.945  0.00  0.00    +0.206 C 
ATOM    112  O   UNL     1     147.067 169.904 181.986  0.00  0.00    -0.279 OA
ATOM    113  H   UNL     1     146.854 169.040 183.793  0.00  0.00    +0.126 HD
BRANCH 110 114
ATOM    114  C   UNL     1     144.313 170.464 182.031  0.00  0.00    +0.007 C 
ATOM    115  H   UNL     1     144.853 170.418 181.082  0.00  0.00    +0.043 HD
ATOM    116  H   UNL     1     143.323 170.022 181.890  0.00  0.00    +0.043 HD
ATOM    117  H   UNL     1     144.207 171.511 182.326  0.00  0.00    +0.043 HD
ENDBRANCH 110 114
ENDBRANCH 107 110
ENDBRANCH 100 106
ENDBRANCH  98 100
BRANCH  98 118
ATOM    118  O   UNL     1     143.774 168.783 188.961  0.00  0.00    -0.461 OA
BRANCH 118 119
ATOM    119  C   UNL     1     143.126 169.066 190.125  0.00  0.00    +0.304 C 
ATOM    120  O   UNL     1     143.656 169.438 191.160  0.00  0.00    -0.251 OA
BRANCH 119 121
ATOM    121  C   UNL     1     141.652 168.857 189.951  0.00  0.00    +0.033 C 
ATOM    122  H   UNL     1     141.193 168.652 190.920  0.00  0.00    +0.034 HD
ATOM    123  H   UNL     1     141.484 167.996 189.298  0.00  0.00    +0.034 HD
ATOM    124  H   UNL     1     141.202 169.739 189.489  0.00  0.00    +0.034 HD
ENDBRANCH 119 121
ENDBRANCH 118 119
ENDBRANCH  98 118
ENDBRANCH  92  98
ENDBRANCH  90  92
BRANCH  90 125
ATOM    125  O   UNL     1     147.028 170.717 189.605  0.00  0.00    -0.459 OA
BRANCH 125 126
ATOM    126  C   UNL     1     147.315 170.341 190.890  0.00  0.00    +0.339 C 
ATOM    127  O   UNL     1     147.208 169.202 191.329  0.00  0.00    -0.248 OA
BRANCH 126 128
ATOM    128  C   UNL     1     147.840 171.563 191.669  0.00  0.00    +0.178 C 
ATOM    129  H   UNL     1     147.684 171.364 192.739  0.00  0.00    +0.074 HD
BRANCH 128 130
ATOM    130  C   UNL     1     149.353 171.699 191.421  0.00  0.00    +0.084 C 
ATOM    131  H   UNL     1     149.592 172.673 190.979  0.00  0.00    +0.059 HD
ATOM    132  H   UNL     1     149.674 170.915 190.725  0.00  0.00    +0.059 HD
BRANCH 130 133
ATOM    133  O   UNL     1     150.084 171.563 192.646  0.00  0.00    -0.380 OA
BRANCH 133 134
ATOM    134  C   UNL     1     149.564 172.398 193.670  0.00  0.00    +0.037 C 
ATOM    135  H   UNL     1     150.065 172.192 194.621  0.00  0.00    +0.052 HD
ATOM    136  H   UNL     1     149.678 173.453 193.403  0.00  0.00    +0.052 HD
ATOM    137  H   UNL     1     148.497 172.177 193.784  0.00  0.00    +0.052 HD
ENDBRANCH 133 134
ENDBRANCH 130 133
ENDBRANCH 128 130
BRANCH 128 138
ATOM    138  O   UNL     1     147.249 172.832 191.373  0.00  0.00    -0.366 OA
BRANCH 138 139
ATOM    139  C   UNL     1     146.243 173.217 192.297  0.00  0.00    +0.038 C 
ATOM    140  H   UNL     1     145.831 172.343 192.814  0.00  0.00    +0.052 HD
ATOM    141  H   UNL     1     145.446 173.772 191.797  0.00  0.00    +0.052 HD
ATOM    142  H   UNL     1     146.699 173.875 193.042  0.00  0.00    +0.052 HD
ENDBRANCH 138 139
ENDBRANCH 128 138
ENDBRANCH 126 128
ENDBRANCH 125 126
ENDBRANCH  90 125
ENDBRANCH  87  90
ENDBRANCH  84  87
ENDBRANCH  78  84
ENDBRANCH  76  78
BRANCH  76 143
ATOM    143  O   UNL     1     146.617 166.670 184.955  0.00  0.00    -0.379 OA
BRANCH 143 144
ATOM    144  C   UNL     1     145.785 165.908 184.091  0.00  0.00    +0.037 C 
ATOM    145  H   UNL     1     146.334 165.723 183.163  0.00  0.00    +0.052 HD
ATOM    146  H   UNL     1     145.535 164.944 184.544  0.00  0.00    +0.052 HD
ATOM    147  H   UNL     1     144.873 166.466 183.849  0.00  0.00    +0.052 HD
ENDBRANCH 143 144
ENDBRANCH  76 143
ENDBRANCH   1  76
TORSDOF 35
ENDMDL
MODEL 3
REMARK VINA RESULT:      -4.6      1.140      1.618
REMARK  Name = Mycalolide B_conf1
REMARK  35 active torsions:
REMARK  status: ('A' for Active; 'I' for Inactive)
REMARK    1  A    between atoms: C_1  and  C_2
REMARK    2  A    between atoms: C_3  and  O_72
REMARK    3  A    between atoms: C_22  and  O_70
REMARK    4  A    between atoms: C_23  and  C_69
REMARK    5  A    between atoms: C_29  and  O_68
REMARK    6  A    between atoms: C_34  and  C_35
REMARK    7  A    between atoms: C_35  and  C_36
REMARK    8  A    between atoms: C_36  and  C_37
REMARK    9  A    between atoms: C_36  and  O_66
REMARK   10  A    between atoms: C_37  and  C_38
REMARK   11  A    between atoms: C_37  and  C_39
REMARK   12  A    between atoms: C_39  and  C_40
REMARK   13  A    between atoms: C_40  and  C_41
REMARK   14  A    between atoms: C_41  and  C_42
REMARK   15  A    between atoms: C_41  and  O_57
REMARK   16  A    between atoms: C_42  and  C_43
REMARK   17  A    between atoms: C_42  and  C_44
REMARK   18  A    between atoms: C_44  and  C_45
REMARK   19  A    between atoms: C_44  and  O_53
REMARK   20  A    between atoms: C_45  and  C_46
REMARK   21  A    between atoms: C_45  and  C_47
REMARK   22  A    between atoms: C_48  and  N_49
REMARK   23  A    between atoms: N_49  and  C_50
REMARK   24  A    between atoms: O_53  and  C_54
REMARK   25  A    between atoms: C_54  and  C_56
REMARK   26  A    between atoms: O_57  and  C_58
REMARK   27  A    between atoms: C_58  and  C_60
REMARK   28  A    between atoms: C_60  and  C_61
REMARK   29  A    between atoms: C_60  and  O_64
REMARK   30  A    between atoms: C_61  and  O_62
REMARK   31  A    between atoms: O_62  and  C_63
REMARK   32  A    between atoms: O_64  and  C_65
REMARK   33  A    between atoms: O_66  and  C_67
REMARK   34  A    between atoms: O_70  and  C_71
REMARK   35  A    between atoms: O_72  and  C_73
REMARK                            x       y       z     vdW  Elec       q    Type
REMARK                         _______ _______ _______ _____ _____    ______ ____
ROOT
ATOM      1  C   UNL     1     151.140 167.640 189.919  0.00  0.00    +0.011 C 
ATOM      2  H   UNL     1     150.630 168.491 189.450  0.00  0.00    +0.033 HD
ATOM      3  H   UNL     1     152.029 168.070 190.392  0.00  0.00    +0.033 HD
ENDROOT
BRANCH   1  36
ATOM      4  C   UNL     1     150.476 167.579 192.429  0.00  0.00    +0.020 C 
ATOM      5  C   UNL     1     151.437 166.756 193.339  0.00  0.00    +0.068 C 
ATOM      6  C   UNL     1     152.867 166.466 192.800  0.00  0.00    -0.008 C 
ATOM      7  C   UNL     1     152.955 165.376 191.768  0.00  0.00    -0.077 C 
ATOM      8  C   UNL     1     153.961 165.201 190.896  0.00  0.00    -0.003 C 
ATOM      9  C   UNL     1     153.896 164.141 189.946  0.00  0.00    +0.220 A 
ATOM     10  N   UNL     1     152.801 163.476 189.612  0.00  0.00    -0.205 NA
ATOM     11  C   UNL     1     153.197 162.549 188.683  0.00  0.00    +0.164 A 
ATOM     12  C   UNL     1     154.537 162.685 188.448  0.00  0.00    +0.125 A 
ATOM     13  O   UNL     1     154.996 163.705 189.226  0.00  0.00    -0.443 OA
ATOM     14  C   UNL     1     152.238 161.513 188.024  0.00  0.00    +0.250 A 
ATOM     15  N   UNL     1     150.945 161.478 188.287  0.00  0.00    -0.203 NA
ATOM     16  C   UNL     1     150.467 160.437 187.534  0.00  0.00    +0.164 A 
ATOM     17  C   UNL     1     151.494 159.866 186.829  0.00  0.00    +0.125 A 
ATOM     18  O   UNL     1     152.638 160.549 187.126  0.00  0.00    -0.442 OA
ATOM     19  C   UNL     1     148.976 159.978 187.495  0.00  0.00    +0.249 A 
ATOM     20  N   UNL     1     148.017 160.579 188.182  0.00  0.00    -0.210 NA
ATOM     21  C   UNL     1     146.865 159.901 187.852  0.00  0.00    +0.109 A 
ATOM     22  C   UNL     1     147.179 158.890 186.973  0.00  0.00    +0.118 A 
ATOM     23  O   UNL     1     148.520 158.924 186.738  0.00  0.00    -0.442 OA
ATOM     24  C   UNL     1     145.527 160.332 188.378  0.00  0.00    +0.113 C 
ATOM     25  C   UNL     1     145.296 161.837 188.122  0.00  0.00    +0.051 C 
ATOM     26  C   UNL     1     143.903 162.214 188.608  0.00  0.00    +0.161 C 
ATOM     27  O   UNL     1     142.912 161.534 188.341  0.00  0.00    -0.292 OA
ATOM     28  C   UNL     1     143.697 163.474 189.383  0.00  0.00    -0.023 C 
ATOM     29  C   UNL     1     144.509 164.543 189.335  0.00  0.00    -0.078 C 
ATOM     30  C   UNL     1     144.249 165.815 190.098  0.00  0.00    -0.008 C 
ATOM     31  C   UNL     1     145.399 166.208 191.045  0.00  0.00    +0.069 C 
ATOM     32  C   UNL     1     146.606 166.788 190.298  0.00  0.00    +0.071 C 
ATOM     33  C   UNL     1     147.905 166.439 190.985  0.00  0.00    +0.310 C 
ATOM     34  O   UNL     1     148.078 165.467 191.704  0.00  0.00    -0.251 OA
ATOM     35  O   UNL     1     148.873 167.322 190.608  0.00  0.00    -0.461 OA
ATOM     36  C   UNL     1     150.238 167.008 190.997  0.00  0.00    +0.110 C 
ATOM     37  H   UNL     1     149.498 167.568 192.926  0.00  0.00    +0.036 HD
ATOM     38  H   UNL     1     151.583 167.330 194.264  0.00  0.00    +0.060 HD
ATOM     39  H   UNL     1     153.333 167.388 192.441  0.00  0.00    +0.033 HD
ATOM     40  H   UNL     1     153.461 166.118 193.657  0.00  0.00    +0.033 HD
ATOM     41  H   UNL     1     152.131 164.657 191.767  0.00  0.00    +0.057 HD
ATOM     42  H   UNL     1     154.832 165.846 190.890  0.00  0.00    +0.067 HD
ATOM     43  H   UNL     1     155.260 162.192 187.814  0.00  0.00    +0.105 HD
ATOM     44  H   UNL     1     151.581 159.046 186.137  0.00  0.00    +0.105 HD
ATOM     45  H   UNL     1     146.620 158.129 186.447  0.00  0.00    +0.105 HD
ATOM     46  H   UNL     1     144.735 159.752 187.886  0.00  0.00    +0.067 HD
ATOM     47  H   UNL     1     146.038 162.406 188.693  0.00  0.00    +0.041 HD
ATOM     48  H   UNL     1     142.782 163.483 189.970  0.00  0.00    +0.065 HD
ATOM     49  H   UNL     1     145.395 164.536 188.706  0.00  0.00    +0.057 HD
ATOM     50  H   UNL     1     144.067 166.629 189.385  0.00  0.00    +0.033 HD
ATOM     51  H   UNL     1     143.323 165.724 190.679  0.00  0.00    +0.033 HD
ATOM     52  H   UNL     1     145.671 165.343 191.660  0.00  0.00    +0.060 HD
ATOM     53  H   UNL     1     146.522 167.878 190.236  0.00  0.00    +0.040 HD
ATOM     54  H   UNL     1     146.689 166.386 189.282  0.00  0.00    +0.040 HD
ATOM     55  H   UNL     1     150.357 165.921 190.982  0.00  0.00    +0.074 HD
BRANCH   4  56
ATOM     56  C   UNL     1     150.874 169.063 192.437  0.00  0.00    -0.057 C 
ATOM     57  H   UNL     1     150.552 169.579 193.347  0.00  0.00    +0.023 HD
ATOM     58  H   UNL     1     151.958 169.179 192.338  0.00  0.00    +0.023 HD
ATOM     59  H   UNL     1     150.414 169.588 191.589  0.00  0.00    +0.023 HD
ENDBRANCH   4  56
BRANCH  25  60
ATOM     60  C   UNL     1     145.384 162.212 186.640  0.00  0.00    -0.053 C 
ATOM     61  H   UNL     1     146.345 161.914 186.208  0.00  0.00    +0.024 HD
ATOM     62  H   UNL     1     145.285 163.293 186.504  0.00  0.00    +0.024 HD
ATOM     63  H   UNL     1     144.598 161.721 186.058  0.00  0.00    +0.024 HD
ENDBRANCH  25  60
BRANCH  31  64
ATOM     64  O   UNL     1     144.917 167.223 191.936  0.00  0.00    -0.391 OA
ATOM     65  H   UNL     1     143.987 167.401 191.703  0.00  0.00    +0.210 HD
ENDBRANCH  31  64
BRANCH  24  66
ATOM     66  O   UNL     1     145.438 160.127 189.802  0.00  0.00    -0.373 OA
BRANCH  66  67
ATOM     67  C   UNL     1     145.212 158.770 190.156  0.00  0.00    +0.037 C 
ATOM     68  H   UNL     1     145.262 158.120 189.279  0.00  0.00    +0.052 HD
ATOM     69  H   UNL     1     144.243 158.663 190.656  0.00  0.00    +0.052 HD
ATOM     70  H   UNL     1     145.993 158.465 190.857  0.00  0.00    +0.052 HD
ENDBRANCH  66  67
ENDBRANCH  24  66
BRANCH   5  71
ATOM     71  O   UNL     1     150.868 165.490 193.711  0.00  0.00    -0.379 OA
BRANCH  71  72
ATOM     72  C   UNL     1     149.907 165.552 194.754  0.00  0.00    +0.037 C 
ATOM     73  H   UNL     1     149.516 166.573 194.798  0.00  0.00    +0.052 HD
ATOM     74  H   UNL     1     149.072 164.872 194.557  0.00  0.00    +0.052 HD
ATOM     75  H   UNL     1     150.353 165.324 195.724  0.00  0.00    +0.052 HD
ENDBRANCH  71  72
ENDBRANCH   5  71
ENDBRANCH   1  36
BRANCH   1  76
ATOM     76  C   UNL     1     151.631 166.698 188.800  0.00  0.00    +0.064 C 
ATOM     77  H   UNL     1     152.037 165.789 189.261  0.00  0.00    +0.060 HD
BRANCH  76  78
ATOM     78  C   UNL     1     150.585 166.253 187.736  0.00  0.00    -0.017 C 
ATOM     79  H   UNL     1     151.100 166.090 186.783  0.00  0.00    +0.032 HD
BRANCH  78  80
ATOM     80  C   UNL     1     149.855 164.961 188.137  0.00  0.00    -0.060 C 
ATOM     81  H   UNL     1     148.985 165.181 188.763  0.00  0.00    +0.023 HD
ATOM     82  H   UNL     1     150.513 164.291 188.698  0.00  0.00    +0.023 HD
ATOM     83  H   UNL     1     149.480 164.412 187.270  0.00  0.00    +0.023 HD
ENDBRANCH  78  80
BRANCH  78  84
ATOM     84  C   UNL     1     149.569 167.407 187.532  0.00  0.00    -0.045 C 
ATOM     85  H   UNL     1     148.616 167.082 187.948  0.00  0.00    +0.027 HD
ATOM     86  H   UNL     1     149.893 168.279 188.114  0.00  0.00    +0.027 HD
BRANCH  84  87
ATOM     87  C   UNL     1     149.346 167.839 186.083  0.00  0.00    -0.015 C 
ATOM     88  H   UNL     1     150.198 167.561 185.453  0.00  0.00    +0.030 HD
ATOM     89  H   UNL     1     149.314 168.937 186.039  0.00  0.00    +0.030 HD
BRANCH  87  90
ATOM     90  C   UNL     1     148.050 167.290 185.452  0.00  0.00    +0.109 C 
ATOM     91  H   UNL     1     147.849 167.873 184.546  0.00  0.00    +0.074 HD
BRANCH  90  92
ATOM     92  C   UNL     1     146.757 167.273 186.338  0.00  0.00    +0.031 C 
ATOM     93  H   UNL     1     147.091 167.591 187.335  0.00  0.00    +0.037 HD
BRANCH  92  94
ATOM     94  C   UNL     1     146.225 165.844 186.503  0.00  0.00    -0.056 C 
ATOM     95  H   UNL     1     145.484 165.752 187.299  0.00  0.00    +0.023 HD
ATOM     96  H   UNL     1     145.769 165.479 185.577  0.00  0.00    +0.023 HD
ATOM     97  H   UNL     1     147.039 165.152 186.733  0.00  0.00    +0.023 HD
ENDBRANCH  92  94
BRANCH  92  98
ATOM     98  C   UNL     1     145.678 168.305 185.880  0.00  0.00    +0.115 C 
ATOM     99  H   UNL     1     144.695 167.921 186.170  0.00  0.00    +0.074 HD
BRANCH  98 100
ATOM    100  C   UNL     1     145.802 169.765 186.413  0.00  0.00    +0.013 C 
ATOM    101  H   UNL     1     144.794 170.204 186.390  0.00  0.00    +0.038 HD
BRANCH 100 102
ATOM    102  C   UNL     1     146.627 170.685 185.506  0.00  0.00    -0.056 C 
ATOM    103  H   UNL     1     147.068 171.524 186.052  0.00  0.00    +0.024 HD
ATOM    104  H   UNL     1     147.438 170.131 185.026  0.00  0.00    +0.024 HD
ATOM    105  H   UNL     1     145.999 171.105 184.712  0.00  0.00    +0.024 HD
ENDBRANCH 100 102
BRANCH 100 106
ATOM    106  C   UNL     1     146.271 169.834 187.852  0.00  0.00    -0.064 C 
ATOM    107  C   UNL     1     145.952 170.867 188.647  0.00  0.00    -0.005 C 
ATOM    108  H   UNL     1     146.879 169.010 188.205  0.00  0.00    +0.059 HD
ATOM    109  H   UNL     1     145.337 171.670 188.234  0.00  0.00    +0.078 HD
BRANCH 107 110
ATOM    110  N   UNL     1     146.300 171.052 189.977  0.00  0.00    -0.284 N 
ATOM    111  C   UNL     1     147.344 170.410 190.629  0.00  0.00    +0.206 C 
ATOM    112  O   UNL     1     147.665 170.558 191.806  0.00  0.00    -0.279 OA
ATOM    113  H   UNL     1     147.898 169.705 189.996  0.00  0.00    +0.126 HD
BRANCH 110 114
ATOM    114  C   UNL     1     145.480 171.978 190.754  0.00  0.00    +0.007 C 
ATOM    115  H   UNL     1     145.338 171.635 191.782  0.00  0.00    +0.043 HD
ATOM    116  H   UNL     1     145.961 172.959 190.778  0.00  0.00    +0.043 HD
ATOM    117  H   UNL     1     144.501 172.063 190.273  0.00  0.00    +0.043 HD
ENDBRANCH 110 114
ENDBRANCH 107 110
ENDBRANCH 100 106
ENDBRANCH  98 100
BRANCH  98 118
ATOM    118  O   UNL     1     145.733 168.370 184.427  0.00  0.00    -0.461 OA
BRANCH 118 119
ATOM    119  C   UNL     1     144.793 167.664 183.741  0.00  0.00    +0.304 C 
ATOM    120  O   UNL     1     145.007 166.954 182.771  0.00  0.00    -0.251 OA
BRANCH 119 121
ATOM    121  C   UNL     1     143.443 167.880 184.356  0.00  0.00    +0.033 C 
ATOM    122  H   UNL     1     142.666 167.682 183.616  0.00  0.00    +0.034 HD
ATOM    123  H   UNL     1     143.357 168.922 184.679  0.00  0.00    +0.034 HD
ATOM    124  H   UNL     1     143.322 167.233 185.227  0.00  0.00    +0.034 HD
ENDBRANCH 119 121
ENDBRANCH 118 119
ENDBRANCH  98 118
ENDBRANCH  92  98
ENDBRANCH  90  92
BRANCH  90 125
ATOM    125  O   UNL     1     148.318 165.906 185.101  0.00  0.00    -0.459 OA
BRANCH 125 126
ATOM    126  C   UNL     1     148.693 165.641 183.811  0.00  0.00    +0.339 C 
ATOM    127  O   UNL     1     148.250 166.207 182.820  0.00  0.00    -0.248 OA
BRANCH 126 128
ATOM    128  C   UNL     1     149.791 164.558 183.817  0.00  0.00    +0.178 C 
ATOM    129  H   UNL     1     149.363 163.657 184.280  0.00  0.00    +0.074 HD
BRANCH 128 130
ATOM    130  C   UNL     1     150.165 164.222 182.363  0.00  0.00    +0.084 C 
ATOM    131  H   UNL     1     149.318 164.396 181.690  0.00  0.00    +0.059 HD
ATOM    132  H   UNL     1     150.447 163.164 182.300  0.00  0.00    +0.059 HD
BRANCH 130 133
ATOM    133  O   UNL     1     151.268 165.024 181.922  0.00  0.00    -0.380 OA
BRANCH 133 134
ATOM    134  C   UNL     1     151.047 165.564 180.627  0.00  0.00    +0.037 C 
ATOM    135  H   UNL     1     151.497 164.921 179.864  0.00  0.00    +0.052 HD
ATOM    136  H   UNL     1     149.976 165.684 180.436  0.00  0.00    +0.052 HD
ATOM    137  H   UNL     1     151.525 166.548 180.580  0.00  0.00    +0.052 HD
ENDBRANCH 133 134
ENDBRANCH 130 133
ENDBRANCH 128 130
BRANCH 128 138
ATOM    138  O   UNL     1     151.008 164.863 184.505  0.00  0.00    -0.366 OA
BRANCH 138 139
ATOM    139  C   UNL     1     151.600 163.736 185.134  0.00  0.00    +0.038 C 
ATOM    140  H   UNL     1     150.935 162.866 185.085  0.00  0.00    +0.052 HD
ATOM    141  H   UNL     1     151.857 163.959 186.172  0.00  0.00    +0.052 HD
ATOM    142  H   UNL     1     152.524 163.495 184.600  0.00  0.00    +0.052 HD
ENDBRANCH 138 139
ENDBRANCH 128 138
ENDBRANCH 126 128
ENDBRANCH 125 126
ENDBRANCH  90 125
ENDBRANCH  87  90
ENDBRANCH  84  87
ENDBRANCH  78  84
ENDBRANCH  76  78
BRANCH  76 143
ATOM    143  O   UNL     1     152.683 167.390 188.092  0.00  0.00    -0.379 OA
BRANCH 143 144
ATOM    144  C   UNL     1     153.375 166.575 187.156  0.00  0.00    +0.037 C 
ATOM    145  H   UNL     1     153.773 167.220 186.368  0.00  0.00    +0.052 HD
ATOM    146  H   UNL     1     154.211 166.057 187.636  0.00  0.00    +0.052 HD
ATOM    147  H   UNL     1     152.689 165.853 186.699  0.00  0.00    +0.052 HD
ENDBRANCH 143 144
ENDBRANCH  76 143
ENDBRANCH   1  76
TORSDOF 35
ENDMDL
MODEL 4
REMARK VINA RESULT:      -4.6      2.497      8.318
REMARK  Name = Mycalolide B_conf1
REMARK  35 active torsions:
REMARK  status: ('A' for Active; 'I' for Inactive)
REMARK    1  A    between atoms: C_1  and  C_2
REMARK    2  A    between atoms: C_3  and  O_72
REMARK    3  A    between atoms: C_22  and  O_70
REMARK    4  A    between atoms: C_23  and  C_69
REMARK    5  A    between atoms: C_29  and  O_68
REMARK    6  A    between atoms: C_34  and  C_35
REMARK    7  A    between atoms: C_35  and  C_36
REMARK    8  A    between atoms: C_36  and  C_37
REMARK    9  A    between atoms: C_36  and  O_66
REMARK   10  A    between atoms: C_37  and  C_38
REMARK   11  A    between atoms: C_37  and  C_39
REMARK   12  A    between atoms: C_39  and  C_40
REMARK   13  A    between atoms: C_40  and  C_41
REMARK   14  A    between atoms: C_41  and  C_42
REMARK   15  A    between atoms: C_41  and  O_57
REMARK   16  A    between atoms: C_42  and  C_43
REMARK   17  A    between atoms: C_42  and  C_44
REMARK   18  A    between atoms: C_44  and  C_45
REMARK   19  A    between atoms: C_44  and  O_53
REMARK   20  A    between atoms: C_45  and  C_46
REMARK   21  A    between atoms: C_45  and  C_47
REMARK   22  A    between atoms: C_48  and  N_49
REMARK   23  A    between atoms: N_49  and  C_50
REMARK   24  A    between atoms: O_53  and  C_54
REMARK   25  A    between atoms: C_54  and  C_56
REMARK   26  A    between atoms: O_57  and  C_58
REMARK   27  A    between atoms: C_58  and  C_60
REMARK   28  A    between atoms: C_60  and  C_61
REMARK   29  A    between atoms: C_60  and  O_64
REMARK   30  A    between atoms: C_61  and  O_62
REMARK   31  A    between atoms: O_62  and  C_63
REMARK   32  A    between atoms: O_64  and  C_65
REMARK   33  A    between atoms: O_66  and  C_67
REMARK   34  A    between atoms: O_70  and  C_71
REMARK   35  A    between atoms: O_72  and  C_73
REMARK                            x       y       z     vdW  Elec       q    Type
REMARK                         _______ _______ _______ _____ _____    ______ ____
ROOT
ATOM      1  C   UNL     1     146.096 166.906 187.416  0.00  0.00    +0.011 C 
ATOM      2  H   UNL     1     145.010 166.890 187.573  0.00  0.00    +0.033 HD
ATOM      3  H   UNL     1     146.515 167.224 188.377  0.00  0.00    +0.033 HD
ENDROOT
BRANCH   1  36
ATOM      4  C   UNL     1     145.466 164.452 186.849  0.00  0.00    +0.020 C 
ATOM      5  C   UNL     1     145.093 163.572 188.080  0.00  0.00    +0.068 C 
ATOM      6  C   UNL     1     144.688 164.302 189.392  0.00  0.00    -0.008 C 
ATOM      7  C   UNL     1     145.829 164.879 190.184  0.00  0.00    -0.077 C 
ATOM      8  C   UNL     1     145.731 165.850 191.106  0.00  0.00    -0.003 C 
ATOM      9  C   UNL     1     146.906 166.325 191.758  0.00  0.00    +0.220 A 
ATOM     10  N   UNL     1     148.148 166.132 191.340  0.00  0.00    -0.205 NA
ATOM     11  C   UNL     1     148.952 166.745 192.264  0.00  0.00    +0.164 A 
ATOM     12  C   UNL     1     148.176 167.328 193.227  0.00  0.00    +0.125 A 
ATOM     13  O   UNL     1     146.871 167.090 192.912  0.00  0.00    -0.443 OA
ATOM     14  C   UNL     1     150.509 166.751 192.196  0.00  0.00    +0.250 A 
ATOM     15  N   UNL     1     151.176 166.189 191.205  0.00  0.00    -0.203 NA
ATOM     16  C   UNL     1     152.495 166.393 191.518  0.00  0.00    +0.164 A 
ATOM     17  C   UNL     1     152.590 167.079 192.700  0.00  0.00    +0.125 A 
ATOM     18  O   UNL     1     151.324 167.324 193.147  0.00  0.00    -0.442 OA
ATOM     19  C   UNL     1     153.699 165.909 190.651  0.00  0.00    +0.249 A 
ATOM     20  N   UNL     1     153.551 165.266 189.504  0.00  0.00    -0.210 NA
ATOM     21  C   UNL     1     154.833 165.051 189.048  0.00  0.00    +0.109 A 
ATOM     22  C   UNL     1     155.723 165.571 189.961  0.00  0.00    +0.118 A 
ATOM     23  O   UNL     1     155.017 166.117 190.989  0.00  0.00    -0.442 OA
ATOM     24  C   UNL     1     155.092 164.403 187.720  0.00  0.00    +0.113 C 
ATOM     25  C   UNL     1     154.290 165.104 186.602  0.00  0.00    +0.051 C 
ATOM     26  C   UNL     1     154.636 164.460 185.266  0.00  0.00    +0.161 C 
ATOM     27  O   UNL     1     155.798 164.226 184.936  0.00  0.00    -0.292 OA
ATOM     28  C   UNL     1     153.555 164.147 184.285  0.00  0.00    -0.023 C 
ATOM     29  C   UNL     1     152.359 164.759 184.244  0.00  0.00    -0.078 C 
ATOM     30  C   UNL     1     151.305 164.450 183.213  0.00  0.00    -0.008 C 
ATOM     31  C   UNL     1     149.963 164.005 183.824  0.00  0.00    +0.069 C 
ATOM     32  C   UNL     1     149.172 165.175 184.422  0.00  0.00    +0.071 C 
ATOM     33  C   UNL     1     148.367 164.743 185.624  0.00  0.00    +0.310 C 
ATOM     34  O   UNL     1     148.637 163.795 186.345  0.00  0.00    -0.251 OA
ATOM     35  O   UNL     1     147.348 165.625 185.833  0.00  0.00    -0.461 OA
ATOM     36  C   UNL     1     146.606 165.492 187.076  0.00  0.00    +0.110 C 
ATOM     37  H   UNL     1     145.835 163.762 186.079  0.00  0.00    +0.036 HD
ATOM     38  H   UNL     1     144.219 162.969 187.798  0.00  0.00    +0.060 HD
ATOM     39  H   UNL     1     143.927 165.061 189.186  0.00  0.00    +0.033 HD
ATOM     40  H   UNL     1     144.221 163.548 190.041  0.00  0.00    +0.033 HD
ATOM     41  H   UNL     1     146.809 164.430 189.998  0.00  0.00    +0.057 HD
ATOM     42  H   UNL     1     144.779 166.289 191.377  0.00  0.00    +0.067 HD
ATOM     43  H   UNL     1     148.364 167.905 194.121  0.00  0.00    +0.105 HD
ATOM     44  H   UNL     1     153.401 167.441 193.309  0.00  0.00    +0.105 HD
ATOM     45  H   UNL     1     156.799 165.647 190.025  0.00  0.00    +0.105 HD
ATOM     46  H   UNL     1     156.165 164.456 187.489  0.00  0.00    +0.067 HD
ATOM     47  H   UNL     1     153.222 164.963 186.800  0.00  0.00    +0.041 HD
ATOM     48  H   UNL     1     153.834 163.399 183.548  0.00  0.00    +0.065 HD
ATOM     49  H   UNL     1     152.113 165.540 184.958  0.00  0.00    +0.057 HD
ATOM     50  H   UNL     1     151.148 165.335 182.585  0.00  0.00    +0.033 HD
ATOM     51  H   UNL     1     151.664 163.669 182.530  0.00  0.00    +0.033 HD
ATOM     52  H   UNL     1     150.145 163.212 184.557  0.00  0.00    +0.060 HD
ATOM     53  H   UNL     1     148.490 165.591 183.672  0.00  0.00    +0.040 HD
ATOM     54  H   UNL     1     149.831 165.975 184.776  0.00  0.00    +0.040 HD
ATOM     55  H   UNL     1     147.297 165.156 187.854  0.00  0.00    +0.074 HD
BRANCH   4  56
ATOM     56  C   UNL     1     144.201 165.058 186.222  0.00  0.00    -0.057 C 
ATOM     57  H   UNL     1     143.695 165.759 186.894  0.00  0.00    +0.023 HD
ATOM     58  H   UNL     1     144.437 165.581 185.290  0.00  0.00    +0.023 HD
ATOM     59  H   UNL     1     143.479 164.269 185.976  0.00  0.00    +0.023 HD
ENDBRANCH   4  56
BRANCH  25  60
ATOM     60  C   UNL     1     154.604 166.598 186.488  0.00  0.00    -0.053 C 
ATOM     61  H   UNL     1     154.637 166.922 185.441  0.00  0.00    +0.024 HD
ATOM     62  H   UNL     1     155.576 166.828 186.932  0.00  0.00    +0.024 HD
ATOM     63  H   UNL     1     153.845 167.204 186.992  0.00  0.00    +0.024 HD
ENDBRANCH  25  60
BRANCH  31  64
ATOM     64  O   UNL     1     149.163 163.436 182.778  0.00  0.00    -0.391 OA
ATOM     65  H   UNL     1     149.529 163.744 181.928  0.00  0.00    +0.210 HD
ENDBRANCH  31  64
BRANCH  24  66
ATOM     66  O   UNL     1     154.685 163.021 187.728  0.00  0.00    -0.373 OA
BRANCH  66  67
ATOM     67  C   UNL     1     155.479 162.211 188.585  0.00  0.00    +0.037 C 
ATOM     68  H   UNL     1     154.871 161.460 189.093  0.00  0.00    +0.052 HD
ATOM     69  H   UNL     1     156.007 162.833 189.316  0.00  0.00    +0.052 HD
ATOM     70  H   UNL     1     156.225 161.696 187.973  0.00  0.00    +0.052 HD
ENDBRANCH  66  67
ENDBRANCH  24  66
BRANCH   5  71
ATOM     71  O   UNL     1     146.146 162.656 188.422  0.00  0.00    -0.379 OA
BRANCH  71  72
ATOM     72  C   UNL     1     145.710 161.357 188.794  0.00  0.00    +0.037 C 
ATOM     73  H   UNL     1     145.711 161.297 189.888  0.00  0.00    +0.052 HD
ATOM     74  H   UNL     1     144.691 161.171 188.440  0.00  0.00    +0.052 HD
ATOM     75  H   UNL     1     146.384 160.586 188.418  0.00  0.00    +0.052 HD
ENDBRANCH  71  72
ENDBRANCH   5  71
ENDBRANCH   1  36
BRANCH   1  76
ATOM     76  C   UNL     1     146.418 168.015 186.392  0.00  0.00    +0.064 C 
ATOM     77  H   UNL     1     146.596 167.547 185.415  0.00  0.00    +0.060 HD
BRANCH  76  78
ATOM     78  C   UNL     1     145.347 169.126 186.188  0.00  0.00    -0.017 C 
ATOM     79  H   UNL     1     145.847 170.037 185.844  0.00  0.00    +0.032 HD
BRANCH  78  80
ATOM     80  C   UNL     1     144.276 168.725 185.161  0.00  0.00    -0.060 C 
ATOM     81  H   UNL     1     144.463 167.720 184.772  0.00  0.00    +0.023 HD
ATOM     82  H   UNL     1     144.259 169.417 184.314  0.00  0.00    +0.023 HD
ATOM     83  H   UNL     1     143.274 168.705 185.596  0.00  0.00    +0.023 HD
ENDBRANCH  78  80
BRANCH  78  84
ATOM     84  C   UNL     1     144.692 169.436 187.560  0.00  0.00    -0.045 C 
ATOM     85  H   UNL     1     143.622 169.555 187.392  0.00  0.00    +0.027 HD
ATOM     86  H   UNL     1     144.819 168.570 188.222  0.00  0.00    +0.027 HD
BRANCH  84  87
ATOM     87  C   UNL     1     145.216 170.682 188.272  0.00  0.00    -0.015 C 
ATOM     88  H   UNL     1     144.728 171.587 187.894  0.00  0.00    +0.030 HD
ATOM     89  H   UNL     1     146.279 170.814 188.025  0.00  0.00    +0.030 HD
BRANCH  87  90
ATOM     90  C   UNL     1     145.077 170.637 189.808  0.00  0.00    +0.109 C 
ATOM     91  H   UNL     1     145.053 169.583 190.108  0.00  0.00    +0.074 HD
BRANCH  90  92
ATOM     92  C   UNL     1     143.852 171.373 190.453  0.00  0.00    +0.031 C 
ATOM     93  H   UNL     1     143.284 171.776 189.603  0.00  0.00    +0.037 HD
BRANCH  92  94
ATOM     94  C   UNL     1     144.311 172.586 191.271  0.00  0.00    -0.056 C 
ATOM     95  H   UNL     1     144.244 172.426 192.348  0.00  0.00    +0.023 HD
ATOM     96  H   UNL     1     145.346 172.857 191.037  0.00  0.00    +0.023 HD
ATOM     97  H   UNL     1     143.707 173.465 191.033  0.00  0.00    +0.023 HD
ENDBRANCH  92  94
BRANCH  92  98
ATOM     98  C   UNL     1     142.887 170.416 191.220  0.00  0.00    +0.115 C 
ATOM     99  H   UNL     1     142.840 170.744 192.264  0.00  0.00    +0.074 HD
BRANCH  98 100
ATOM    100  C   UNL     1     141.427 170.284 190.690  0.00  0.00    +0.013 C 
ATOM    101  H   UNL     1     141.049 169.306 191.025  0.00  0.00    +0.038 HD
BRANCH 100 102
ATOM    102  C   UNL     1     141.330 170.213 189.162  0.00  0.00    -0.056 C 
ATOM    103  H   UNL     1     140.344 170.511 188.792  0.00  0.00    +0.024 HD
ATOM    104  H   UNL     1     142.076 170.863 188.695  0.00  0.00    +0.024 HD
ATOM    105  H   UNL     1     141.516 169.192 188.810  0.00  0.00    +0.024 HD
ENDBRANCH 100 102
BRANCH 100 106
ATOM    106  C   UNL     1     140.490 171.328 191.261  0.00  0.00    -0.064 C 
ATOM    107  C   UNL     1     140.773 171.982 192.397  0.00  0.00    -0.005 C 
ATOM    108  H   UNL     1     139.579 171.517 190.706  0.00  0.00    +0.059 HD
ATOM    109  H   UNL     1     141.707 171.746 192.914  0.00  0.00    +0.078 HD
BRANCH 107 110
ATOM    110  N   UNL     1     140.017 172.963 193.022  0.00  0.00    -0.284 N 
ATOM    111  C   UNL     1     140.345 173.586 194.218  0.00  0.00    +0.206 C 
ATOM    112  O   UNL     1     139.688 174.455 194.788  0.00  0.00    -0.279 OA
ATOM    113  H   UNL     1     141.282 173.229 194.665  0.00  0.00    +0.126 HD
BRANCH 110 114
ATOM    114  C   UNL     1     138.764 173.346 192.377  0.00  0.00    +0.007 C 
ATOM    115  H   UNL     1     138.282 174.185 192.885  0.00  0.00    +0.043 HD
ATOM    116  H   UNL     1     138.960 173.634 191.340  0.00  0.00    +0.043 HD
ATOM    117  H   UNL     1     138.087 172.487 192.395  0.00  0.00    +0.043 HD
ENDBRANCH 110 114
ENDBRANCH 107 110
ENDBRANCH 100 106
ENDBRANCH  98 100
BRANCH  98 118
ATOM    118  O   UNL     1     143.481 169.087 191.186  0.00  0.00    -0.461 OA
BRANCH 118 119
ATOM    119  C   UNL     1     142.957 168.154 192.027  0.00  0.00    +0.304 C 
ATOM    120  O   UNL     1     142.941 168.227 193.246  0.00  0.00    -0.251 OA
BRANCH 119 121
ATOM    121  C   UNL     1     142.391 167.014 191.236  0.00  0.00    +0.033 C 
ATOM    122  H   UNL     1     143.041 166.796 190.387  0.00  0.00    +0.034 HD
ATOM    123  H   UNL     1     141.405 167.294 190.854  0.00  0.00    +0.034 HD
ATOM    124  H   UNL     1     142.282 166.134 191.874  0.00  0.00    +0.034 HD
ENDBRANCH 119 121
ENDBRANCH 118 119
ENDBRANCH  98 118
ENDBRANCH  92  98
ENDBRANCH  90  92
BRANCH  90 125
ATOM    125  O   UNL     1     146.263 171.278 190.347  0.00  0.00    -0.459 OA
BRANCH 125 126
ATOM    126  C   UNL     1     147.297 170.471 190.741  0.00  0.00    +0.339 C 
ATOM    127  O   UNL     1     147.614 169.420 190.197  0.00  0.00    -0.248 OA
BRANCH 126 128
ATOM    128  C   UNL     1     148.020 171.122 191.937  0.00  0.00    +0.178 C 
ATOM    129  H   UNL     1     148.006 170.397 192.764  0.00  0.00    +0.074 HD
BRANCH 128 130
ATOM    130  C   UNL     1     149.486 171.382 191.550  0.00  0.00    +0.084 C 
ATOM    131  H   UNL     1     149.785 172.404 191.810  0.00  0.00    +0.059 HD
ATOM    132  H   UNL     1     149.600 171.252 190.467  0.00  0.00    +0.059 HD
BRANCH 130 133
ATOM    133  O   UNL     1     150.360 170.467 192.223  0.00  0.00    -0.380 OA
BRANCH 133 134
ATOM    134  C   UNL     1     151.585 170.292 191.525  0.00  0.00    +0.037 C 
ATOM    135  H   UNL     1     151.662 169.271 191.140  0.00  0.00    +0.052 HD
ATOM    136  H   UNL     1     151.668 171.012 190.704  0.00  0.00    +0.052 HD
ATOM    137  H   UNL     1     152.407 170.463 192.227  0.00  0.00    +0.052 HD
ENDBRANCH 133 134
ENDBRANCH 130 133
ENDBRANCH 128 130
BRANCH 128 138
ATOM    138  O   UNL     1     147.489 172.356 192.430  0.00  0.00    -0.366 OA
BRANCH 138 139
ATOM    139  C   UNL     1     148.385 173.449 192.298  0.00  0.00    +0.038 C 
ATOM    140  H   UNL     1     149.239 173.182 191.666  0.00  0.00    +0.052 HD
ATOM    141  H   UNL     1     148.730 173.790 193.278  0.00  0.00    +0.052 HD
ATOM    142  H   UNL     1     147.847 174.274 191.822  0.00  0.00    +0.052 HD
ENDBRANCH 138 139
ENDBRANCH 128 138
ENDBRANCH 126 128
ENDBRANCH 125 126
ENDBRANCH  90 125
ENDBRANCH  87  90
ENDBRANCH  84  87
ENDBRANCH  78  84
ENDBRANCH  76  78
BRANCH  76 143
ATOM    143  O   UNL     1     147.625 168.670 186.839  0.00  0.00    -0.379 OA
BRANCH 143 144
ATOM    144  C   UNL     1     148.624 168.775 185.834  0.00  0.00    +0.037 C 
ATOM    145  H   UNL     1     148.898 167.764 185.518  0.00  0.00    +0.052 HD
ATOM    146  H   UNL     1     148.246 169.320 184.965  0.00  0.00    +0.052 HD
ATOM    147  H   UNL     1     149.518 169.266 186.234  0.00  0.00    +0.052 HD
ENDBRANCH 143 144
ENDBRANCH  76 143
ENDBRANCH   1  76
TORSDOF 35
ENDMDL
MODEL 5
REMARK VINA RESULT:      -4.5      2.568      8.320
REMARK  Name = Mycalolide B_conf1
REMARK  35 active torsions:
REMARK  status: ('A' for Active; 'I' for Inactive)
REMARK    1  A    between atoms: C_1  and  C_2
REMARK    2  A    between atoms: C_3  and  O_72
REMARK    3  A    between atoms: C_22  and  O_70
REMARK    4  A    between atoms: C_23  and  C_69
REMARK    5  A    between atoms: C_29  and  O_68
REMARK    6  A    between atoms: C_34  and  C_35
REMARK    7  A    between atoms: C_35  and  C_36
REMARK    8  A    between atoms: C_36  and  C_37
REMARK    9  A    between atoms: C_36  and  O_66
REMARK   10  A    between atoms: C_37  and  C_38
REMARK   11  A    between atoms: C_37  and  C_39
REMARK   12  A    between atoms: C_39  and  C_40
REMARK   13  A    between atoms: C_40  and  C_41
REMARK   14  A    between atoms: C_41  and  C_42
REMARK   15  A    between atoms: C_41  and  O_57
REMARK   16  A    between atoms: C_42  and  C_43
REMARK   17  A    between atoms: C_42  and  C_44
REMARK   18  A    between atoms: C_44  and  C_45
REMARK   19  A    between atoms: C_44  and  O_53
REMARK   20  A    between atoms: C_45  and  C_46
REMARK   21  A    between atoms: C_45  and  C_47
REMARK   22  A    between atoms: C_48  and  N_49
REMARK   23  A    between atoms: N_49  and  C_50
REMARK   24  A    between atoms: O_53  and  C_54
REMARK   25  A    between atoms: C_54  and  C_56
REMARK   26  A    between atoms: O_57  and  C_58
REMARK   27  A    between atoms: C_58  and  C_60
REMARK   28  A    between atoms: C_60  and  C_61
REMARK   29  A    between atoms: C_60  and  O_64
REMARK   30  A    between atoms: C_61  and  O_62
REMARK   31  A    between atoms: O_62  and  C_63
REMARK   32  A    between atoms: O_64  and  C_65
REMARK   33  A    between atoms: O_66  and  C_67
REMARK   34  A    between atoms: O_70  and  C_71
REMARK   35  A    between atoms: O_72  and  C_73
REMARK                            x       y       z     vdW  Elec       q    Type
REMARK                         _______ _______ _______ _____ _____    ______ ____
ROOT
ATOM      1  C   UNL     1     144.703 166.920 187.962  0.00  0.00    +0.011 C 
ATOM      2  H   UNL     1     143.949 167.284 187.253  0.00  0.00    +0.033 HD
ATOM      3  H   UNL     1     144.176 166.841 188.919  0.00  0.00    +0.033 HD
ENDROOT
BRANCH   1  36
ATOM      4  C   UNL     1     144.064 164.520 187.207  0.00  0.00    +0.020 C 
ATOM      5  C   UNL     1     143.649 163.560 188.362  0.00  0.00    +0.068 C 
ATOM      6  C   UNL     1     143.216 164.200 189.711  0.00  0.00    -0.008 C 
ATOM      7  C   UNL     1     144.340 164.706 190.571  0.00  0.00    -0.077 C 
ATOM      8  C   UNL     1     144.228 165.611 191.557  0.00  0.00    -0.003 C 
ATOM      9  C   UNL     1     145.389 166.024 192.272  0.00  0.00    +0.220 A 
ATOM     10  N   UNL     1     146.640 165.847 191.874  0.00  0.00    -0.205 NA
ATOM     11  C   UNL     1     147.425 166.384 192.859  0.00  0.00    +0.164 A 
ATOM     12  C   UNL     1     146.629 166.907 193.841  0.00  0.00    +0.125 A 
ATOM     13  O   UNL     1     145.331 166.707 193.476  0.00  0.00    -0.443 OA
ATOM     14  C   UNL     1     148.983 166.376 192.833  0.00  0.00    +0.250 A 
ATOM     15  N   UNL     1     149.671 165.877 191.823  0.00  0.00    -0.203 NA
ATOM     16  C   UNL     1     150.983 166.043 192.184  0.00  0.00    +0.164 A 
ATOM     17  C   UNL     1     151.053 166.643 193.414  0.00  0.00    +0.125 A 
ATOM     18  O   UNL     1     149.778 166.871 193.843  0.00  0.00    -0.442 OA
ATOM     19  C   UNL     1     152.205 165.607 191.317  0.00  0.00    +0.249 A 
ATOM     20  N   UNL     1     152.082 165.048 190.123  0.00  0.00    -0.210 NA
ATOM     21  C   UNL     1     153.373 164.850 189.688  0.00  0.00    +0.109 A 
ATOM     22  C   UNL     1     154.243 165.293 190.658  0.00  0.00    +0.118 A 
ATOM     23  O   UNL     1     153.515 165.775 191.703  0.00  0.00    -0.442 OA
ATOM     24  C   UNL     1     153.662 164.295 188.324  0.00  0.00    +0.113 C 
ATOM     25  C   UNL     1     152.898 165.082 187.238  0.00  0.00    +0.051 C 
ATOM     26  C   UNL     1     153.273 164.529 185.869  0.00  0.00    +0.161 C 
ATOM     27  O   UNL     1     154.441 164.306 185.554  0.00  0.00    -0.292 OA
ATOM     28  C   UNL     1     152.215 164.300 184.840  0.00  0.00    -0.023 C 
ATOM     29  C   UNL     1     151.027 164.928 184.811  0.00  0.00    -0.078 C 
ATOM     30  C   UNL     1     149.999 164.704 183.734  0.00  0.00    -0.008 C 
ATOM     31  C   UNL     1     148.636 164.234 184.276  0.00  0.00    +0.069 C 
ATOM     32  C   UNL     1     147.841 165.368 184.935  0.00  0.00    +0.071 C 
ATOM     33  C   UNL     1     146.999 164.862 186.082  0.00  0.00    +0.310 C 
ATOM     34  O   UNL     1     147.240 163.862 186.740  0.00  0.00    -0.251 OA
ATOM     35  O   UNL     1     145.984 165.739 186.325  0.00  0.00    -0.461 OA
ATOM     36  C   UNL     1     145.208 165.527 187.536  0.00  0.00    +0.110 C 
ATOM     37  H   UNL     1     144.446 163.882 186.399  0.00  0.00    +0.036 HD
ATOM     38  H   UNL     1     142.776 162.989 188.015  0.00  0.00    +0.060 HD
ATOM     39  H   UNL     1     142.469 164.982 189.539  0.00  0.00    +0.033 HD
ATOM     40  H   UNL     1     142.724 163.408 190.293  0.00  0.00    +0.033 HD
ATOM     41  H   UNL     1     145.321 164.260 190.380  0.00  0.00    +0.057 HD
ATOM     42  H   UNL     1     143.273 166.042 191.833  0.00  0.00    +0.067 HD
ATOM     43  H   UNL     1     146.798 167.416 194.778  0.00  0.00    +0.105 HD
ATOM     44  H   UNL     1     151.851 166.951 194.068  0.00  0.00    +0.105 HD
ATOM     45  H   UNL     1     155.318 165.352 190.756  0.00  0.00    +0.105 HD
ATOM     46  H   UNL     1     154.741 164.351 188.126  0.00  0.00    +0.067 HD
ATOM     47  H   UNL     1     151.823 164.941 187.397  0.00  0.00    +0.041 HD
ATOM     48  H   UNL     1     152.507 163.603 184.060  0.00  0.00    +0.065 HD
ATOM     49  H   UNL     1     150.770 165.659 185.573  0.00  0.00    +0.057 HD
ATOM     50  H   UNL     1     149.868 165.633 183.166  0.00  0.00    +0.033 HD
ATOM     51  H   UNL     1     150.368 163.969 183.007  0.00  0.00    +0.033 HD
ATOM     52  H   UNL     1     148.790 163.388 184.956  0.00  0.00    +0.060 HD
ATOM     53  H   UNL     1     147.184 165.844 184.198  0.00  0.00    +0.040 HD
ATOM     54  H   UNL     1     148.498 166.133 185.362  0.00  0.00    +0.040 HD
ATOM     55  H   UNL     1     145.874 165.129 188.306  0.00  0.00    +0.074 HD
BRANCH   4  56
ATOM     56  C   UNL     1     142.822 165.184 186.591  0.00  0.00    -0.057 C 
ATOM     57  H   UNL     1     141.898 164.645 186.826  0.00  0.00    +0.023 HD
ATOM     58  H   UNL     1     142.718 166.217 186.938  0.00  0.00    +0.023 HD
ATOM     59  H   UNL     1     142.908 165.217 185.498  0.00  0.00    +0.023 HD
ENDBRANCH   4  56
BRANCH  25  60
ATOM     60  C   UNL     1     153.230 166.577 187.238  0.00  0.00    -0.053 C 
ATOM     61  H   UNL     1     154.118 166.790 186.633  0.00  0.00    +0.024 HD
ATOM     62  H   UNL     1     153.432 166.932 188.252  0.00  0.00    +0.024 HD
ATOM     63  H   UNL     1     152.405 167.167 186.827  0.00  0.00    +0.024 HD
ENDBRANCH  25  60
BRANCH  31  64
ATOM     64  O   UNL     1     147.859 163.749 183.172  0.00  0.00    -0.391 OA
ATOM     65  H   UNL     1     147.897 164.424 182.468  0.00  0.00    +0.210 HD
ENDBRANCH  31  64
BRANCH  24  66
ATOM     66  O   UNL     1     153.241 162.920 188.224  0.00  0.00    -0.373 OA
BRANCH  66  67
ATOM     67  C   UNL     1     154.116 162.019 188.890  0.00  0.00    +0.037 C 
ATOM     68  H   UNL     1     154.117 162.196 189.968  0.00  0.00    +0.052 HD
ATOM     69  H   UNL     1     155.130 162.106 188.488  0.00  0.00    +0.052 HD
ATOM     70  H   UNL     1     153.762 161.001 188.707  0.00  0.00    +0.052 HD
ENDBRANCH  66  67
ENDBRANCH  24  66
BRANCH   5  71
ATOM     71  O   UNL     1     144.683 162.609 188.666  0.00  0.00    -0.379 OA
BRANCH  71  72
ATOM     72  C   UNL     1     144.221 161.305 188.983  0.00  0.00    +0.037 C 
ATOM     73  H   UNL     1     143.531 161.384 189.829  0.00  0.00    +0.052 HD
ATOM     74  H   UNL     1     143.680 160.866 188.138  0.00  0.00    +0.052 HD
ATOM     75  H   UNL     1     145.041 160.651 189.282  0.00  0.00    +0.052 HD
ENDBRANCH  71  72
ENDBRANCH   5  71
ENDBRANCH   1  36
BRANCH   1  76
ATOM     76  C   UNL     1     145.777 168.017 188.125  0.00  0.00    +0.064 C 
ATOM     77  H   UNL     1     145.298 168.920 188.523  0.00  0.00    +0.060 HD
BRANCH  76  78
ATOM     78  C   UNL     1     146.991 167.690 189.044  0.00  0.00    -0.017 C 
ATOM     79  H   UNL     1     146.803 166.738 189.551  0.00  0.00    +0.032 HD
BRANCH  78  80
ATOM     80  C   UNL     1     148.309 167.586 188.258  0.00  0.00    -0.060 C 
ATOM     81  H   UNL     1     148.253 166.794 187.505  0.00  0.00    +0.023 HD
ATOM     82  H   UNL     1     149.150 167.362 188.921  0.00  0.00    +0.023 HD
ATOM     83  H   UNL     1     148.543 168.507 187.720  0.00  0.00    +0.023 HD
ENDBRANCH  78  80
BRANCH  78  84
ATOM     84  C   UNL     1     147.096 168.791 190.131  0.00  0.00    -0.045 C 
ATOM     85  H   UNL     1     146.157 168.796 190.685  0.00  0.00    +0.027 HD
ATOM     86  H   UNL     1     147.886 168.520 190.842  0.00  0.00    +0.027 HD
BRANCH  84  87
ATOM     87  C   UNL     1     147.364 170.204 189.613  0.00  0.00    -0.015 C 
ATOM     88  H   UNL     1     147.421 170.218 188.519  0.00  0.00    +0.030 HD
ATOM     89  H   UNL     1     148.360 170.524 189.949  0.00  0.00    +0.030 HD
BRANCH  87  90
ATOM     90  C   UNL     1     146.334 171.254 190.079  0.00  0.00    +0.109 C 
ATOM     91  H   UNL     1     146.096 171.042 191.128  0.00  0.00    +0.074 HD
BRANCH  90  92
ATOM     92  C   UNL     1     144.994 171.372 189.273  0.00  0.00    +0.031 C 
ATOM     93  H   UNL     1     145.004 170.519 188.580  0.00  0.00    +0.037 HD
BRANCH  92  94
ATOM     94  C   UNL     1     144.992 172.631 188.398  0.00  0.00    -0.056 C 
ATOM     95  H   UNL     1     143.991 172.927 188.078  0.00  0.00    +0.023 HD
ATOM     96  H   UNL     1     145.441 173.481 188.921  0.00  0.00    +0.023 HD
ATOM     97  H   UNL     1     145.592 172.478 187.497  0.00  0.00    +0.023 HD
ENDBRANCH  92  94
BRANCH  92  98
ATOM     98  C   UNL     1     143.720 171.210 190.160  0.00  0.00    +0.115 C 
ATOM     99  H   UNL     1     144.042 171.092 191.200  0.00  0.00    +0.074 HD
BRANCH  98 100
ATOM    100  C   UNL     1     142.657 172.349 190.112  0.00  0.00    +0.013 C 
ATOM    101  H   UNL     1     142.875 172.957 189.222  0.00  0.00    +0.038 HD
BRANCH 100 102
ATOM    102  C   UNL     1     142.765 173.344 191.274  0.00  0.00    -0.056 C 
ATOM    103  H   UNL     1     143.712 173.892 191.267  0.00  0.00    +0.024 HD
ATOM    104  H   UNL     1     141.951 174.073 191.236  0.00  0.00    +0.024 HD
ATOM    105  H   UNL     1     142.696 172.822 192.235  0.00  0.00    +0.024 HD
ENDBRANCH 100 102
BRANCH 100 106
ATOM    106  C   UNL     1     141.241 171.835 189.947  0.00  0.00    -0.064 C 
ATOM    107  C   UNL     1     140.422 171.678 190.998  0.00  0.00    -0.005 C 
ATOM    108  H   UNL     1     140.926 171.598 188.938  0.00  0.00    +0.059 HD
ATOM    109  H   UNL     1     140.799 171.933 191.993  0.00  0.00    +0.078 HD
BRANCH 107 110
ATOM    110  N   UNL     1     139.109 171.232 190.991  0.00  0.00    -0.284 N 
ATOM    111  C   UNL     1     138.715 169.902 190.950  0.00  0.00    +0.206 C 
ATOM    112  O   UNL     1     137.558 169.487 190.940  0.00  0.00    -0.279 OA
ATOM    113  H   UNL     1     139.550 169.191 190.913  0.00  0.00    +0.126 HD
BRANCH 110 114
ATOM    114  C   UNL     1     138.063 172.252 190.999  0.00  0.00    +0.007 C 
ATOM    115  H   UNL     1     138.395 173.173 191.484  0.00  0.00    +0.043 HD
ATOM    116  H   UNL     1     137.774 172.486 189.971  0.00  0.00    +0.043 HD
ATOM    117  H   UNL     1     137.199 171.860 191.542  0.00  0.00    +0.043 HD
ENDBRANCH 110 114
ENDBRANCH 107 110
ENDBRANCH 100 106
ENDBRANCH  98 100
BRANCH  98 118
ATOM    118  O   UNL     1     143.058 169.983 189.744  0.00  0.00    -0.461 OA
BRANCH 118 119
ATOM    119  C   UNL     1     142.926 169.004 190.680  0.00  0.00    +0.304 C 
ATOM    120  O   UNL     1     143.454 168.999 191.781  0.00  0.00    -0.251 OA
BRANCH 119 121
ATOM    121  C   UNL     1     142.026 167.922 190.163  0.00  0.00    +0.033 C 
ATOM    122  H   UNL     1     141.001 168.292 190.104  0.00  0.00    +0.034 HD
ATOM    123  H   UNL     1     142.049 167.074 190.854  0.00  0.00    +0.034 HD
ATOM    124  H   UNL     1     142.372 167.585 189.183  0.00  0.00    +0.034 HD
ENDBRANCH 119 121
ENDBRANCH 118 119
ENDBRANCH  98 118
ENDBRANCH  92  98
ENDBRANCH  90  92
BRANCH  90 125
ATOM    125  O   UNL     1     146.987 172.546 189.970  0.00  0.00    -0.459 OA
BRANCH 125 126
ATOM    126  C   UNL     1     148.053 172.789 190.794  0.00  0.00    +0.339 C 
ATOM    127  O   UNL     1     149.136 173.232 190.430  0.00  0.00    -0.248 OA
BRANCH 126 128
ATOM    128  C   UNL     1     147.652 172.466 192.248  0.00  0.00    +0.178 C 
ATOM    129  H   UNL     1     146.821 171.748 192.208  0.00  0.00    +0.074 HD
BRANCH 128 130
ATOM    130  C   UNL     1     148.841 171.788 192.952  0.00  0.00    +0.084 C 
ATOM    131  H   UNL     1     148.745 171.861 194.041  0.00  0.00    +0.059 HD
ATOM    132  H   UNL     1     149.769 172.289 192.651  0.00  0.00    +0.059 HD
BRANCH 130 133
ATOM    133  O   UNL     1     148.922 170.403 192.594  0.00  0.00    -0.380 OA
BRANCH 133 134
ATOM    134  C   UNL     1     150.221 170.046 192.142  0.00  0.00    +0.037 C 
ATOM    135  H   UNL     1     150.663 170.866 191.567  0.00  0.00    +0.052 HD
ATOM    136  H   UNL     1     150.866 169.788 192.988  0.00  0.00    +0.052 HD
ATOM    137  H   UNL     1     150.129 169.172 191.490  0.00  0.00    +0.052 HD
ENDBRANCH 133 134
ENDBRANCH 130 133
ENDBRANCH 128 130
BRANCH 128 138
ATOM    138  O   UNL     1     147.242 173.561 193.073  0.00  0.00    -0.366 OA
BRANCH 138 139
ATOM    139  C   UNL     1     145.845 173.808 193.030  0.00  0.00    +0.038 C 
ATOM    140  H   UNL     1     145.588 174.708 193.599  0.00  0.00    +0.052 HD
ATOM    141  H   UNL     1     145.285 172.949 193.406  0.00  0.00    +0.052 HD
ATOM    142  H   UNL     1     145.560 173.967 191.985  0.00  0.00    +0.052 HD
ENDBRANCH 138 139
ENDBRANCH 128 138
ENDBRANCH 126 128
ENDBRANCH 125 126
ENDBRANCH  90 125
ENDBRANCH  87  90
ENDBRANCH  84  87
ENDBRANCH  78  84
ENDBRANCH  76  78
BRANCH  76 143
ATOM    143  O   UNL     1     146.308 168.291 186.810  0.00  0.00    -0.379 OA
BRANCH 143 144
ATOM    144  C   UNL     1     145.688 169.394 186.163  0.00  0.00    +0.037 C 
ATOM    145  H   UNL     1     146.144 169.512 185.176  0.00  0.00    +0.052 HD
ATOM    146  H   UNL     1     144.617 169.215 186.031  0.00  0.00    +0.052 HD
ATOM    147  H   UNL     1     145.854 170.315 186.734  0.00  0.00    +0.052 HD
ENDBRANCH 143 144
ENDBRANCH  76 143
ENDBRANCH   1  76
TORSDOF 35
ENDMDL
MODEL 6
REMARK VINA RESULT:      -4.5      1.786      3.326
REMARK  Name = Mycalolide B_conf1
REMARK  35 active torsions:
REMARK  status: ('A' for Active; 'I' for Inactive)
REMARK    1  A    between atoms: C_1  and  C_2
REMARK    2  A    between atoms: C_3  and  O_72
REMARK    3  A    between atoms: C_22  and  O_70
REMARK    4  A    between atoms: C_23  and  C_69
REMARK    5  A    between atoms: C_29  and  O_68
REMARK    6  A    between atoms: C_34  and  C_35
REMARK    7  A    between atoms: C_35  and  C_36
REMARK    8  A    between atoms: C_36  and  C_37
REMARK    9  A    between atoms: C_36  and  O_66
REMARK   10  A    between atoms: C_37  and  C_38
REMARK   11  A    between atoms: C_37  and  C_39
REMARK   12  A    between atoms: C_39  and  C_40
REMARK   13  A    between atoms: C_40  and  C_41
REMARK   14  A    between atoms: C_41  and  C_42
REMARK   15  A    between atoms: C_41  and  O_57
REMARK   16  A    between atoms: C_42  and  C_43
REMARK   17  A    between atoms: C_42  and  C_44
REMARK   18  A    between atoms: C_44  and  C_45
REMARK   19  A    between atoms: C_44  and  O_53
REMARK   20  A    between atoms: C_45  and  C_46
REMARK   21  A    between atoms: C_45  and  C_47
REMARK   22  A    between atoms: C_48  and  N_49
REMARK   23  A    between atoms: N_49  and  C_50
REMARK   24  A    between atoms: O_53  and  C_54
REMARK   25  A    between atoms: C_54  and  C_56
REMARK   26  A    between atoms: O_57  and  C_58
REMARK   27  A    between atoms: C_58  and  C_60
REMARK   28  A    between atoms: C_60  and  C_61
REMARK   29  A    between atoms: C_60  and  O_64
REMARK   30  A    between atoms: C_61  and  O_62
REMARK   31  A    between atoms: O_62  and  C_63
REMARK   32  A    between atoms: O_64  and  C_65
REMARK   33  A    between atoms: O_66  and  C_67
REMARK   34  A    between atoms: O_70  and  C_71
REMARK   35  A    between atoms: O_72  and  C_73
REMARK                            x       y       z     vdW  Elec       q    Type
REMARK                         _______ _______ _______ _____ _____    ______ ____
ROOT
ATOM      1  C   UNL     1     149.819 167.475 189.384  0.00  0.00    +0.011 C 
ATOM      2  H   UNL     1     149.296 168.359 188.997  0.00  0.00    +0.033 HD
ATOM      3  H   UNL     1     150.768 167.858 189.774  0.00  0.00    +0.033 HD
ENDROOT
BRANCH   1  36
ATOM      4  C   UNL     1     149.220 167.536 191.910  0.00  0.00    +0.020 C 
ATOM      5  C   UNL     1     150.281 166.886 192.849  0.00  0.00    +0.068 C 
ATOM      6  C   UNL     1     151.720 166.703 192.292  0.00  0.00    -0.008 C 
ATOM      7  C   UNL     1     151.899 165.554 191.339  0.00  0.00    -0.077 C 
ATOM      8  C   UNL     1     152.899 165.417 190.453  0.00  0.00    -0.003 C 
ATOM      9  C   UNL     1     152.924 164.288 189.586  0.00  0.00    +0.220 A 
ATOM     10  N   UNL     1     151.898 163.491 189.332  0.00  0.00    -0.205 NA
ATOM     11  C   UNL     1     152.367 162.542 188.462  0.00  0.00    +0.164 A 
ATOM     12  C   UNL     1     153.681 162.796 188.179  0.00  0.00    +0.125 A 
ATOM     13  O   UNL     1     154.048 163.913 188.867  0.00  0.00    -0.443 OA
ATOM     14  C   UNL     1     151.507 161.367 187.908  0.00  0.00    +0.250 A 
ATOM     15  N   UNL     1     150.231 161.220 188.210  0.00  0.00    -0.203 NA
ATOM     16  C   UNL     1     149.848 160.082 187.549  0.00  0.00    +0.164 A 
ATOM     17  C   UNL     1     150.913 159.567 186.859  0.00  0.00    +0.125 A 
ATOM     18  O   UNL     1     151.986 160.383 187.071  0.00  0.00    -0.442 OA
ATOM     19  C   UNL     1     148.412 159.472 187.588  0.00  0.00    +0.249 A 
ATOM     20  N   UNL     1     147.411 160.022 188.257  0.00  0.00    -0.210 NA
ATOM     21  C   UNL     1     146.328 159.207 188.011  0.00  0.00    +0.109 A 
ATOM     22  C   UNL     1     146.727 158.170 187.198  0.00  0.00    +0.118 A 
ATOM     23  O   UNL     1     148.052 158.322 186.923  0.00  0.00    -0.442 OA
ATOM     24  C   UNL     1     144.965 159.538 188.542  0.00  0.00    +0.113 C 
ATOM     25  C   UNL     1     144.573 160.988 188.185  0.00  0.00    +0.051 C 
ATOM     26  C   UNL     1     143.159 161.256 188.683  0.00  0.00    +0.161 C 
ATOM     27  O   UNL     1     142.239 160.460 188.494  0.00  0.00    -0.292 OA
ATOM     28  C   UNL     1     142.840 162.543 189.370  0.00  0.00    -0.023 C 
ATOM     29  C   UNL     1     143.536 163.683 189.220  0.00  0.00    -0.078 C 
ATOM     30  C   UNL     1     143.161 164.975 189.895  0.00  0.00    -0.008 C 
ATOM     31  C   UNL     1     144.284 165.553 190.778  0.00  0.00    +0.069 C 
ATOM     32  C   UNL     1     145.408 166.196 189.955  0.00  0.00    +0.071 C 
ATOM     33  C   UNL     1     146.750 166.034 190.628  0.00  0.00    +0.310 C 
ATOM     34  O   UNL     1     147.039 165.141 191.410  0.00  0.00    -0.251 OA
ATOM     35  O   UNL     1     147.613 166.980 190.160  0.00  0.00    -0.461 OA
ATOM     36  C   UNL     1     149.011 166.837 190.531  0.00  0.00    +0.110 C 
ATOM     37  H   UNL     1     148.259 167.462 192.435  0.00  0.00    +0.036 HD
ATOM     38  H   UNL     1     150.386 167.540 193.725  0.00  0.00    +0.060 HD
ATOM     39  H   UNL     1     152.081 167.639 191.853  0.00  0.00    +0.033 HD
ATOM     40  H   UNL     1     152.366 166.483 193.154  0.00  0.00    +0.033 HD
ATOM     41  H   UNL     1     151.155 164.756 191.415  0.00  0.00    +0.057 HD
ATOM     42  H   UNL     1     153.698 166.145 190.375  0.00  0.00    +0.067 HD
ATOM     43  H   UNL     1     154.437 162.333 187.562  0.00  0.00    +0.105 HD
ATOM     44  H   UNL     1     151.070 158.710 186.226  0.00  0.00    +0.105 HD
ATOM     45  H   UNL     1     146.239 157.319 186.746  0.00  0.00    +0.105 HD
ATOM     46  H   UNL     1     144.227 158.844 188.117  0.00  0.00    +0.067 HD
ATOM     47  H   UNL     1     145.264 161.670 188.691  0.00  0.00    +0.041 HD
ATOM     48  H   UNL     1     141.942 162.503 189.980  0.00  0.00    +0.065 HD
ATOM     49  H   UNL     1     144.404 163.719 188.567  0.00  0.00    +0.057 HD
ATOM     50  H   UNL     1     142.880 165.710 189.131  0.00  0.00    +0.033 HD
ATOM     51  H   UNL     1     142.262 164.834 190.508  0.00  0.00    +0.033 HD
ATOM     52  H   UNL     1     144.658 164.769 191.446  0.00  0.00    +0.060 HD
ATOM     53  H   UNL     1     145.210 167.264 189.817  0.00  0.00    +0.040 HD
ATOM     54  H   UNL     1     145.510 165.729 188.970  0.00  0.00    +0.040 HD
ATOM     55  H   UNL     1     149.243 165.770 190.591  0.00  0.00    +0.074 HD
BRANCH   4  56
ATOM     56  C   UNL     1     149.461 169.049 191.798  0.00  0.00    -0.057 C 
ATOM     57  H   UNL     1     150.486 169.290 191.500  0.00  0.00    +0.023 HD
ATOM     58  H   UNL     1     148.775 169.503 191.076  0.00  0.00    +0.023 HD
ATOM     59  H   UNL     1     149.282 169.538 192.764  0.00  0.00    +0.023 HD
ENDBRANCH   4  56
BRANCH  25  60
ATOM     60  C   UNL     1     144.589 161.257 186.677  0.00  0.00    -0.053 C 
ATOM     61  H   UNL     1     144.700 160.329 186.106  0.00  0.00    +0.024 HD
ATOM     62  H   UNL     1     145.424 161.910 186.407  0.00  0.00    +0.024 HD
ATOM     63  H   UNL     1     143.662 161.734 186.348  0.00  0.00    +0.024 HD
ENDBRANCH  25  60
BRANCH  31  64
ATOM     64  O   UNL     1     143.719 166.578 191.607  0.00  0.00    -0.391 OA
ATOM     65  H   UNL     1     143.976 167.439 191.225  0.00  0.00    +0.210 HD
ENDBRANCH  31  64
BRANCH  24  66
ATOM     66  O   UNL     1     144.928 159.432 189.979  0.00  0.00    -0.373 OA
BRANCH  66  67
ATOM     67  C   UNL     1     144.729 158.102 190.436  0.00  0.00    +0.037 C 
ATOM     68  H   UNL     1     144.198 157.505 189.690  0.00  0.00    +0.052 HD
ATOM     69  H   UNL     1     144.182 158.102 191.384  0.00  0.00    +0.052 HD
ATOM     70  H   UNL     1     145.709 157.648 190.606  0.00  0.00    +0.052 HD
ENDBRANCH  66  67
ENDBRANCH  24  66
BRANCH   5  71
ATOM     71  O   UNL     1     149.854 165.600 193.329  0.00  0.00    -0.379 OA
BRANCH  71  72
ATOM     72  C   UNL     1     148.909 165.642 194.388  0.00  0.00    +0.037 C 
ATOM     73  H   UNL     1     149.332 165.105 195.243  0.00  0.00    +0.052 HD
ATOM     74  H   UNL     1     148.711 166.674 194.694  0.00  0.00    +0.052 HD
ATOM     75  H   UNL     1     147.977 165.148 194.112  0.00  0.00    +0.052 HD
ENDBRANCH  71  72
ENDBRANCH   5  71
ENDBRANCH   1  36
BRANCH   1  76
ATOM     76  C   UNL     1     150.157 166.556 188.191  0.00  0.00    +0.064 C 
ATOM     77  H   UNL     1     150.225 165.522 188.554  0.00  0.00    +0.060 HD
BRANCH  76  78
ATOM     78  C   UNL     1     149.168 166.563 186.988  0.00  0.00    -0.017 C 
ATOM     79  H   UNL     1     149.742 166.464 186.061  0.00  0.00    +0.032 HD
BRANCH  78  80
ATOM     80  C   UNL     1     148.144 165.419 187.066  0.00  0.00    -0.060 C 
ATOM     81  H   UNL     1     148.251 164.739 186.215  0.00  0.00    +0.023 HD
ATOM     82  H   UNL     1     147.119 165.802 187.064  0.00  0.00    +0.023 HD
ATOM     83  H   UNL     1     148.272 164.811 187.965  0.00  0.00    +0.023 HD
ENDBRANCH  78  80
BRANCH  78  84
ATOM     84  C   UNL     1     148.445 167.934 186.953  0.00  0.00    -0.045 C 
ATOM     85  H   UNL     1     148.733 168.480 187.852  0.00  0.00    +0.027 HD
ATOM     86  H   UNL     1     148.812 168.512 186.095  0.00  0.00    +0.027 HD
BRANCH  84  87
ATOM     87  C   UNL     1     146.919 167.872 186.887  0.00  0.00    -0.015 C 
ATOM     88  H   UNL     1     146.518 167.218 187.669  0.00  0.00    +0.030 HD
ATOM     89  H   UNL     1     146.623 167.394 185.943  0.00  0.00    +0.030 HD
BRANCH  87  90
ATOM     90  C   UNL     1     146.226 169.248 186.974  0.00  0.00    +0.109 C 
ATOM     91  H   UNL     1     147.000 169.996 187.184  0.00  0.00    +0.074 HD
BRANCH  90  92
ATOM     92  C   UNL     1     145.066 169.417 188.015  0.00  0.00    +0.031 C 
ATOM     93  H   UNL     1     145.325 168.740 188.841  0.00  0.00    +0.037 HD
BRANCH  92  94
ATOM     94  C   UNL     1     143.739 168.902 187.443  0.00  0.00    -0.056 C 
ATOM     95  H   UNL     1     143.839 168.482 186.441  0.00  0.00    +0.023 HD
ATOM     96  H   UNL     1     143.300 168.134 188.086  0.00  0.00    +0.023 HD
ATOM     97  H   UNL     1     143.003 169.708 187.388  0.00  0.00    +0.023 HD
ENDBRANCH  92  94
BRANCH  92  98
ATOM     98  C   UNL     1     144.983 170.852 188.624  0.00  0.00    +0.115 C 
ATOM     99  H   UNL     1     144.024 171.291 188.331  0.00  0.00    +0.074 HD
BRANCH  98 100
ATOM    100  C   UNL     1     145.125 170.990 190.170  0.00  0.00    +0.013 C 
ATOM    101  H   UNL     1     144.813 170.031 190.610  0.00  0.00    +0.038 HD
BRANCH 100 102
ATOM    102  C   UNL     1     144.163 172.010 190.789  0.00  0.00    -0.056 C 
ATOM    103  H   UNL     1     143.118 171.804 190.539  0.00  0.00    +0.024 HD
ATOM    104  H   UNL     1     144.255 172.018 191.879  0.00  0.00    +0.024 HD
ATOM    105  H   UNL     1     144.391 173.021 190.431  0.00  0.00    +0.024 HD
ENDBRANCH 100 102
BRANCH 100 106
ATOM    106  C   UNL     1     146.553 171.226 190.618  0.00  0.00    -0.064 C 
ATOM    107  C   UNL     1     146.873 172.228 191.451  0.00  0.00    -0.005 C 
ATOM    108  H   UNL     1     147.302 170.546 190.229  0.00  0.00    +0.059 HD
ATOM    109  H   UNL     1     146.073 172.882 191.809  0.00  0.00    +0.078 HD
BRANCH 107 110
ATOM    110  N   UNL     1     148.127 172.549 191.948  0.00  0.00    -0.284 N 
ATOM    111  C   UNL     1     148.555 172.323 193.249  0.00  0.00    +0.206 C 
ATOM    112  O   UNL     1     149.660 172.603 193.709  0.00  0.00    -0.279 OA
ATOM    113  H   UNL     1     147.797 171.859 193.894  0.00  0.00    +0.126 HD
BRANCH 110 114
ATOM    114  C   UNL     1     149.057 173.202 191.030  0.00  0.00    +0.007 C 
ATOM    115  H   UNL     1     148.691 173.187 190.000  0.00  0.00    +0.043 HD
ATOM    116  H   UNL     1     149.198 174.243 191.333  0.00  0.00    +0.043 HD
ATOM    117  H   UNL     1     150.014 172.676 191.071  0.00  0.00    +0.043 HD
ENDBRANCH 110 114
ENDBRANCH 107 110
ENDBRANCH 100 106
ENDBRANCH  98 100
BRANCH  98 118
ATOM    118  O   UNL     1     146.050 171.638 188.021  0.00  0.00    -0.461 OA
BRANCH 118 119
ATOM    119  C   UNL     1     145.687 172.784 187.382  0.00  0.00    +0.304 C 
ATOM    120  O   UNL     1     146.440 173.697 187.082  0.00  0.00    -0.251 OA
BRANCH 119 121
ATOM    121  C   UNL     1     144.217 172.763 187.092  0.00  0.00    +0.033 C 
ATOM    122  H   UNL     1     143.793 173.754 187.264  0.00  0.00    +0.034 HD
ATOM    123  H   UNL     1     143.727 172.055 187.767  0.00  0.00    +0.034 HD
ATOM    124  H   UNL     1     144.043 172.442 186.063  0.00  0.00    +0.034 HD
ENDBRANCH 119 121
ENDBRANCH 118 119
ENDBRANCH  98 118
ENDBRANCH  92  98
ENDBRANCH  90  92
BRANCH  90 125
ATOM    125  O   UNL     1     145.639 169.495 185.670  0.00  0.00    -0.459 OA
BRANCH 125 126
ATOM    126  C   UNL     1     146.456 169.992 184.690  0.00  0.00    +0.339 C 
ATOM    127  O   UNL     1     147.234 170.927 184.833  0.00  0.00    -0.248 OA
BRANCH 126 128
ATOM    128  C   UNL     1     146.274 169.157 183.407  0.00  0.00    +0.178 C 
ATOM    129  H   UNL     1     145.245 168.770 183.410  0.00  0.00    +0.074 HD
BRANCH 128 130
ATOM    130  C   UNL     1     146.438 170.080 182.186  0.00  0.00    +0.084 C 
ATOM    131  H   UNL     1     146.527 169.496 181.263  0.00  0.00    +0.059 HD
ATOM    132  H   UNL     1     147.348 170.679 182.308  0.00  0.00    +0.059 HD
BRANCH 130 133
ATOM    133  O   UNL     1     145.314 170.961 182.060  0.00  0.00    -0.380 OA
BRANCH 133 134
ATOM    134  C   UNL     1     145.189 171.476 180.742  0.00  0.00    +0.037 C 
ATOM    135  H   UNL     1     146.029 172.138 180.510  0.00  0.00    +0.052 HD
ATOM    136  H   UNL     1     145.138 170.662 180.013  0.00  0.00    +0.052 HD
ATOM    137  H   UNL     1     144.262 172.056 180.687  0.00  0.00    +0.052 HD
ENDBRANCH 133 134
ENDBRANCH 130 133
ENDBRANCH 128 130
BRANCH 128 138
ATOM    138  O   UNL     1     147.156 168.047 183.217  0.00  0.00    -0.366 OA
BRANCH 138 139
ATOM    139  C   UNL     1     146.511 166.787 183.327  0.00  0.00    +0.038 C 
ATOM    140  H   UNL     1     146.931 166.202 184.153  0.00  0.00    +0.052 HD
ATOM    141  H   UNL     1     146.584 166.228 182.391  0.00  0.00    +0.052 HD
ATOM    142  H   UNL     1     145.451 166.965 183.534  0.00  0.00    +0.052 HD
ENDBRANCH 138 139
ENDBRANCH 128 138
ENDBRANCH 126 128
ENDBRANCH 125 126
ENDBRANCH  90 125
ENDBRANCH  87  90
ENDBRANCH  84  87
ENDBRANCH  78  84
ENDBRANCH  76  78
BRANCH  76 143
ATOM    143  O   UNL     1     151.442 166.974 187.682  0.00  0.00    -0.379 OA
BRANCH 143 144
ATOM    144  C   UNL     1     151.957 166.125 186.666  0.00  0.00    +0.037 C 
ATOM    145  H   UNL     1     151.342 165.221 186.630  0.00  0.00    +0.052 HD
ATOM    146  H   UNL     1     151.911 166.615 185.689  0.00  0.00    +0.052 HD
ATOM    147  H   UNL     1     152.987 165.832 186.898  0.00  0.00    +0.052 HD
ENDBRANCH 143 144
ENDBRANCH  76 143
ENDBRANCH   1  76
TORSDOF 35
ENDMDL
MODEL 7
REMARK VINA RESULT:      -4.5      2.694      7.694
REMARK  Name = Mycalolide B_conf1
REMARK  35 active torsions:
REMARK  status: ('A' for Active; 'I' for Inactive)
REMARK    1  A    between atoms: C_1  and  C_2
REMARK    2  A    between atoms: C_3  and  O_72
REMARK    3  A    between atoms: C_22  and  O_70
REMARK    4  A    between atoms: C_23  and  C_69
REMARK    5  A    between atoms: C_29  and  O_68
REMARK    6  A    between atoms: C_34  and  C_35
REMARK    7  A    between atoms: C_35  and  C_36
REMARK    8  A    between atoms: C_36  and  C_37
REMARK    9  A    between atoms: C_36  and  O_66
REMARK   10  A    between atoms: C_37  and  C_38
REMARK   11  A    between atoms: C_37  and  C_39
REMARK   12  A    between atoms: C_39  and  C_40
REMARK   13  A    between atoms: C_40  and  C_41
REMARK   14  A    between atoms: C_41  and  C_42
REMARK   15  A    between atoms: C_41  and  O_57
REMARK   16  A    between atoms: C_42  and  C_43
REMARK   17  A    between atoms: C_42  and  C_44
REMARK   18  A    between atoms: C_44  and  C_45
REMARK   19  A    between atoms: C_44  and  O_53
REMARK   20  A    between atoms: C_45  and  C_46
REMARK   21  A    between atoms: C_45  and  C_47
REMARK   22  A    between atoms: C_48  and  N_49
REMARK   23  A    between atoms: N_49  and  C_50
REMARK   24  A    between atoms: O_53  and  C_54
REMARK   25  A    between atoms: C_54  and  C_56
REMARK   26  A    between atoms: O_57  and  C_58
REMARK   27  A    between atoms: C_58  and  C_60
REMARK   28  A    between atoms: C_60  and  C_61
REMARK   29  A    between atoms: C_60  and  O_64
REMARK   30  A    between atoms: C_61  and  O_62
REMARK   31  A    between atoms: O_62  and  C_63
REMARK   32  A    between atoms: O_64  and  C_65
REMARK   33  A    between atoms: O_66  and  C_67
REMARK   34  A    between atoms: O_70  and  C_71
REMARK   35  A    between atoms: O_72  and  C_73
REMARK                            x       y       z     vdW  Elec       q    Type
REMARK                         _______ _______ _______ _____ _____    ______ ____
ROOT
ATOM      1  C   UNL     1     150.068 165.009 186.616  0.00  0.00    +0.011 C 
ATOM      2  H   UNL     1     151.080 165.425 186.536  0.00  0.00    +0.033 HD
ATOM      3  H   UNL     1     149.417 165.763 186.161  0.00  0.00    +0.033 HD
ENDROOT
BRANCH   1  36
ATOM      4  C   UNL     1     150.695 163.740 184.439  0.00  0.00    +0.020 C 
ATOM      5  C   UNL     1     149.800 164.072 183.207  0.00  0.00    +0.068 C 
ATOM      6  C   UNL     1     148.978 165.391 183.250  0.00  0.00    -0.008 C 
ATOM      7  C   UNL     1     147.741 165.350 184.104  0.00  0.00    -0.077 C 
ATOM      8  C   UNL     1     147.097 166.418 184.603  0.00  0.00    -0.003 C 
ATOM      9  C   UNL     1     145.952 166.228 185.429  0.00  0.00    +0.220 A 
ATOM     10  N   UNL     1     145.613 165.095 186.025  0.00  0.00    -0.205 NA
ATOM     11  C   UNL     1     144.451 165.361 186.700  0.00  0.00    +0.164 A 
ATOM     12  C   UNL     1     144.111 166.673 186.521  0.00  0.00    +0.125 A 
ATOM     13  O   UNL     1     145.063 167.247 185.732  0.00  0.00    -0.443 OA
ATOM     14  C   UNL     1     143.665 164.302 187.530  0.00  0.00    +0.250 A 
ATOM     15  N   UNL     1     144.089 163.062 187.677  0.00  0.00    -0.203 NA
ATOM     16  C   UNL     1     143.128 162.457 188.446  0.00  0.00    +0.164 A 
ATOM     17  C   UNL     1     142.140 163.358 188.745  0.00  0.00    +0.125 A 
ATOM     18  O   UNL     1     142.472 164.551 188.171  0.00  0.00    -0.442 OA
ATOM     19  C   UNL     1     143.163 160.965 188.903  0.00  0.00    +0.249 A 
ATOM     20  N   UNL     1     144.154 160.140 188.602  0.00  0.00    -0.210 NA
ATOM     21  C   UNL     1     143.824 158.950 189.211  0.00  0.00    +0.109 A 
ATOM     22  C   UNL     1     142.617 159.100 189.857  0.00  0.00    +0.118 A 
ATOM     23  O   UNL     1     142.183 160.376 189.668  0.00  0.00    -0.442 OA
ATOM     24  C   UNL     1     144.745 157.767 189.165  0.00  0.00    +0.113 C 
ATOM     25  C   UNL     1     146.169 158.162 189.611  0.00  0.00    +0.051 C 
ATOM     26  C   UNL     1     147.050 156.920 189.615  0.00  0.00    +0.161 C 
ATOM     27  O   UNL     1     146.679 155.858 190.114  0.00  0.00    -0.292 OA
ATOM     28  C   UNL     1     148.433 156.983 189.056  0.00  0.00    -0.023 C 
ATOM     29  C   UNL     1     149.163 158.106 188.945  0.00  0.00    -0.078 C 
ATOM     30  C   UNL     1     150.573 158.128 188.415  0.00  0.00    -0.008 C 
ATOM     31  C   UNL     1     150.755 159.054 187.197  0.00  0.00    +0.069 C 
ATOM     32  C   UNL     1     150.774 160.538 187.583  0.00  0.00    +0.071 C 
ATOM     33  C   UNL     1     150.170 161.400 186.501  0.00  0.00    +0.310 C 
ATOM     34  O   UNL     1     149.348 161.023 185.680  0.00  0.00    -0.251 OA
ATOM     35  O   UNL     1     150.616 162.682 186.636  0.00  0.00    -0.461 OA
ATOM     36  C   UNL     1     149.968 163.694 185.818  0.00  0.00    +0.110 C 
ATOM     37  H   UNL     1     151.087 162.729 184.270  0.00  0.00    +0.036 HD
ATOM     38  H   UNL     1     150.463 164.168 182.337  0.00  0.00    +0.060 HD
ATOM     39  H   UNL     1     149.621 166.232 183.527  0.00  0.00    +0.033 HD
ATOM     40  H   UNL     1     148.630 165.579 182.224  0.00  0.00    +0.033 HD
ATOM     41  H   UNL     1     147.331 164.355 184.295  0.00  0.00    +0.057 HD
ATOM     42  H   UNL     1     147.421 167.431 184.396  0.00  0.00    +0.067 HD
ATOM     43  H   UNL     1     143.306 167.311 186.854  0.00  0.00    +0.105 HD
ATOM     44  H   UNL     1     141.219 163.323 189.302  0.00  0.00    +0.105 HD
ATOM     45  H   UNL     1     141.986 158.464 190.461  0.00  0.00    +0.105 HD
ATOM     46  H   UNL     1     144.361 156.977 189.824  0.00  0.00    +0.067 HD
ATOM     47  H   UNL     1     146.572 158.883 188.891  0.00  0.00    +0.041 HD
ATOM     48  H   UNL     1     148.841 156.013 188.784  0.00  0.00    +0.065 HD
ATOM     49  H   UNL     1     148.758 159.062 189.266  0.00  0.00    +0.057 HD
ATOM     50  H   UNL     1     151.252 158.439 189.218  0.00  0.00    +0.033 HD
ATOM     51  H   UNL     1     150.889 157.113 188.144  0.00  0.00    +0.033 HD
ATOM     52  H   UNL     1     149.982 158.829 186.454  0.00  0.00    +0.060 HD
ATOM     53  H   UNL     1     151.803 160.867 187.764  0.00  0.00    +0.040 HD
ATOM     54  H   UNL     1     150.182 160.733 188.484  0.00  0.00    +0.040 HD
ATOM     55  H   UNL     1     148.916 163.418 185.699  0.00  0.00    +0.074 HD
BRANCH   4  56
ATOM     56  C   UNL     1     151.952 164.623 184.439  0.00  0.00    -0.057 C 
ATOM     57  H   UNL     1     151.835 165.520 183.823  0.00  0.00    +0.023 HD
ATOM     58  H   UNL     1     152.212 164.934 185.457  0.00  0.00    +0.023 HD
ATOM     59  H   UNL     1     152.812 164.068 184.042  0.00  0.00    +0.023 HD
ENDBRANCH   4  56
BRANCH  25  60
ATOM     60  C   UNL     1     146.210 158.760 191.021  0.00  0.00    -0.053 C 
ATOM     61  H   UNL     1     146.512 159.813 191.000  0.00  0.00    +0.024 HD
ATOM     62  H   UNL     1     146.926 158.226 191.651  0.00  0.00    +0.024 HD
ATOM     63  H   UNL     1     145.228 158.711 191.502  0.00  0.00    +0.024 HD
ENDBRANCH  25  60
BRANCH  31  64
ATOM     64  O   UNL     1     152.020 158.752 186.592  0.00  0.00    -0.391 OA
ATOM     65  H   UNL     1     152.143 159.369 185.845  0.00  0.00    +0.210 HD
ENDBRANCH  31  64
BRANCH  24  66
ATOM     66  O   UNL     1     144.852 157.244 187.826  0.00  0.00    -0.373 OA
BRANCH  66  67
ATOM     67  C   UNL     1     143.897 156.230 187.546  0.00  0.00    +0.037 C 
ATOM     68  H   UNL     1     143.285 156.012 188.424  0.00  0.00    +0.052 HD
ATOM     69  H   UNL     1     144.398 155.321 187.195  0.00  0.00    +0.052 HD
ATOM     70  H   UNL     1     143.241 156.588 186.748  0.00  0.00    +0.052 HD
ENDBRANCH  66  67
ENDBRANCH  24  66
BRANCH   5  71
ATOM     71  O   UNL     1     148.872 163.014 182.919  0.00  0.00    -0.379 OA
BRANCH  71  72
ATOM     72  C   UNL     1     149.431 161.899 182.239  0.00  0.00    +0.037 C 
ATOM     73  H   UNL     1     148.609 161.272 181.878  0.00  0.00    +0.052 HD
ATOM     74  H   UNL     1     150.020 162.224 181.375  0.00  0.00    +0.052 HD
ATOM     75  H   UNL     1     150.046 161.292 182.904  0.00  0.00    +0.052 HD
ENDBRANCH  71  72
ENDBRANCH   5  71
ENDBRANCH   1  36
BRANCH   1  76
ATOM     76  C   UNL     1     149.698 164.931 188.112  0.00  0.00    +0.064 C 
ATOM     77  H   UNL     1     149.480 163.885 188.365  0.00  0.00    +0.060 HD
BRANCH  76  78
ATOM     78  C   UNL     1     150.754 165.447 189.133  0.00  0.00    -0.017 C 
ATOM     79  H   UNL     1     150.714 164.819 190.028  0.00  0.00    +0.032 HD
BRANCH  78  80
ATOM     80  C   UNL     1     152.182 165.415 188.563  0.00  0.00    -0.060 C 
ATOM     81  H   UNL     1     152.270 166.068 187.690  0.00  0.00    +0.023 HD
ATOM     82  H   UNL     1     152.465 164.403 188.257  0.00  0.00    +0.023 HD
ATOM     83  H   UNL     1     152.923 165.765 189.286  0.00  0.00    +0.023 HD
ENDBRANCH  78  80
BRANCH  78  84
ATOM     84  C   UNL     1     150.371 166.890 189.550  0.00  0.00    -0.045 C 
ATOM     85  H   UNL     1     151.144 167.558 189.169  0.00  0.00    +0.027 HD
ATOM     86  H   UNL     1     149.432 167.170 189.057  0.00  0.00    +0.027 HD
BRANCH  84  87
ATOM     87  C   UNL     1     150.225 167.123 191.054  0.00  0.00    -0.015 C 
ATOM     88  H   UNL     1     151.100 167.643 191.459  0.00  0.00    +0.030 HD
ATOM     89  H   UNL     1     150.217 166.150 191.566  0.00  0.00    +0.030 HD
BRANCH  87  90
ATOM     90  C   UNL     1     148.949 167.893 191.454  0.00  0.00    +0.109 C 
ATOM     91  H   UNL     1     148.104 167.426 190.934  0.00  0.00    +0.074 HD
BRANCH  90  92
ATOM     92  C   UNL     1     148.914 169.437 191.186  0.00  0.00    +0.031 C 
ATOM     93  H   UNL     1     149.839 169.651 190.634  0.00  0.00    +0.037 HD
BRANCH  92  94
ATOM     94  C   UNL     1     149.012 170.222 192.500  0.00  0.00    -0.056 C 
ATOM     95  H   UNL     1     149.600 171.137 192.409  0.00  0.00    +0.023 HD
ATOM     96  H   UNL     1     148.021 170.497 192.875  0.00  0.00    +0.023 HD
ATOM     97  H   UNL     1     149.473 169.613 193.282  0.00  0.00    +0.023 HD
ENDBRANCH  92  94
BRANCH  92  98
ATOM     98  C   UNL     1     147.734 169.881 190.266  0.00  0.00    +0.115 C 
ATOM     99  H   UNL     1     148.122 170.597 189.535  0.00  0.00    +0.074 HD
BRANCH  98 100
ATOM    100  C   UNL     1     146.965 168.768 189.490  0.00  0.00    +0.013 C 
ATOM    101  H   UNL     1     147.427 167.807 189.761  0.00  0.00    +0.038 HD
BRANCH 100 102
ATOM    102  C   UNL     1     147.139 168.844 187.969  0.00  0.00    -0.056 C 
ATOM    103  H   UNL     1     147.873 169.600 187.670  0.00  0.00    +0.024 HD
ATOM    104  H   UNL     1     147.464 167.880 187.567  0.00  0.00    +0.024 HD
ATOM    105  H   UNL     1     146.190 169.101 187.485  0.00  0.00    +0.024 HD
ENDBRANCH 100 102
BRANCH 100 106
ATOM    106  C   UNL     1     145.505 168.671 189.880  0.00  0.00    -0.064 C 
ATOM    107  C   UNL     1     144.873 167.490 189.957  0.00  0.00    -0.005 C 
ATOM    108  H   UNL     1     144.996 169.604 190.092  0.00  0.00    +0.059 HD
ATOM    109  H   UNL     1     145.439 166.582 189.730  0.00  0.00    +0.078 HD
BRANCH 107 110
ATOM    110  N   UNL     1     143.553 167.255 190.310  0.00  0.00    -0.284 N 
ATOM    111  C   UNL     1     143.123 166.277 191.195  0.00  0.00    +0.206 C 
ATOM    112  O   UNL     1     141.958 166.052 191.519  0.00  0.00    -0.279 OA
ATOM    113  H   UNL     1     143.933 165.664 191.611  0.00  0.00    +0.126 HD
BRANCH 110 114
ATOM    114  C   UNL     1     142.538 168.092 189.675  0.00  0.00    +0.007 C 
ATOM    115  H   UNL     1     142.161 168.862 190.352  0.00  0.00    +0.043 HD
ATOM    116  H   UNL     1     142.967 168.581 188.796  0.00  0.00    +0.043 HD
ATOM    117  H   UNL     1     141.704 167.454 189.368  0.00  0.00    +0.043 HD
ENDBRANCH 110 114
ENDBRANCH 107 110
ENDBRANCH 100 106
ENDBRANCH  98 100
BRANCH  98 118
ATOM    118  O   UNL     1     146.765 170.567 191.108  0.00  0.00    -0.461 OA
BRANCH 118 119
ATOM    119  C   UNL     1     146.539 171.883 190.843  0.00  0.00    +0.304 C 
ATOM    120  O   UNL     1     147.387 172.696 190.512  0.00  0.00    -0.251 OA
BRANCH 119 121
ATOM    121  C   UNL     1     145.083 172.194 191.014  0.00  0.00    +0.033 C 
ATOM    122  H   UNL     1     144.807 173.032 190.371  0.00  0.00    +0.034 HD
ATOM    123  H   UNL     1     144.894 172.478 192.053  0.00  0.00    +0.034 HD
ATOM    124  H   UNL     1     144.482 171.313 190.777  0.00  0.00    +0.034 HD
ENDBRANCH 119 121
ENDBRANCH 118 119
ENDBRANCH  98 118
ENDBRANCH  92  98
ENDBRANCH  90  92
BRANCH  90 125
ATOM    125  O   UNL     1     148.802 167.727 192.889  0.00  0.00    -0.459 OA
BRANCH 125 126
ATOM    126  C   UNL     1     147.724 167.011 193.337  0.00  0.00    +0.339 C 
ATOM    127  O   UNL     1     146.553 167.282 193.099  0.00  0.00    -0.248 OA
BRANCH 126 128
ATOM    128  C   UNL     1     148.224 165.793 194.137  0.00  0.00    +0.178 C 
ATOM    129  H   UNL     1     148.406 164.979 193.419  0.00  0.00    +0.074 HD
BRANCH 128 130
ATOM    130  C   UNL     1     149.563 166.153 194.805  0.00  0.00    +0.084 C 
ATOM    131  H   UNL     1     149.447 166.246 195.891  0.00  0.00    +0.059 HD
ATOM    132  H   UNL     1     149.915 167.113 194.410  0.00  0.00    +0.059 HD
BRANCH 130 133
ATOM    133  O   UNL     1     150.551 165.150 194.538  0.00  0.00    -0.380 OA
BRANCH 133 134
ATOM    134  C   UNL     1     150.955 164.474 195.721  0.00  0.00    +0.037 C 
ATOM    135  H   UNL     1     151.222 163.437 195.495  0.00  0.00    +0.052 HD
ATOM    136  H   UNL     1     151.800 164.988 196.189  0.00  0.00    +0.052 HD
ATOM    137  H   UNL     1     150.112 164.473 196.420  0.00  0.00    +0.052 HD
ENDBRANCH 133 134
ENDBRANCH 130 133
ENDBRANCH 128 130
BRANCH 128 138
ATOM    138  O   UNL     1     147.365 165.284 195.162  0.00  0.00    -0.366 OA
BRANCH 138 139
ATOM    139  C   UNL     1     147.570 165.897 196.426  0.00  0.00    +0.038 C 
ATOM    140  H   UNL     1     148.290 166.719 196.351  0.00  0.00    +0.052 HD
ATOM    141  H   UNL     1     147.906 165.164 197.165  0.00  0.00    +0.052 HD
ATOM    142  H   UNL     1     146.613 166.306 196.765  0.00  0.00    +0.052 HD
ENDBRANCH 138 139
ENDBRANCH 128 138
ENDBRANCH 126 128
ENDBRANCH 125 126
ENDBRANCH  90 125
ENDBRANCH  87  90
ENDBRANCH  84  87
ENDBRANCH  78  84
ENDBRANCH  76  78
BRANCH  76 143
ATOM    143  O   UNL     1     148.508 165.729 188.298  0.00  0.00    -0.379 OA
BRANCH 143 144
ATOM    144  C   UNL     1     147.452 165.037 188.949  0.00  0.00    +0.037 C 
ATOM    145  H   UNL     1     147.588 165.143 190.029  0.00  0.00    +0.052 HD
ATOM    146  H   UNL     1     146.482 165.464 188.678  0.00  0.00    +0.052 HD
ATOM    147  H   UNL     1     147.484 163.970 188.700  0.00  0.00    +0.052 HD
ENDBRANCH 143 144
ENDBRANCH  76 143
ENDBRANCH   1  76
TORSDOF 35
ENDMDL
MODEL 8
REMARK VINA RESULT:      -4.5      1.258      1.695
REMARK  Name = Mycalolide B_conf1
REMARK  35 active torsions:
REMARK  status: ('A' for Active; 'I' for Inactive)
REMARK    1  A    between atoms: C_1  and  C_2
REMARK    2  A    between atoms: C_3  and  O_72
REMARK    3  A    between atoms: C_22  and  O_70
REMARK    4  A    between atoms: C_23  and  C_69
REMARK    5  A    between atoms: C_29  and  O_68
REMARK    6  A    between atoms: C_34  and  C_35
REMARK    7  A    between atoms: C_35  and  C_36
REMARK    8  A    between atoms: C_36  and  C_37
REMARK    9  A    between atoms: C_36  and  O_66
REMARK   10  A    between atoms: C_37  and  C_38
REMARK   11  A    between atoms: C_37  and  C_39
REMARK   12  A    between atoms: C_39  and  C_40
REMARK   13  A    between atoms: C_40  and  C_41
REMARK   14  A    between atoms: C_41  and  C_42
REMARK   15  A    between atoms: C_41  and  O_57
REMARK   16  A    between atoms: C_42  and  C_43
REMARK   17  A    between atoms: C_42  and  C_44
REMARK   18  A    between atoms: C_44  and  C_45
REMARK   19  A    between atoms: C_44  and  O_53
REMARK   20  A    between atoms: C_45  and  C_46
REMARK   21  A    between atoms: C_45  and  C_47
REMARK   22  A    between atoms: C_48  and  N_49
REMARK   23  A    between atoms: N_49  and  C_50
REMARK   24  A    between atoms: O_53  and  C_54
REMARK   25  A    between atoms: C_54  and  C_56
REMARK   26  A    between atoms: O_57  and  C_58
REMARK   27  A    between atoms: C_58  and  C_60
REMARK   28  A    between atoms: C_60  and  C_61
REMARK   29  A    between atoms: C_60  and  O_64
REMARK   30  A    between atoms: C_61  and  O_62
REMARK   31  A    between atoms: O_62  and  C_63
REMARK   32  A    between atoms: O_64  and  C_65
REMARK   33  A    between atoms: O_66  and  C_67
REMARK   34  A    between atoms: O_70  and  C_71
REMARK   35  A    between atoms: O_72  and  C_73
REMARK                            x       y       z     vdW  Elec       q    Type
REMARK                         _______ _______ _______ _____ _____    ______ ____
ROOT
ATOM      1  C   UNL     1     151.024 167.655 189.877  0.00  0.00    +0.011 C 
ATOM      2  H   UNL     1     150.466 168.451 189.367  0.00  0.00    +0.033 HD
ATOM      3  H   UNL     1     151.867 168.165 190.356  0.00  0.00    +0.033 HD
ENDROOT
BRANCH   1  36
ATOM      4  C   UNL     1     150.316 167.616 192.375  0.00  0.00    +0.020 C 
ATOM      5  C   UNL     1     151.310 166.881 193.325  0.00  0.00    +0.068 C 
ATOM      6  C   UNL     1     152.765 166.670 192.821  0.00  0.00    -0.008 C 
ATOM      7  C   UNL     1     152.944 165.562 191.820  0.00  0.00    -0.077 C 
ATOM      8  C   UNL     1     153.977 165.431 190.971  0.00  0.00    -0.003 C 
ATOM      9  C   UNL     1     153.999 164.345 190.050  0.00  0.00    +0.220 A 
ATOM     10  N   UNL     1     152.956 163.601 189.713  0.00  0.00    -0.205 NA
ATOM     11  C   UNL     1     153.429 162.678 188.817  0.00  0.00    +0.164 A 
ATOM     12  C   UNL     1     154.762 162.894 188.603  0.00  0.00    +0.125 A 
ATOM     13  O   UNL     1     155.139 163.962 189.362  0.00  0.00    -0.443 OA
ATOM     14  C   UNL     1     152.552 161.566 188.168  0.00  0.00    +0.250 A 
ATOM     15  N   UNL     1     151.259 161.454 188.409  0.00  0.00    -0.203 NA
ATOM     16  C   UNL     1     150.864 160.365 187.675  0.00  0.00    +0.164 A 
ATOM     17  C   UNL     1     151.940 159.844 187.006  0.00  0.00    +0.125 A 
ATOM     18  O   UNL     1     153.031 160.607 187.304  0.00  0.00    -0.442 OA
ATOM     19  C   UNL     1     149.407 159.810 187.622  0.00  0.00    +0.249 A 
ATOM     20  N   UNL     1     148.398 160.364 188.275  0.00  0.00    -0.210 NA
ATOM     21  C   UNL     1     147.298 159.605 187.943  0.00  0.00    +0.109 A 
ATOM     22  C   UNL     1     147.695 158.594 187.097  0.00  0.00    +0.118 A 
ATOM     23  O   UNL     1     149.035 158.708 186.886  0.00  0.00    -0.442 OA
ATOM     24  C   UNL     1     145.925 159.962 188.431  0.00  0.00    +0.113 C 
ATOM     25  C   UNL     1     145.602 161.442 188.131  0.00  0.00    +0.051 C 
ATOM     26  C   UNL     1     144.179 161.739 188.582  0.00  0.00    +0.161 C 
ATOM     27  O   UNL     1     143.240 160.990 188.315  0.00  0.00    -0.292 OA
ATOM     28  C   UNL     1     143.877 163.003 189.318  0.00  0.00    -0.023 C 
ATOM     29  C   UNL     1     144.620 164.121 189.256  0.00  0.00    -0.078 C 
ATOM     30  C   UNL     1     144.263 165.393 189.979  0.00  0.00    -0.008 C 
ATOM     31  C   UNL     1     145.366 165.883 190.937  0.00  0.00    +0.069 C 
ATOM     32  C   UNL     1     146.548 166.521 190.196  0.00  0.00    +0.071 C 
ATOM     33  C   UNL     1     147.852 166.275 190.916  0.00  0.00    +0.310 C 
ATOM     34  O   UNL     1     148.074 165.335 191.664  0.00  0.00    -0.251 OA
ATOM     35  O   UNL     1     148.769 167.209 190.533  0.00  0.00    -0.461 OA
ATOM     36  C   UNL     1     150.143 166.994 190.956  0.00  0.00    +0.110 C 
ATOM     37  H   UNL     1     149.331 167.554 192.854  0.00  0.00    +0.036 HD
ATOM     38  H   UNL     1     151.400 167.487 194.237  0.00  0.00    +0.060 HD
ATOM     39  H   UNL     1     153.178 167.611 192.445  0.00  0.00    +0.033 HD
ATOM     40  H   UNL     1     153.364 166.383 193.697  0.00  0.00    +0.033 HD
ATOM     41  H   UNL     1     152.168 164.791 191.823  0.00  0.00    +0.057 HD
ATOM     42  H   UNL     1     154.804 166.130 190.964  0.00  0.00    +0.067 HD
ATOM     43  H   UNL     1     155.527 162.434 187.996  0.00  0.00    +0.105 HD
ATOM     44  H   UNL     1     152.093 159.013 186.337  0.00  0.00    +0.105 HD
ATOM     45  H   UNL     1     147.196 157.785 186.582  0.00  0.00    +0.105 HD
ATOM     46  H   UNL     1     145.182 159.319 187.941  0.00  0.00    +0.067 HD
ATOM     47  H   UNL     1     146.296 162.071 188.700  0.00  0.00    +0.041 HD
ATOM     48  H   UNL     1     142.952 162.968 189.888  0.00  0.00    +0.065 HD
ATOM     49  H   UNL     1     145.517 164.155 188.644  0.00  0.00    +0.057 HD
ATOM     50  H   UNL     1     144.043 166.174 189.242  0.00  0.00    +0.033 HD
ATOM     51  H   UNL     1     143.333 165.257 190.545  0.00  0.00    +0.033 HD
ATOM     52  H   UNL     1     145.681 165.054 191.580  0.00  0.00    +0.060 HD
ATOM     53  H   UNL     1     146.395 167.602 190.104  0.00  0.00    +0.040 HD
ATOM     54  H   UNL     1     146.677 166.099 189.193  0.00  0.00    +0.040 HD
ATOM     55  H   UNL     1     150.333 165.917 190.972  0.00  0.00    +0.074 HD
BRANCH   4  56
ATOM     56  C   UNL     1     150.617 169.123 192.350  0.00  0.00    -0.057 C 
ATOM     57  H   UNL     1     149.757 169.717 192.025  0.00  0.00    +0.023 HD
ATOM     58  H   UNL     1     150.928 169.477 193.339  0.00  0.00    +0.023 HD
ATOM     59  H   UNL     1     151.439 169.338 191.657  0.00  0.00    +0.023 HD
ENDBRANCH   4  56
BRANCH  25  60
ATOM     60  C   UNL     1     145.696 161.783 186.641  0.00  0.00    -0.053 C 
ATOM     61  H   UNL     1     145.764 160.879 186.027  0.00  0.00    +0.024 HD
ATOM     62  H   UNL     1     146.583 162.387 186.434  0.00  0.00    +0.024 HD
ATOM     63  H   UNL     1     144.817 162.341 186.305  0.00  0.00    +0.024 HD
ENDBRANCH  25  60
BRANCH  31  64
ATOM     64  O   UNL     1     144.803 166.888 191.791  0.00  0.00    -0.391 OA
ATOM     65  H   UNL     1     143.955 167.168 191.396  0.00  0.00    +0.210 HD
ENDBRANCH  31  64
BRANCH  24  66
ATOM     66  O   UNL     1     145.821 159.788 189.859  0.00  0.00    -0.373 OA
BRANCH  66  67
ATOM     67  C   UNL     1     145.579 158.441 190.240  0.00  0.00    +0.037 C 
ATOM     68  H   UNL     1     144.867 158.387 191.067  0.00  0.00    +0.052 HD
ATOM     69  H   UNL     1     146.517 157.947 190.512  0.00  0.00    +0.052 HD
ATOM     70  H   UNL     1     145.152 157.914 189.382  0.00  0.00    +0.052 HD
ENDBRANCH  66  67
ENDBRANCH  24  66
BRANCH   5  71
ATOM     71  O   UNL     1     150.816 165.591 193.721  0.00  0.00    -0.379 OA
BRANCH  71  72
ATOM     72  C   UNL     1     150.950 165.299 195.104  0.00  0.00    +0.037 C 
ATOM     73  H   UNL     1     152.011 165.367 195.366  0.00  0.00    +0.052 HD
ATOM     74  H   UNL     1     150.399 166.025 195.711  0.00  0.00    +0.052 HD
ATOM     75  H   UNL     1     150.613 164.287 195.334  0.00  0.00    +0.052 HD
ENDBRANCH  71  72
ENDBRANCH   5  71
ENDBRANCH   1  36
BRANCH   1  76
ATOM     76  C   UNL     1     151.612 166.716 188.803  0.00  0.00    +0.064 C 
ATOM     77  H   UNL     1     152.055 165.846 189.304  0.00  0.00    +0.060 HD
BRANCH  76  78
ATOM     78  C   UNL     1     150.635 166.180 187.717  0.00  0.00    -0.017 C 
ATOM     79  H   UNL     1     151.196 166.004 186.794  0.00  0.00    +0.032 HD
BRANCH  78  80
ATOM     80  C   UNL     1     149.949 164.871 188.141  0.00  0.00    -0.060 C 
ATOM     81  H   UNL     1     148.908 164.847 187.807  0.00  0.00    +0.023 HD
ATOM     82  H   UNL     1     149.956 164.753 189.229  0.00  0.00    +0.023 HD
ATOM     83  H   UNL     1     150.432 163.992 187.707  0.00  0.00    +0.023 HD
ENDBRANCH  78  80
BRANCH  78  84
ATOM     84  C   UNL     1     149.576 167.274 187.424  0.00  0.00    -0.045 C 
ATOM     85  H   UNL     1     148.656 166.985 187.933  0.00  0.00    +0.027 HD
ATOM     86  H   UNL     1     149.904 168.221 187.870  0.00  0.00    +0.027 HD
BRANCH  84  87
ATOM     87  C   UNL     1     149.263 167.509 185.946  0.00  0.00    -0.015 C 
ATOM     88  H   UNL     1     150.106 167.213 185.314  0.00  0.00    +0.030 HD
ATOM     89  H   UNL     1     149.148 168.588 185.773  0.00  0.00    +0.030 HD
BRANCH  87  90
ATOM     90  C   UNL     1     147.985 166.800 185.451  0.00  0.00    +0.109 C 
ATOM     91  H   UNL     1     147.651 167.315 184.542  0.00  0.00    +0.074 HD
BRANCH  90  92
ATOM     92  C   UNL     1     146.776 166.694 186.444  0.00  0.00    +0.031 C 
ATOM     93  H   UNL     1     147.227 166.741 187.445  0.00  0.00    +0.037 HD
BRANCH  92  94
ATOM     94  C   UNL     1     146.105 165.319 186.344  0.00  0.00    -0.056 C 
ATOM     95  H   UNL     1     146.488 164.602 187.071  0.00  0.00    +0.023 HD
ATOM     96  H   UNL     1     145.022 165.393 186.485  0.00  0.00    +0.023 HD
ATOM     97  H   UNL     1     146.252 164.887 185.350  0.00  0.00    +0.023 HD
ENDBRANCH  92  94
BRANCH  92  98
ATOM     98  C   UNL     1     145.785 167.895 186.344  0.00  0.00    +0.115 C 
ATOM     99  H   UNL     1     144.771 167.515 186.504  0.00  0.00    +0.074 HD
BRANCH  98 100
ATOM    100  C   UNL     1     146.007 169.098 187.311  0.00  0.00    +0.013 C 
ATOM    101  H   UNL     1     146.832 168.822 187.985  0.00  0.00    +0.038 HD
BRANCH 100 102
ATOM    102  C   UNL     1     144.828 169.356 188.256  0.00  0.00    -0.056 C 
ATOM    103  H   UNL     1     143.864 169.324 187.739  0.00  0.00    +0.024 HD
ATOM    104  H   UNL     1     144.806 168.614 189.059  0.00  0.00    +0.024 HD
ATOM    105  H   UNL     1     144.916 170.344 188.722  0.00  0.00    +0.024 HD
ENDBRANCH 100 102
BRANCH 100 106
ATOM    106  C   UNL     1     146.438 170.364 186.598  0.00  0.00    -0.064 C 
ATOM    107  C   UNL     1     145.709 171.488 186.657  0.00  0.00    -0.005 C 
ATOM    108  H   UNL     1     147.363 170.312 186.036  0.00  0.00    +0.059 HD
ATOM    109  H   UNL     1     144.784 171.477 187.240  0.00  0.00    +0.078 HD
BRANCH 107 110
ATOM    110  N   UNL     1     145.989 172.712 186.068  0.00  0.00    -0.284 N 
ATOM    111  C   UNL     1     146.146 173.911 186.748  0.00  0.00    +0.206 C 
ATOM    112  O   UNL     1     146.391 175.005 186.245  0.00  0.00    -0.279 OA
ATOM    113  H   UNL     1     146.020 173.827 187.836  0.00  0.00    +0.126 HD
BRANCH 110 114
ATOM    114  C   UNL     1     146.097 172.737 184.612  0.00  0.00    +0.007 C 
ATOM    115  H   UNL     1     146.644 173.615 184.258  0.00  0.00    +0.043 HD
ATOM    116  H   UNL     1     146.622 171.840 184.270  0.00  0.00    +0.043 HD
ATOM    117  H   UNL     1     145.090 172.755 184.188  0.00  0.00    +0.043 HD
ENDBRANCH 110 114
ENDBRANCH 107 110
ENDBRANCH 100 106
ENDBRANCH  98 100
BRANCH  98 118
ATOM    118  O   UNL     1     145.870 168.412 184.986  0.00  0.00    -0.461 OA
BRANCH 118 119
ATOM    119  C   UNL     1     144.695 168.658 184.343  0.00  0.00    +0.304 C 
ATOM    120  O   UNL     1     144.492 169.572 183.560  0.00  0.00    -0.251 OA
BRANCH 119 121
ATOM    121  C   UNL     1     143.676 167.631 184.735  0.00  0.00    +0.033 C 
ATOM    122  H   UNL     1     143.980 166.650 184.366  0.00  0.00    +0.034 HD
ATOM    123  H   UNL     1     142.713 167.888 184.283  0.00  0.00    +0.034 HD
ATOM    124  H   UNL     1     143.559 167.616 185.821  0.00  0.00    +0.034 HD
ENDBRANCH 119 121
ENDBRANCH 118 119
ENDBRANCH  98 118
ENDBRANCH  92  98
ENDBRANCH  90  92
BRANCH  90 125
ATOM    125  O   UNL     1     148.369 165.435 185.134  0.00  0.00    -0.459 OA
BRANCH 125 126
ATOM    126  C   UNL     1     149.030 165.220 183.954  0.00  0.00    +0.339 C 
ATOM    127  O   UNL     1     148.881 165.883 182.935  0.00  0.00    -0.248 OA
BRANCH 126 128
ATOM    128  C   UNL     1     150.019 164.052 184.135  0.00  0.00    +0.178 C 
ATOM    129  H   UNL     1     150.068 163.512 183.178  0.00  0.00    +0.074 HD
BRANCH 128 130
ATOM    130  C   UNL     1     151.415 164.624 184.437  0.00  0.00    +0.084 C 
ATOM    131  H   UNL     1     151.345 165.654 184.806  0.00  0.00    +0.059 HD
ATOM    132  H   UNL     1     152.010 164.626 183.516  0.00  0.00    +0.059 HD
BRANCH 130 133
ATOM    133  O   UNL     1     152.088 163.832 185.424  0.00  0.00    -0.380 OA
BRANCH 133 134
ATOM    134  C   UNL     1     153.416 163.514 185.034  0.00  0.00    +0.037 C 
ATOM    135  H   UNL     1     153.964 164.423 184.770  0.00  0.00    +0.052 HD
ATOM    136  H   UNL     1     153.935 162.979 185.835  0.00  0.00    +0.052 HD
ATOM    137  H   UNL     1     153.369 162.867 184.152  0.00  0.00    +0.052 HD
ENDBRANCH 133 134
ENDBRANCH 130 133
ENDBRANCH 128 130
BRANCH 128 138
ATOM    138  O   UNL     1     149.725 163.096 185.158  0.00  0.00    -0.366 OA
BRANCH 138 139
ATOM    139  C   UNL     1     149.085 161.926 184.672  0.00  0.00    +0.038 C 
ATOM    140  H   UNL     1     149.630 161.506 183.820  0.00  0.00    +0.052 HD
ATOM    141  H   UNL     1     148.049 162.136 184.394  0.00  0.00    +0.052 HD
ATOM    142  H   UNL     1     149.075 161.184 185.476  0.00  0.00    +0.052 HD
ENDBRANCH 138 139
ENDBRANCH 128 138
ENDBRANCH 126 128
ENDBRANCH 125 126
ENDBRANCH  90 125
ENDBRANCH  87  90
ENDBRANCH  84  87
ENDBRANCH  78  84
ENDBRANCH  76  78
BRANCH  76 143
ATOM    143  O   UNL     1     152.645 167.453 188.113  0.00  0.00    -0.379 OA
BRANCH 143 144
ATOM    144  C   UNL     1     153.412 166.658 187.219  0.00  0.00    +0.037 C 
ATOM    145  H   UNL     1     154.440 167.034 187.223  0.00  0.00    +0.052 HD
ATOM    146  H   UNL     1     153.424 165.613 187.539  0.00  0.00    +0.052 HD
ATOM    147  H   UNL     1     153.018 166.742 186.199  0.00  0.00    +0.052 HD
ENDBRANCH 143 144
ENDBRANCH  76 143
ENDBRANCH   1  76
TORSDOF 35
ENDMDL
MODEL 9
REMARK VINA RESULT:      -4.4      4.126     10.552
REMARK  Name = Mycalolide B_conf1
REMARK  35 active torsions:
REMARK  status: ('A' for Active; 'I' for Inactive)
REMARK    1  A    between atoms: C_1  and  C_2
REMARK    2  A    between atoms: C_3  and  O_72
REMARK    3  A    between atoms: C_22  and  O_70
REMARK    4  A    between atoms: C_23  and  C_69
REMARK    5  A    between atoms: C_29  and  O_68
REMARK    6  A    between atoms: C_34  and  C_35
REMARK    7  A    between atoms: C_35  and  C_36
REMARK    8  A    between atoms: C_36  and  C_37
REMARK    9  A    between atoms: C_36  and  O_66
REMARK   10  A    between atoms: C_37  and  C_38
REMARK   11  A    between atoms: C_37  and  C_39
REMARK   12  A    between atoms: C_39  and  C_40
REMARK   13  A    between atoms: C_40  and  C_41
REMARK   14  A    between atoms: C_41  and  C_42
REMARK   15  A    between atoms: C_41  and  O_57
REMARK   16  A    between atoms: C_42  and  C_43
REMARK   17  A    between atoms: C_42  and  C_44
REMARK   18  A    between atoms: C_44  and  C_45
REMARK   19  A    between atoms: C_44  and  O_53
REMARK   20  A    between atoms: C_45  and  C_46
REMARK   21  A    between atoms: C_45  and  C_47
REMARK   22  A    between atoms: C_48  and  N_49
REMARK   23  A    between atoms: N_49  and  C_50
REMARK   24  A    between atoms: O_53  and  C_54
REMARK   25  A    between atoms: C_54  and  C_56
REMARK   26  A    between atoms: O_57  and  C_58
REMARK   27  A    between atoms: C_58  and  C_60
REMARK   28  A    between atoms: C_60  and  C_61
REMARK   29  A    between atoms: C_60  and  O_64
REMARK   30  A    between atoms: C_61  and  O_62
REMARK   31  A    between atoms: O_62  and  C_63
REMARK   32  A    between atoms: O_64  and  C_65
REMARK   33  A    between atoms: O_66  and  C_67
REMARK   34  A    between atoms: O_70  and  C_71
REMARK   35  A    between atoms: O_72  and  C_73
REMARK                            x       y       z     vdW  Elec       q    Type
REMARK                         _______ _______ _______ _____ _____    ______ ____
ROOT
ATOM      1  C   UNL     1     145.390 170.621 190.217  0.00  0.00    +0.011 C 
ATOM      2  H   UNL     1     145.476 170.874 191.281  0.00  0.00    +0.033 HD
ATOM      3  H   UNL     1     144.881 169.652 190.198  0.00  0.00    +0.033 HD
ENDROOT
BRANCH   1  36
ATOM      4  C   UNL     1     143.826 172.681 190.447  0.00  0.00    +0.020 C 
ATOM      5  C   UNL     1     142.354 172.344 190.831  0.00  0.00    +0.068 C 
ATOM      6  C   UNL     1     142.076 170.954 191.471  0.00  0.00    -0.008 C 
ATOM      7  C   UNL     1     142.063 169.797 190.512  0.00  0.00    -0.077 C 
ATOM      8  C   UNL     1     142.228 168.505 190.839  0.00  0.00    -0.003 C 
ATOM      9  C   UNL     1     142.226 167.512 189.817  0.00  0.00    +0.220 A 
ATOM     10  N   UNL     1     142.384 167.742 188.523  0.00  0.00    -0.205 NA
ATOM     11  C   UNL     1     142.304 166.517 187.914  0.00  0.00    +0.164 A 
ATOM     12  C   UNL     1     142.119 165.549 188.862  0.00  0.00    +0.125 A 
ATOM     13  O   UNL     1     142.088 166.159 190.080  0.00  0.00    -0.443 OA
ATOM     14  C   UNL     1     142.406 166.302 186.374  0.00  0.00    +0.250 A 
ATOM     15  N   UNL     1     142.620 167.296 185.533  0.00  0.00    -0.203 NA
ATOM     16  C   UNL     1     142.627 166.707 184.295  0.00  0.00    +0.164 A 
ATOM     17  C   UNL     1     142.414 165.359 184.423  0.00  0.00    +0.125 A 
ATOM     18  O   UNL     1     142.277 165.080 185.752  0.00  0.00    -0.442 OA
ATOM     19  C   UNL     1     142.841 167.467 182.950  0.00  0.00    +0.249 A 
ATOM     20  N   UNL     1     143.063 168.771 182.883  0.00  0.00    -0.210 NA
ATOM     21  C   UNL     1     143.229 169.036 181.542  0.00  0.00    +0.109 A 
ATOM     22  C   UNL     1     143.086 167.863 180.835  0.00  0.00    +0.118 A 
ATOM     23  O   UNL     1     142.836 166.856 181.717  0.00  0.00    -0.442 OA
ATOM     24  C   UNL     1     143.576 170.412 181.055  0.00  0.00    +0.113 C 
ATOM     25  C   UNL     1     144.796 170.973 181.816  0.00  0.00    +0.051 C 
ATOM     26  C   UNL     1     145.153 172.337 181.243  0.00  0.00    +0.161 C 
ATOM     27  O   UNL     1     145.222 172.538 180.031  0.00  0.00    -0.292 OA
ATOM     28  C   UNL     1     145.493 173.467 182.159  0.00  0.00    -0.023 C 
ATOM     29  C   UNL     1     145.952 173.323 183.414  0.00  0.00    -0.078 C 
ATOM     30  C   UNL     1     146.326 174.483 184.297  0.00  0.00    -0.008 C 
ATOM     31  C   UNL     1     145.549 174.517 185.627  0.00  0.00    +0.069 C 
ATOM     32  C   UNL     1     146.049 173.469 186.628  0.00  0.00    +0.071 C 
ATOM     33  C   UNL     1     144.927 172.949 187.495  0.00  0.00    +0.310 C 
ATOM     34  O   UNL     1     143.747 172.937 187.181  0.00  0.00    -0.251 OA
ATOM     35  O   UNL     1     145.443 172.416 188.639  0.00  0.00    -0.461 OA
ATOM     36  C   UNL     1     144.528 171.671 189.488  0.00  0.00    +0.110 C 
ATOM     37  H   UNL     1     143.791 173.636 189.907  0.00  0.00    +0.036 HD
ATOM     38  H   UNL     1     142.034 173.081 191.581  0.00  0.00    +0.060 HD
ATOM     39  H   UNL     1     142.768 170.772 192.300  0.00  0.00    +0.033 HD
ATOM     40  H   UNL     1     141.066 171.001 191.901  0.00  0.00    +0.033 HD
ATOM     41  H   UNL     1     141.867 170.051 189.466  0.00  0.00    +0.057 HD
ATOM     42  H   UNL     1     142.365 168.187 191.866  0.00  0.00    +0.067 HD
ATOM     43  H   UNL     1     142.008 164.475 188.852  0.00  0.00    +0.105 HD
ATOM     44  H   UNL     1     142.338 164.531 183.740  0.00  0.00    +0.105 HD
ATOM     45  H   UNL     1     143.142 167.584 179.793  0.00  0.00    +0.105 HD
ATOM     46  H   UNL     1     143.800 170.375 179.980  0.00  0.00    +0.067 HD
ATOM     47  H   UNL     1     144.525 171.089 182.871  0.00  0.00    +0.041 HD
ATOM     48  H   UNL     1     145.390 174.447 181.703  0.00  0.00    +0.065 HD
ATOM     49  H   UNL     1     146.096 172.333 183.839  0.00  0.00    +0.057 HD
ATOM     50  H   UNL     1     147.403 174.445 184.502  0.00  0.00    +0.033 HD
ATOM     51  H   UNL     1     146.165 175.429 183.764  0.00  0.00    +0.033 HD
ATOM     52  H   UNL     1     144.477 174.414 185.421  0.00  0.00    +0.060 HD
ATOM     53  H   UNL     1     146.821 173.903 187.273  0.00  0.00    +0.040 HD
ATOM     54  H   UNL     1     146.468 172.591 186.125  0.00  0.00    +0.040 HD
ATOM     55  H   UNL     1     143.801 171.165 188.848  0.00  0.00    +0.074 HD
BRANCH   4  56
ATOM     56  C   UNL     1     144.647 173.002 191.705  0.00  0.00    -0.057 C 
ATOM     57  H   UNL     1     145.523 172.354 191.811  0.00  0.00    +0.023 HD
ATOM     58  H   UNL     1     144.985 174.043 191.698  0.00  0.00    +0.023 HD
ATOM     59  H   UNL     1     144.035 172.868 192.607  0.00  0.00    +0.023 HD
ENDBRANCH   4  56
BRANCH  25  60
ATOM     60  C   UNL     1     146.037 170.083 181.694  0.00  0.00    -0.053 C 
ATOM     61  H   UNL     1     146.643 170.358 180.824  0.00  0.00    +0.024 HD
ATOM     62  H   UNL     1     145.754 169.033 181.578  0.00  0.00    +0.024 HD
ATOM     63  H   UNL     1     146.676 170.169 182.578  0.00  0.00    +0.024 HD
ENDBRANCH  25  60
BRANCH  31  64
ATOM     64  O   UNL     1     145.740 175.807 186.224  0.00  0.00    -0.391 OA
ATOM     65  H   UNL     1     146.157 176.381 185.554  0.00  0.00    +0.210 HD
ENDBRANCH  31  64
BRANCH  24  66
ATOM     66  O   UNL     1     142.485 171.329 181.271  0.00  0.00    -0.373 OA
BRANCH  66  67
ATOM     67  C   UNL     1     141.589 171.399 180.170  0.00  0.00    +0.037 C 
ATOM     68  H   UNL     1     142.106 171.718 179.262  0.00  0.00    +0.052 HD
ATOM     69  H   UNL     1     140.761 172.079 180.396  0.00  0.00    +0.052 HD
ATOM     70  H   UNL     1     141.177 170.402 180.001  0.00  0.00    +0.052 HD
ENDBRANCH  66  67
ENDBRANCH  24  66
BRANCH   5  71
ATOM     71  O   UNL     1     141.465 172.469 189.709  0.00  0.00    -0.379 OA
BRANCH  71  72
ATOM     72  C   UNL     1     140.247 173.145 189.984  0.00  0.00    +0.037 C 
ATOM     73  H   UNL     1     140.201 174.037 189.351  0.00  0.00    +0.052 HD
ATOM     74  H   UNL     1     139.387 172.511 189.747  0.00  0.00    +0.052 HD
ATOM     75  H   UNL     1     140.196 173.471 191.024  0.00  0.00    +0.052 HD
ENDBRANCH  71  72
ENDBRANCH   5  71
ENDBRANCH   1  36
BRANCH   1  76
ATOM     76  C   UNL     1     146.812 170.398 189.659  0.00  0.00    +0.064 C 
ATOM     77  H   UNL     1     147.076 171.251 189.022  0.00  0.00    +0.060 HD
BRANCH  76  78
ATOM     78  C   UNL     1     147.960 170.217 190.695  0.00  0.00    -0.017 C 
ATOM     79  H   UNL     1     148.918 170.245 190.167  0.00  0.00    +0.032 HD
BRANCH  78  80
ATOM     80  C   UNL     1     147.953 171.314 191.774  0.00  0.00    -0.060 C 
ATOM     81  H   UNL     1     148.970 171.549 192.100  0.00  0.00    +0.023 HD
ATOM     82  H   UNL     1     147.380 171.003 192.652  0.00  0.00    +0.023 HD
ATOM     83  H   UNL     1     147.522 172.249 191.408  0.00  0.00    +0.023 HD
ENDBRANCH  78  80
BRANCH  78  84
ATOM     84  C   UNL     1     147.820 168.817 191.347  0.00  0.00    -0.045 C 
ATOM     85  H   UNL     1     146.761 168.650 191.541  0.00  0.00    +0.027 HD
ATOM     86  H   UNL     1     148.140 168.053 190.628  0.00  0.00    +0.027 HD
BRANCH  84  87
ATOM     87  C   UNL     1     148.591 168.619 192.652  0.00  0.00    -0.015 C 
ATOM     88  H   UNL     1     147.999 168.947 193.513  0.00  0.00    +0.030 HD
ATOM     89  H   UNL     1     149.471 169.279 192.650  0.00  0.00    +0.030 HD
BRANCH  87  90
ATOM     90  C   UNL     1     149.071 167.172 192.889  0.00  0.00    +0.109 C 
ATOM     91  H   UNL     1     149.095 167.004 193.972  0.00  0.00    +0.074 HD
BRANCH  90  92
ATOM     92  C   UNL     1     150.455 166.752 192.283  0.00  0.00    +0.031 C 
ATOM     93  H   UNL     1     151.019 167.690 192.188  0.00  0.00    +0.037 HD
BRANCH  92  94
ATOM     94  C   UNL     1     150.286 166.210 190.858  0.00  0.00    -0.056 C 
ATOM     95  H   UNL     1     149.344 166.508 190.396  0.00  0.00    +0.023 HD
ATOM     96  H   UNL     1     151.099 166.544 190.207  0.00  0.00    +0.023 HD
ATOM     97  H   UNL     1     150.322 165.118 190.853  0.00  0.00    +0.023 HD
ENDBRANCH  92  94
BRANCH  92  98
ATOM     98  C   UNL     1     151.287 165.825 193.223  0.00  0.00    +0.115 C 
ATOM     99  H   UNL     1     150.933 164.797 193.089  0.00  0.00    +0.074 HD
BRANCH  98 100
ATOM    100  C   UNL     1     152.837 165.825 193.051  0.00  0.00    +0.013 C 
ATOM    101  H   UNL     1     153.237 165.053 193.725  0.00  0.00    +0.038 HD
BRANCH 100 102
ATOM    102  C   UNL     1     153.510 167.117 193.529  0.00  0.00    -0.056 C 
ATOM    103  H   UNL     1     153.645 167.841 192.720  0.00  0.00    +0.024 HD
ATOM    104  H   UNL     1     152.918 167.594 194.315  0.00  0.00    +0.024 HD
ATOM    105  H   UNL     1     154.501 166.904 193.946  0.00  0.00    +0.024 HD
ENDBRANCH 100 102
BRANCH 100 106
ATOM    106  C   UNL     1     153.280 165.449 191.652  0.00  0.00    -0.064 C 
ATOM    107  C   UNL     1     154.271 166.104 191.027  0.00  0.00    -0.005 C 
ATOM    108  H   UNL     1     152.755 164.627 191.181  0.00  0.00    +0.059 HD
ATOM    109  H   UNL     1     154.762 166.927 191.554  0.00  0.00    +0.078 HD
BRANCH 107 110
ATOM    110  N   UNL     1     154.783 165.860 189.762  0.00  0.00    -0.284 N 
ATOM    111  C   UNL     1     154.408 166.526 188.604  0.00  0.00    +0.206 C 
ATOM    112  O   UNL     1     154.847 166.322 187.474  0.00  0.00    -0.279 OA
ATOM    113  H   UNL     1     153.635 167.290 188.759  0.00  0.00    +0.126 HD
BRANCH 110 114
ATOM    114  C   UNL     1     155.776 164.795 189.643  0.00  0.00    +0.007 C 
ATOM    115  H   UNL     1     155.359 163.818 189.898  0.00  0.00    +0.043 HD
ATOM    116  H   UNL     1     156.150 164.758 188.616  0.00  0.00    +0.043 HD
ATOM    117  H   UNL     1     156.603 165.013 190.325  0.00  0.00    +0.043 HD
ENDBRANCH 110 114
ENDBRANCH 107 110
ENDBRANCH 100 106
ENDBRANCH  98 100
BRANCH  98 118
ATOM    118  O   UNL     1     151.005 166.232 194.591  0.00  0.00    -0.461 OA
BRANCH 118 119
ATOM    119  C   UNL     1     150.512 165.280 195.430  0.00  0.00    +0.304 C 
ATOM    120  O   UNL     1     150.722 164.080 195.343  0.00  0.00    -0.251 OA
BRANCH 119 121
ATOM    121  C   UNL     1     149.668 165.921 196.490  0.00  0.00    +0.033 C 
ATOM    122  H   UNL     1     150.215 166.748 196.946  0.00  0.00    +0.034 HD
ATOM    123  H   UNL     1     149.444 165.184 197.267  0.00  0.00    +0.034 HD
ATOM    124  H   UNL     1     148.728 166.271 196.058  0.00  0.00    +0.034 HD
ENDBRANCH 119 121
ENDBRANCH 118 119
ENDBRANCH  98 118
ENDBRANCH  92  98
ENDBRANCH  90  92
BRANCH  90 125
ATOM    125  O   UNL     1     148.081 166.305 192.275  0.00  0.00    -0.459 OA
BRANCH 125 126
ATOM    126  C   UNL     1     147.238 165.617 193.106  0.00  0.00    +0.339 C 
ATOM    127  O   UNL     1     147.587 164.754 193.902  0.00  0.00    -0.248 OA
BRANCH 126 128
ATOM    128  C   UNL     1     145.800 166.138 192.912  0.00  0.00    +0.178 C 
ATOM    129  H   UNL     1     145.857 167.233 192.818  0.00  0.00    +0.074 HD
BRANCH 128 130
ATOM    130  C   UNL     1     145.239 165.571 191.596  0.00  0.00    +0.084 C 
ATOM    131  H   UNL     1     144.177 165.318 191.699  0.00  0.00    +0.059 HD
ATOM    132  H   UNL     1     145.788 164.659 191.335  0.00  0.00    +0.059 HD
BRANCH 130 133
ATOM    133  O   UNL     1     145.380 166.519 190.531  0.00  0.00    -0.380 OA
BRANCH 133 134
ATOM    134  C   UNL     1     145.822 165.906 189.329  0.00  0.00    +0.037 C 
ATOM    135  H   UNL     1     146.025 164.844 189.495  0.00  0.00    +0.052 HD
ATOM    136  H   UNL     1     145.076 166.028 188.537  0.00  0.00    +0.052 HD
ATOM    137  H   UNL     1     146.750 166.394 189.016  0.00  0.00    +0.052 HD
ENDBRANCH 133 134
ENDBRANCH 130 133
ENDBRANCH 128 130
BRANCH 128 138
ATOM    138  O   UNL     1     144.850 165.839 193.939  0.00  0.00    -0.366 OA
BRANCH 138 139
ATOM    139  C   UNL     1     143.523 166.218 193.609  0.00  0.00    +0.038 C 
ATOM    140  H   UNL     1     142.828 165.960 194.416  0.00  0.00    +0.052 HD
ATOM    141  H   UNL     1     143.205 165.752 192.673  0.00  0.00    +0.052 HD
ATOM    142  H   UNL     1     143.503 167.303 193.471  0.00  0.00    +0.052 HD
ENDBRANCH 138 139
ENDBRANCH 128 138
ENDBRANCH 126 128
ENDBRANCH 125 126
ENDBRANCH  90 125
ENDBRANCH  87  90
ENDBRANCH  84  87
ENDBRANCH  78  84
ENDBRANCH  76  78
BRANCH  76 143
ATOM    143  O   UNL     1     146.772 169.194 188.862  0.00  0.00    -0.379 OA
BRANCH 143 144
ATOM    144  C   UNL     1     146.822 169.433 187.463  0.00  0.00    +0.037 C 
ATOM    145  H   UNL     1     145.796 169.457 187.083  0.00  0.00    +0.052 HD
ATOM    146  H   UNL     1     147.293 170.397 187.250  0.00  0.00    +0.052 HD
ATOM    147  H   UNL     1     147.360 168.624 186.956  0.00  0.00    +0.052 HD
ENDBRANCH 143 144
ENDBRANCH  76 143
ENDBRANCH   1  76
TORSDOF 35
ENDMDL
MODEL 10
REMARK VINA RESULT:      -4.4      2.313      8.029
REMARK  Name = Mycalolide B_conf1
REMARK  35 active torsions:
REMARK  status: ('A' for Active; 'I' for Inactive)
REMARK    1  A    between atoms: C_1  and  C_2
REMARK    2  A    between atoms: C_3  and  O_72
REMARK    3  A    between atoms: C_22  and  O_70
REMARK    4  A    between atoms: C_23  and  C_69
REMARK    5  A    between atoms: C_29  and  O_68
REMARK    6  A    between atoms: C_34  and  C_35
REMARK    7  A    between atoms: C_35  and  C_36
REMARK    8  A    between atoms: C_36  and  C_37
REMARK    9  A    between atoms: C_36  and  O_66
REMARK   10  A    between atoms: C_37  and  C_38
REMARK   11  A    between atoms: C_37  and  C_39
REMARK   12  A    between atoms: C_39  and  C_40
REMARK   13  A    between atoms: C_40  and  C_41
REMARK   14  A    between atoms: C_41  and  C_42
REMARK   15  A    between atoms: C_41  and  O_57
REMARK   16  A    between atoms: C_42  and  C_43
REMARK   17  A    between atoms: C_42  and  C_44
REMARK   18  A    between atoms: C_44  and  C_45
REMARK   19  A    between atoms: C_44  and  O_53
REMARK   20  A    between atoms: C_45  and  C_46
REMARK   21  A    between atoms: C_45  and  C_47
REMARK   22  A    between atoms: C_48  and  N_49
REMARK   23  A    between atoms: N_49  and  C_50
REMARK   24  A    between atoms: O_53  and  C_54
REMARK   25  A    between atoms: C_54  and  C_56
REMARK   26  A    between atoms: O_57  and  C_58
REMARK   27  A    between atoms: C_58  and  C_60
REMARK   28  A    between atoms: C_60  and  C_61
REMARK   29  A    between atoms: C_60  and  O_64
REMARK   30  A    between atoms: C_61  and  O_62
REMARK   31  A    between atoms: O_62  and  C_63
REMARK   32  A    between atoms: O_64  and  C_65
REMARK   33  A    between atoms: O_66  and  C_67
REMARK   34  A    between atoms: O_70  and  C_71
REMARK   35  A    between atoms: O_72  and  C_73
REMARK                            x       y       z     vdW  Elec       q    Type
REMARK                         _______ _______ _______ _____ _____    ______ ____
ROOT
ATOM      1  C   UNL     1     143.307 165.809 188.644  0.00  0.00    +0.011 C 
ATOM      2  H   UNL     1     142.753 166.749 188.766  0.00  0.00    +0.033 HD
ATOM      3  H   UNL     1     142.549 165.022 188.720  0.00  0.00    +0.033 HD
ENDROOT
BRANCH   1  36
ATOM      4  C   UNL     1     143.032 166.237 186.097  0.00  0.00    +0.020 C 
ATOM      5  C   UNL     1     142.272 165.117 185.325  0.00  0.00    +0.068 C 
ATOM      6  C   UNL     1     141.386 164.144 186.153  0.00  0.00    -0.008 C 
ATOM      7  C   UNL     1     142.133 163.080 186.908  0.00  0.00    -0.077 C 
ATOM      8  C   UNL     1     141.665 162.389 187.960  0.00  0.00    -0.003 C 
ATOM      9  C   UNL     1     142.499 161.429 188.602  0.00  0.00    +0.220 A 
ATOM     10  N   UNL     1     143.815 161.347 188.474  0.00  0.00    -0.205 NA
ATOM     11  C   UNL     1     144.200 160.285 189.250  0.00  0.00    +0.164 A 
ATOM     12  C   UNL     1     143.101 159.748 189.863  0.00  0.00    +0.125 A 
ATOM     13  O   UNL     1     142.013 160.474 189.480  0.00  0.00    -0.443 OA
ATOM     14  C   UNL     1     145.672 159.793 189.383  0.00  0.00    +0.250 A 
ATOM     15  N   UNL     1     146.677 160.397 188.779  0.00  0.00    -0.203 NA
ATOM     16  C   UNL     1     147.782 159.664 189.129  0.00  0.00    +0.164 A 
ATOM     17  C   UNL     1     147.409 158.626 189.943  0.00  0.00    +0.125 A 
ATOM     18  O   UNL     1     146.059 158.698 190.124  0.00  0.00    -0.442 OA
ATOM     19  C   UNL     1     149.238 159.972 188.662  0.00  0.00    +0.249 A 
ATOM     20  N   UNL     1     149.547 161.001 187.889  0.00  0.00    -0.210 NA
ATOM     21  C   UNL     1     150.914 160.936 187.738  0.00  0.00    +0.109 A 
ATOM     22  C   UNL     1     151.387 159.842 188.428  0.00  0.00    +0.118 A 
ATOM     23  O   UNL     1     150.332 159.216 189.018  0.00  0.00    -0.442 OA
ATOM     24  C   UNL     1     151.668 161.987 186.978  0.00  0.00    +0.113 C 
ATOM     25  C   UNL     1     151.301 163.400 187.482  0.00  0.00    +0.051 C 
ATOM     26  C   UNL     1     152.137 164.427 186.731  0.00  0.00    +0.161 C 
ATOM     27  O   UNL     1     153.349 164.287 186.566  0.00  0.00    -0.292 OA
ATOM     28  C   UNL     1     151.503 165.680 186.223  0.00  0.00    -0.023 C 
ATOM     29  C   UNL     1     150.380 166.225 186.721  0.00  0.00    -0.078 C 
ATOM     30  C   UNL     1     149.790 167.514 186.213  0.00  0.00    -0.008 C 
ATOM     31  C   UNL     1     148.337 167.371 185.722  0.00  0.00    +0.069 C 
ATOM     32  C   UNL     1     147.334 167.253 186.876  0.00  0.00    +0.071 C 
ATOM     33  C   UNL     1     146.164 166.372 186.507  0.00  0.00    +0.310 C 
ATOM     34  O   UNL     1     146.192 165.485 185.668  0.00  0.00    -0.251 OA
ATOM     35  O   UNL     1     145.104 166.659 187.314  0.00  0.00    -0.461 OA
ATOM     36  C   UNL     1     143.965 165.757 187.250  0.00  0.00    +0.110 C 
ATOM     37  H   UNL     1     143.685 166.728 185.364  0.00  0.00    +0.036 HD
ATOM     38  H   UNL     1     141.587 165.611 184.622  0.00  0.00    +0.060 HD
ATOM     39  H   UNL     1     140.722 164.706 186.817  0.00  0.00    +0.033 HD
ATOM     40  H   UNL     1     140.746 163.612 185.435  0.00  0.00    +0.033 HD
ATOM     41  H   UNL     1     143.132 162.843 186.529  0.00  0.00    +0.057 HD
ATOM     42  H   UNL     1     140.662 162.537 188.341  0.00  0.00    +0.067 HD
ATOM     43  H   UNL     1     142.926 158.930 190.545  0.00  0.00    +0.105 HD
ATOM     44  H   UNL     1     147.926 157.821 190.437  0.00  0.00    +0.105 HD
ATOM     45  H   UNL     1     152.361 159.409 188.604  0.00  0.00    +0.105 HD
ATOM     46  H   UNL     1     152.747 161.825 187.098  0.00  0.00    +0.067 HD
ATOM     47  H   UNL     1     150.241 163.580 187.272  0.00  0.00    +0.041 HD
ATOM     48  H   UNL     1     152.063 166.163 185.428  0.00  0.00    +0.065 HD
ATOM     49  H   UNL     1     149.857 165.754 187.550  0.00  0.00    +0.057 HD
ATOM     50  H   UNL     1     149.836 168.267 187.009  0.00  0.00    +0.033 HD
ATOM     51  H   UNL     1     150.406 167.915 185.398  0.00  0.00    +0.033 HD
ATOM     52  H   UNL     1     148.272 166.523 185.030  0.00  0.00    +0.060 HD
ATOM     53  H   UNL     1     146.956 168.245 187.148  0.00  0.00    +0.040 HD
ATOM     54  H   UNL     1     147.784 166.795 187.763  0.00  0.00    +0.040 HD
ATOM     55  H   UNL     1     144.338 164.747 187.061  0.00  0.00    +0.074 HD
BRANCH   4  56
ATOM     56  C   UNL     1     142.058 167.348 186.521  0.00  0.00    -0.057 C 
ATOM     57  H   UNL     1     142.104 167.559 187.594  0.00  0.00    +0.023 HD
ATOM     58  H   UNL     1     142.262 168.276 185.977  0.00  0.00    +0.023 HD
ATOM     59  H   UNL     1     141.024 167.060 186.292  0.00  0.00    +0.023 HD
ENDBRANCH   4  56
BRANCH  25  60
ATOM     60  C   UNL     1     151.572 163.589 188.978  0.00  0.00    -0.053 C 
ATOM     61  H   UNL     1     150.958 164.394 189.397  0.00  0.00    +0.024 HD
ATOM     62  H   UNL     1     152.619 163.849 189.155  0.00  0.00    +0.024 HD
ATOM     63  H   UNL     1     151.345 162.679 189.541  0.00  0.00    +0.024 HD
ENDBRANCH  25  60
BRANCH  31  64
ATOM     64  O   UNL     1     147.999 168.549 184.977  0.00  0.00    -0.391 OA
ATOM     65  H   UNL     1     147.220 168.335 184.428  0.00  0.00    +0.210 HD
ENDBRANCH  31  64
BRANCH  24  66
ATOM     66  O   UNL     1     151.345 161.944 185.574  0.00  0.00    -0.373 OA
BRANCH  66  67
ATOM     67  C   UNL     1     152.198 161.083 184.832  0.00  0.00    +0.037 C 
ATOM     68  H   UNL     1     151.669 160.637 183.986  0.00  0.00    +0.052 HD
ATOM     69  H   UNL     1     152.607 160.301 185.480  0.00  0.00    +0.052 HD
ATOM     70  H   UNL     1     153.029 161.676 184.444  0.00  0.00    +0.052 HD
ENDBRANCH  66  67
ENDBRANCH  24  66
BRANCH   5  71
ATOM     71  O   UNL     1     143.165 164.304 184.545  0.00  0.00    -0.379 OA
BRANCH  71  72
ATOM     72  C   UNL     1     142.687 163.962 183.254  0.00  0.00    +0.037 C 
ATOM     73  H   UNL     1     142.425 162.898 183.257  0.00  0.00    +0.052 HD
ATOM     74  H   UNL     1     141.789 164.536 183.004  0.00  0.00    +0.052 HD
ATOM     75  H   UNL     1     143.451 164.113 182.490  0.00  0.00    +0.052 HD
ENDBRANCH  71  72
ENDBRANCH   5  71
ENDBRANCH   1  36
BRANCH   1  76
ATOM     76  C   UNL     1     144.253 165.648 189.853  0.00  0.00    +0.064 C 
ATOM     77  H   UNL     1     145.158 166.241 189.671  0.00  0.00    +0.060 HD
BRANCH  76  78
ATOM     78  C   UNL     1     143.698 166.062 191.247  0.00  0.00    -0.017 C 
ATOM     79  H   UNL     1     143.530 167.144 191.252  0.00  0.00    +0.032 HD
BRANCH  78  80
ATOM     80  C   UNL     1     142.378 165.350 191.587  0.00  0.00    -0.060 C 
ATOM     81  H   UNL     1     141.874 165.006 190.679  0.00  0.00    +0.023 HD
ATOM     82  H   UNL     1     141.693 166.016 192.121  0.00  0.00    +0.023 HD
ATOM     83  H   UNL     1     142.534 164.464 192.207  0.00  0.00    +0.023 HD
ENDBRANCH  78  80
BRANCH  78  84
ATOM     84  C   UNL     1     144.773 165.746 192.319  0.00  0.00    -0.045 C 
ATOM     85  H   UNL     1     144.280 165.215 193.133  0.00  0.00    +0.027 HD
ATOM     86  H   UNL     1     145.516 165.061 191.892  0.00  0.00    +0.027 HD
BRANCH  84  87
ATOM     87  C   UNL     1     145.500 166.960 192.900  0.00  0.00    -0.015 C 
ATOM     88  H   UNL     1     145.482 166.942 193.995  0.00  0.00    +0.030 HD
ATOM     89  H   UNL     1     144.948 167.870 192.626  0.00  0.00    +0.030 HD
BRANCH  87  90
ATOM     90  C   UNL     1     146.958 167.113 192.420  0.00  0.00    +0.109 C 
ATOM     91  H   UNL     1     147.385 167.985 192.929  0.00  0.00    +0.074 HD
BRANCH  90  92
ATOM     92  C   UNL     1     147.208 167.257 190.879  0.00  0.00    +0.031 C 
ATOM     93  H   UNL     1     146.332 166.794 190.404  0.00  0.00    +0.037 HD
BRANCH  92  94
ATOM     94  C   UNL     1     148.419 166.424 190.441  0.00  0.00    -0.056 C 
ATOM     95  H   UNL     1     148.979 166.010 191.280  0.00  0.00    +0.023 HD
ATOM     96  H   UNL     1     148.119 165.593 189.795  0.00  0.00    +0.023 HD
ATOM     97  H   UNL     1     149.113 167.030 189.852  0.00  0.00    +0.023 HD
ENDBRANCH  92  94
BRANCH  92  98
ATOM     98  C   UNL     1     147.246 168.740 190.393  0.00  0.00    +0.115 C 
ATOM     99  H   UNL     1     148.185 168.898 189.852  0.00  0.00    +0.074 HD
BRANCH  98 100
ATOM    100  C   UNL     1     146.078 169.232 189.484  0.00  0.00    +0.013 C 
ATOM    101  H   UNL     1     145.881 168.436 188.752  0.00  0.00    +0.038 HD
BRANCH 100 102
ATOM    102  C   UNL     1     146.439 170.446 188.620  0.00  0.00    -0.056 C 
ATOM    103  H   UNL     1     147.286 171.009 189.024  0.00  0.00    +0.024 HD
ATOM    104  H   UNL     1     146.693 170.136 187.603  0.00  0.00    +0.024 HD
ATOM    105  H   UNL     1     145.590 171.137 188.553  0.00  0.00    +0.024 HD
ENDBRANCH 100 102
BRANCH 100 106
ATOM    106  C   UNL     1     144.785 169.452 190.243  0.00  0.00    -0.064 C 
ATOM    107  C   UNL     1     143.591 169.356 189.641  0.00  0.00    -0.005 C 
ATOM    108  H   UNL     1     144.876 169.693 191.295  0.00  0.00    +0.059 HD
ATOM    109  H   UNL     1     143.564 169.111 188.576  0.00  0.00    +0.078 HD
BRANCH 107 110
ATOM    110  N   UNL     1     142.337 169.518 190.213  0.00  0.00    -0.284 N 
ATOM    111  C   UNL     1     141.130 169.254 189.583  0.00  0.00    +0.206 C 
ATOM    112  O   UNL     1     140.010 169.394 190.071  0.00  0.00    -0.279 OA
ATOM    113  H   UNL     1     141.234 168.900 188.549  0.00  0.00    +0.126 HD
BRANCH 110 114
ATOM    114  C   UNL     1     142.294 170.035 191.578  0.00  0.00    +0.007 C 
ATOM    115  H   UNL     1     141.654 170.917 191.661  0.00  0.00    +0.043 HD
ATOM    116  H   UNL     1     141.910 169.262 192.249  0.00  0.00    +0.043 HD
ATOM    117  H   UNL     1     143.309 170.308 191.879  0.00  0.00    +0.043 HD
ENDBRANCH 110 114
ENDBRANCH 107 110
ENDBRANCH 100 106
ENDBRANCH  98 100
BRANCH  98 118
ATOM    118  O   UNL     1     147.254 169.582 191.579  0.00  0.00    -0.461 OA
BRANCH 118 119
ATOM    119  C   UNL     1     148.248 170.507 191.674  0.00  0.00    +0.304 C 
ATOM    120  O   UNL     1     148.127 171.703 191.464  0.00  0.00    -0.251 OA
BRANCH 119 121
ATOM    121  C   UNL     1     149.527 169.841 192.083  0.00  0.00    +0.033 C 
ATOM    122  H   UNL     1     149.741 170.064 193.130  0.00  0.00    +0.034 HD
ATOM    123  H   UNL     1     150.347 170.228 191.472  0.00  0.00    +0.034 HD
ATOM    124  H   UNL     1     149.453 168.762 191.926  0.00  0.00    +0.034 HD
ENDBRANCH 119 121
ENDBRANCH 118 119
ENDBRANCH  98 118
ENDBRANCH  92  98
ENDBRANCH  90  92
BRANCH  90 125
ATOM    125  O   UNL     1     147.655 165.907 192.831  0.00  0.00    -0.459 OA
BRANCH 125 126
ATOM    126  C   UNL     1     148.190 165.884 194.092  0.00  0.00    +0.339 C 
ATOM    127  O   UNL     1     147.607 166.236 195.109  0.00  0.00    -0.248 OA
BRANCH 126 128
ATOM    128  C   UNL     1     149.616 165.300 194.024  0.00  0.00    +0.178 C 
ATOM    129  H   UNL     1     149.680 164.695 193.108  0.00  0.00    +0.074 HD
BRANCH 128 130
ATOM    130  C   UNL     1     150.622 166.459 193.907  0.00  0.00    +0.084 C 
ATOM    131  H   UNL     1     151.491 166.290 194.553  0.00  0.00    +0.059 HD
ATOM    132  H   UNL     1     150.135 167.390 194.217  0.00  0.00    +0.059 HD
BRANCH 130 133
ATOM    133  O   UNL     1     151.081 166.600 192.556  0.00  0.00    -0.380 OA
BRANCH 133 134
ATOM    134  C   UNL     1     152.248 165.830 192.308  0.00  0.00    +0.037 C 
ATOM    135  H   UNL     1     152.870 166.315 191.550  0.00  0.00    +0.052 HD
ATOM    136  H   UNL     1     152.819 165.688 193.231  0.00  0.00    +0.052 HD
ATOM    137  H   UNL     1     151.938 164.850 191.931  0.00  0.00    +0.052 HD
ENDBRANCH 133 134
ENDBRANCH 130 133
ENDBRANCH 128 130
BRANCH 128 138
ATOM    138  O   UNL     1     150.041 164.481 195.117  0.00  0.00    -0.366 OA
BRANCH 138 139
ATOM    139  C   UNL     1     150.678 165.210 196.155  0.00  0.00    +0.038 C 
ATOM    140  H   UNL     1     151.761 165.253 195.996  0.00  0.00    +0.052 HD
ATOM    141  H   UNL     1     150.455 164.774 197.132  0.00  0.00    +0.052 HD
ATOM    142  H   UNL     1     150.287 166.232 196.143  0.00  0.00    +0.052 HD
ENDBRANCH 138 139
ENDBRANCH 128 138
ENDBRANCH 126 128
ENDBRANCH 125 126
ENDBRANCH  90 125
ENDBRANCH  87  90
ENDBRANCH  84  87
ENDBRANCH  78  84
ENDBRANCH  76  78
BRANCH  76 143
ATOM    143  O   UNL     1     144.601 164.249 189.938  0.00  0.00    -0.379 OA
BRANCH 143 144
ATOM    144  C   UNL     1     145.902 163.954 189.450  0.00  0.00    +0.037 C 
ATOM    145  H   UNL     1     146.621 164.566 190.002  0.00  0.00    +0.052 HD
ATOM    146  H   UNL     1     146.148 162.900 189.611  0.00  0.00    +0.052 HD
ATOM    147  H   UNL     1     145.978 164.206 188.386  0.00  0.00    +0.052 HD
ENDBRANCH 143 144
ENDBRANCH  76 143
ENDBRANCH   1  76
TORSDOF 35
ENDMDL
