MODEL 1
REMARK VINA RESULT:      -6.1      0.000      0.000
REMARK  Name = Mycalolide B_conf3
REMARK  35 active torsions:
REMARK  status: ('A' for Active; 'I' for Inactive)
REMARK    1  A    between atoms: C_1  and  C_2
REMARK    2  A    between atoms: C_3  and  O_72
REMARK    3  A    between atoms: C_22  and  O_70
REMARK    4  A    between atoms: C_23  and  C_69
REMARK    5  A    between atoms: C_29  and  O_68
REMARK    6  A    between atoms: C_34  and  C_35
REMARK    7  A    between atoms: C_35  and  C_36
REMARK    8  A    between atoms: C_36  and  C_37
REMARK    9  A    between atoms: C_36  and  O_66
REMARK   10  A    between atoms: C_37  and  C_38
REMARK   11  A    between atoms: C_37  and  C_39
REMARK   12  A    between atoms: C_39  and  C_40
REMARK   13  A    between atoms: C_40  and  C_41
REMARK   14  A    between atoms: C_41  and  C_42
REMARK   15  A    between atoms: C_41  and  O_57
REMARK   16  A    between atoms: C_42  and  C_43
REMARK   17  A    between atoms: C_42  and  C_44
REMARK   18  A    between atoms: C_44  and  C_45
REMARK   19  A    between atoms: C_44  and  O_53
REMARK   20  A    between atoms: C_45  and  C_46
REMARK   21  A    between atoms: C_45  and  C_47
REMARK   22  A    between atoms: C_48  and  N_49
REMARK   23  A    between atoms: N_49  and  C_50
REMARK   24  A    between atoms: O_53  and  C_54
REMARK   25  A    between atoms: C_54  and  C_56
REMARK   26  A    between atoms: O_57  and  C_58
REMARK   27  A    between atoms: C_58  and  C_60
REMARK   28  A    between atoms: C_60  and  C_61
REMARK   29  A    between atoms: C_60  and  O_64
REMARK   30  A    between atoms: C_61  and  O_62
REMARK   31  A    between atoms: O_62  and  C_63
REMARK   32  A    between atoms: O_64  and  C_65
REMARK   33  A    between atoms: O_66  and  C_67
REMARK   34  A    between atoms: O_70  and  C_71
REMARK   35  A    between atoms: O_72  and  C_73
REMARK                            x       y       z     vdW  Elec       q    Type
REMARK                         _______ _______ _______ _____ _____    ______ ____
ROOT
ATOM      1  C   UNL     1     153.196 164.694 188.188  0.00  0.00    +0.011 C 
ATOM      2  H   UNL     1     152.916 163.815 188.778  0.00  0.00    +0.033 HD
ATOM      3  H   UNL     1     152.362 164.931 187.517  0.00  0.00    +0.033 HD
ENDROOT
BRANCH   1  36
ATOM      4  C   UNL     1     154.810 162.857 187.318  0.00  0.00    +0.020 C 
ATOM      5  C   UNL     1     155.339 162.304 188.673  0.00  0.00    +0.068 C 
ATOM      6  C   UNL     1     156.504 163.108 189.306  0.00  0.00    -0.008 C 
ATOM      7  C   UNL     1     157.567 163.609 188.366  0.00  0.00    -0.077 C 
ATOM      8  C   UNL     1     158.367 162.846 187.605  0.00  0.00    -0.003 C 
ATOM      9  C   UNL     1     159.321 163.464 186.747  0.00  0.00    +0.220 A 
ATOM     10  N   UNL     1     159.245 164.697 186.257  0.00  0.00    -0.205 NA
ATOM     11  C   UNL     1     160.439 164.908 185.617  0.00  0.00    +0.164 A 
ATOM     12  C   UNL     1     161.204 163.778 185.680  0.00  0.00    +0.125 A 
ATOM     13  O   UNL     1     160.495 162.832 186.356  0.00  0.00    -0.443 OA
ATOM     14  C   UNL     1     160.847 166.260 184.968  0.00  0.00    +0.250 A 
ATOM     15  N   UNL     1     160.013 167.281 184.855  0.00  0.00    -0.203 NA
ATOM     16  C   UNL     1     160.785 168.291 184.337  0.00  0.00    +0.164 A 
ATOM     17  C   UNL     1     162.054 167.835 184.107  0.00  0.00    +0.125 A 
ATOM     18  O   UNL     1     162.107 166.526 184.484  0.00  0.00    -0.442 OA
ATOM     19  C   UNL     1     160.278 169.733 184.039  0.00  0.00    +0.249 A 
ATOM     20  N   UNL     1     159.011 170.095 184.154  0.00  0.00    -0.210 NA
ATOM     21  C   UNL     1     158.977 171.404 183.722  0.00  0.00    +0.109 A 
ATOM     22  C   UNL     1     160.256 171.810 183.438  0.00  0.00    +0.118 A 
ATOM     23  O   UNL     1     161.093 170.745 183.588  0.00  0.00    -0.442 OA
ATOM     24  C   UNL     1     157.685 172.163 183.620  0.00  0.00    +0.113 C 
ATOM     25  C   UNL     1     156.993 172.047 182.246  0.00  0.00    +0.051 C 
ATOM     26  C   UNL     1     156.072 170.841 182.188  0.00  0.00    +0.161 C 
ATOM     27  O   UNL     1     154.849 170.993 182.204  0.00  0.00    -0.292 OA
ATOM     28  C   UNL     1     156.663 169.472 182.147  0.00  0.00    -0.023 C 
ATOM     29  C   UNL     1     155.880 168.388 182.271  0.00  0.00    -0.078 C 
ATOM     30  C   UNL     1     156.417 166.988 182.380  0.00  0.00    -0.008 C 
ATOM     31  C   UNL     1     156.218 166.394 183.784  0.00  0.00    +0.069 C 
ATOM     32  C   UNL     1     154.754 166.080 184.086  0.00  0.00    +0.071 C 
ATOM     33  C   UNL     1     154.600 165.981 185.576  0.00  0.00    +0.310 C 
ATOM     34  O   UNL     1     154.827 166.918 186.329  0.00  0.00    -0.251 OA
ATOM     35  O   UNL     1     154.222 164.735 185.954  0.00  0.00    -0.461 OA
ATOM     36  C   UNL     1     154.443 164.367 187.341  0.00  0.00    +0.110 C 
ATOM     37  H   UNL     1     155.602 162.717 186.565  0.00  0.00    +0.036 HD
ATOM     38  H   UNL     1     154.508 162.287 189.390  0.00  0.00    +0.060 HD
ATOM     39  H   UNL     1     156.079 163.980 189.812  0.00  0.00    +0.033 HD
ATOM     40  H   UNL     1     156.995 162.522 190.090  0.00  0.00    +0.033 HD
ATOM     41  H   UNL     1     157.665 164.696 188.313  0.00  0.00    +0.057 HD
ATOM     42  H   UNL     1     158.324 161.766 187.638  0.00  0.00    +0.067 HD
ATOM     43  H   UNL     1     162.180 163.485 185.324  0.00  0.00    +0.105 HD
ATOM     44  H   UNL     1     162.968 168.269 183.720  0.00  0.00    +0.105 HD
ATOM     45  H   UNL     1     160.695 172.735 183.087  0.00  0.00    +0.105 HD
ATOM     46  H   UNL     1     157.024 171.755 184.397  0.00  0.00    +0.067 HD
ATOM     47  H   UNL     1     156.320 172.913 182.148  0.00  0.00    +0.041 HD
ATOM     48  H   UNL     1     157.739 169.381 182.086  0.00  0.00    +0.065 HD
ATOM     49  H   UNL     1     154.801 168.512 182.333  0.00  0.00    +0.057 HD
ATOM     50  H   UNL     1     155.937 166.350 181.628  0.00  0.00    +0.033 HD
ATOM     51  H   UNL     1     157.488 166.970 182.138  0.00  0.00    +0.033 HD
ATOM     52  H   UNL     1     156.639 167.082 184.529  0.00  0.00    +0.060 HD
ATOM     53  H   UNL     1     154.066 166.870 183.761  0.00  0.00    +0.040 HD
ATOM     54  H   UNL     1     154.435 165.143 183.610  0.00  0.00    +0.040 HD
ATOM     55  H   UNL     1     155.320 164.913 187.693  0.00  0.00    +0.074 HD
BRANCH   4  56
ATOM     56  C   UNL     1     153.639 162.003 186.799  0.00  0.00    -0.057 C 
ATOM     57  H   UNL     1     153.435 162.213 185.745  0.00  0.00    +0.023 HD
ATOM     58  H   UNL     1     152.725 162.197 187.364  0.00  0.00    +0.023 HD
ATOM     59  H   UNL     1     153.861 160.934 186.875  0.00  0.00    +0.023 HD
ENDBRANCH   4  56
BRANCH  25  60
ATOM     60  C   UNL     1     157.912 172.136 181.029  0.00  0.00    -0.053 C 
ATOM     61  H   UNL     1     158.888 171.668 181.199  0.00  0.00    +0.024 HD
ATOM     62  H   UNL     1     158.073 173.180 180.739  0.00  0.00    +0.024 HD
ATOM     63  H   UNL     1     157.454 171.616 180.176  0.00  0.00    +0.024 HD
ENDBRANCH  25  60
BRANCH  31  64
ATOM     64  O   UNL     1     156.957 165.171 183.866  0.00  0.00    -0.391 OA
ATOM     65  H   UNL     1     157.166 165.031 184.814  0.00  0.00    +0.210 HD
ENDBRANCH  31  64
BRANCH  24  66
ATOM     66  O   UNL     1     157.923 173.557 183.901  0.00  0.00    -0.373 OA
BRANCH  66  67
ATOM     67  C   UNL     1     156.758 174.350 183.700  0.00  0.00    +0.037 C 
ATOM     68  H   UNL     1     157.023 175.396 183.514  0.00  0.00    +0.052 HD
ATOM     69  H   UNL     1     156.170 173.959 182.863  0.00  0.00    +0.052 HD
ATOM     70  H   UNL     1     156.149 174.301 184.606  0.00  0.00    +0.052 HD
ENDBRANCH  66  67
ENDBRANCH  24  66
BRANCH   5  71
ATOM     71  O   UNL     1     155.771 160.943 188.457  0.00  0.00    -0.379 OA
BRANCH  71  72
ATOM     72  C   UNL     1     156.273 160.332 189.640  0.00  0.00    +0.037 C 
ATOM     73  H   UNL     1     155.824 160.764 190.538  0.00  0.00    +0.052 HD
ATOM     74  H   UNL     1     157.354 160.500 189.675  0.00  0.00    +0.052 HD
ATOM     75  H   UNL     1     156.092 159.252 189.613  0.00  0.00    +0.052 HD
ENDBRANCH  71  72
ENDBRANCH   5  71
ENDBRANCH   1  36
BRANCH   1  76
ATOM     76  C   UNL     1     153.403 165.849 189.182  0.00  0.00    +0.064 C 
ATOM     77  H   UNL     1     154.237 166.477 188.854  0.00  0.00    +0.060 HD
BRANCH  76  78
ATOM     78  C   UNL     1     152.139 166.735 189.363  0.00  0.00    -0.017 C 
ATOM     79  H   UNL     1     152.421 167.578 189.996  0.00  0.00    +0.032 HD
BRANCH  78  80
ATOM     80  C   UNL     1     151.743 167.320 187.986  0.00  0.00    -0.060 C 
ATOM     81  H   UNL     1     150.952 168.071 188.093  0.00  0.00    +0.023 HD
ATOM     82  H   UNL     1     152.589 167.820 187.504  0.00  0.00    +0.023 HD
ATOM     83  H   UNL     1     151.376 166.534 187.318  0.00  0.00    +0.023 HD
ENDBRANCH  78  80
BRANCH  78  84
ATOM     84  C   UNL     1     150.884 166.051 189.932  0.00  0.00    -0.045 C 
ATOM     85  H   UNL     1     150.005 166.439 189.393  0.00  0.00    +0.027 HD
ATOM     86  H   UNL     1     150.915 164.978 189.680  0.00  0.00    +0.027 HD
BRANCH  84  87
ATOM     87  C   UNL     1     150.534 166.189 191.423  0.00  0.00    -0.015 C 
ATOM     88  H   UNL     1     150.174 165.192 191.700  0.00  0.00    +0.030 HD
ATOM     89  H   UNL     1     151.446 166.335 192.011  0.00  0.00    +0.030 HD
BRANCH  87  90
ATOM     90  C   UNL     1     149.475 167.222 191.878  0.00  0.00    +0.109 C 
ATOM     91  H   UNL     1     148.504 166.874 191.503  0.00  0.00    +0.074 HD
BRANCH  90  92
ATOM     92  C   UNL     1     149.792 168.651 191.307  0.00  0.00    +0.031 C 
ATOM     93  H   UNL     1     150.573 168.533 190.547  0.00  0.00    +0.037 HD
BRANCH  92  94
ATOM     94  C   UNL     1     150.443 169.567 192.362  0.00  0.00    -0.056 C 
ATOM     95  H   UNL     1     151.507 169.356 192.470  0.00  0.00    +0.023 HD
ATOM     96  H   UNL     1     149.957 169.464 193.336  0.00  0.00    +0.023 HD
ATOM     97  H   UNL     1     150.372 170.620 192.060  0.00  0.00    +0.023 HD
ENDBRANCH  92  94
BRANCH  92  98
ATOM     98  C   UNL     1     148.583 169.431 190.693  0.00  0.00    +0.115 C 
ATOM     99  H   UNL     1     148.971 170.134 189.942  0.00  0.00    +0.074 HD
BRANCH  98 100
ATOM    100  C   UNL     1     147.542 168.568 189.919  0.00  0.00    +0.013 C 
ATOM    101  H   UNL     1     147.905 167.542 189.825  0.00  0.00    +0.038 HD
BRANCH 100 102
ATOM    102  C   UNL     1     147.274 169.118 188.511  0.00  0.00    -0.056 C 
ATOM    103  H   UNL     1     146.203 169.300 188.346  0.00  0.00    +0.024 HD
ATOM    104  H   UNL     1     147.802 170.068 188.344  0.00  0.00    +0.024 HD
ATOM    105  H   UNL     1     147.599 168.413 187.739  0.00  0.00    +0.024 HD
ENDBRANCH 100 102
BRANCH 100 106
ATOM    106  C   UNL     1     146.215 168.520 190.660  0.00  0.00    -0.064 C 
ATOM    107  C   UNL     1     145.355 167.496 190.569  0.00  0.00    -0.005 C 
ATOM    108  H   UNL     1     145.983 169.390 191.271  0.00  0.00    +0.059 HD
ATOM    109  H   UNL     1     145.615 166.663 189.916  0.00  0.00    +0.078 HD
BRANCH 107 110
ATOM    110  N   UNL     1     144.126 167.368 191.196  0.00  0.00    -0.284 N 
ATOM    111  C   UNL     1     142.922 167.899 190.730  0.00  0.00    +0.206 C 
ATOM    112  O   UNL     1     142.709 168.552 189.714  0.00  0.00    -0.279 OA
ATOM    113  H   UNL     1     142.083 167.674 191.410  0.00  0.00    +0.126 HD
BRANCH 110 114
ATOM    114  C   UNL     1     144.103 166.618 192.449  0.00  0.00    +0.007 C 
ATOM    115  H   UNL     1     145.064 166.104 192.573  0.00  0.00    +0.043 HD
ATOM    116  H   UNL     1     143.307 165.867 192.461  0.00  0.00    +0.043 HD
ATOM    117  H   UNL     1     143.946 167.310 193.282  0.00  0.00    +0.043 HD
ENDBRANCH 110 114
ENDBRANCH 107 110
ENDBRANCH 100 106
ENDBRANCH  98 100
BRANCH  98 118
ATOM    118  O   UNL     1     147.891 170.163 191.732  0.00  0.00    -0.461 OA
BRANCH 118 119
ATOM    119  C   UNL     1     147.740 171.504 191.528  0.00  0.00    +0.304 C 
ATOM    120  O   UNL     1     147.434 172.039 190.472  0.00  0.00    -0.251 OA
BRANCH 119 121
ATOM    121  C   UNL     1     148.041 172.261 192.786  0.00  0.00    +0.033 C 
ATOM    122  H   UNL     1     147.180 172.206 193.455  0.00  0.00    +0.034 HD
ATOM    123  H   UNL     1     148.282 173.300 192.547  0.00  0.00    +0.034 HD
ATOM    124  H   UNL     1     148.913 171.820 193.275  0.00  0.00    +0.034 HD
ENDBRANCH 119 121
ENDBRANCH 118 119
ENDBRANCH  98 118
ENDBRANCH  92  98
ENDBRANCH  90  92
BRANCH  90 125
ATOM    125  O   UNL     1     149.437 167.253 193.329  0.00  0.00    -0.459 OA
BRANCH 125 126
ATOM    126  C   UNL     1     148.224 166.971 193.912  0.00  0.00    +0.339 C 
ATOM    127  O   UNL     1     147.242 167.700 193.836  0.00  0.00    -0.248 OA
BRANCH 126 128
ATOM    128  C   UNL     1     148.248 165.677 194.743  0.00  0.00    +0.178 C 
ATOM    129  H   UNL     1     149.213 165.190 194.532  0.00  0.00    +0.074 HD
BRANCH 128 130
ATOM    130  C   UNL     1     148.202 166.031 196.231  0.00  0.00    +0.084 C 
ATOM    131  H   UNL     1     147.688 166.983 196.374  0.00  0.00    +0.059 HD
ATOM    132  H   UNL     1     147.616 165.275 196.767  0.00  0.00    +0.059 HD
BRANCH 130 133
ATOM    133  O   UNL     1     149.512 166.089 196.791  0.00  0.00    -0.380 OA
BRANCH 133 134
ATOM    134  C   UNL     1     150.303 164.978 196.392  0.00  0.00    +0.037 C 
ATOM    135  H   UNL     1     149.714 164.057 196.456  0.00  0.00    +0.052 HD
ATOM    136  H   UNL     1     150.607 165.126 195.352  0.00  0.00    +0.052 HD
ATOM    137  H   UNL     1     151.200 164.890 197.013  0.00  0.00    +0.052 HD
ENDBRANCH 133 134
ENDBRANCH 130 133
ENDBRANCH 128 130
BRANCH 128 138
ATOM    138  O   UNL     1     147.186 164.755 194.484  0.00  0.00    -0.366 OA
BRANCH 138 139
ATOM    139  C   UNL     1     146.017 165.055 195.234  0.00  0.00    +0.038 C 
ATOM    140  H   UNL     1     146.078 166.096 195.562  0.00  0.00    +0.052 HD
ATOM    141  H   UNL     1     145.958 164.417 196.122  0.00  0.00    +0.052 HD
ATOM    142  H   UNL     1     145.117 164.934 194.625  0.00  0.00    +0.052 HD
ENDBRANCH 138 139
ENDBRANCH 128 138
ENDBRANCH 126 128
ENDBRANCH 125 126
ENDBRANCH  90 125
ENDBRANCH  87  90
ENDBRANCH  84  87
ENDBRANCH  78  84
ENDBRANCH  76  78
BRANCH  76 143
ATOM    143  O   UNL     1     153.663 165.260 190.471  0.00  0.00    -0.379 OA
BRANCH 143 144
ATOM    144  C   UNL     1     154.300 166.140 191.389  0.00  0.00    +0.037 C 
ATOM    145  H   UNL     1     154.240 165.694 192.388  0.00  0.00    +0.052 HD
ATOM    146  H   UNL     1     153.818 167.124 191.418  0.00  0.00    +0.052 HD
ATOM    147  H   UNL     1     155.357 166.249 191.139  0.00  0.00    +0.052 HD
ENDBRANCH 143 144
ENDBRANCH  76 143
ENDBRANCH   1  76
TORSDOF 35
ENDMDL
MODEL 2
REMARK VINA RESULT:      -6.1      1.394      1.833
REMARK  Name = Mycalolide B_conf3
REMARK  35 active torsions:
REMARK  status: ('A' for Active; 'I' for Inactive)
REMARK    1  A    between atoms: C_1  and  C_2
REMARK    2  A    between atoms: C_3  and  O_72
REMARK    3  A    between atoms: C_22  and  O_70
REMARK    4  A    between atoms: C_23  and  C_69
REMARK    5  A    between atoms: C_29  and  O_68
REMARK    6  A    between atoms: C_34  and  C_35
REMARK    7  A    between atoms: C_35  and  C_36
REMARK    8  A    between atoms: C_36  and  C_37
REMARK    9  A    between atoms: C_36  and  O_66
REMARK   10  A    between atoms: C_37  and  C_38
REMARK   11  A    between atoms: C_37  and  C_39
REMARK   12  A    between atoms: C_39  and  C_40
REMARK   13  A    between atoms: C_40  and  C_41
REMARK   14  A    between atoms: C_41  and  C_42
REMARK   15  A    between atoms: C_41  and  O_57
REMARK   16  A    between atoms: C_42  and  C_43
REMARK   17  A    between atoms: C_42  and  C_44
REMARK   18  A    between atoms: C_44  and  C_45
REMARK   19  A    between atoms: C_44  and  O_53
REMARK   20  A    between atoms: C_45  and  C_46
REMARK   21  A    between atoms: C_45  and  C_47
REMARK   22  A    between atoms: C_48  and  N_49
REMARK   23  A    between atoms: N_49  and  C_50
REMARK   24  A    between atoms: O_53  and  C_54
REMARK   25  A    between atoms: C_54  and  C_56
REMARK   26  A    between atoms: O_57  and  C_58
REMARK   27  A    between atoms: C_58  and  C_60
REMARK   28  A    between atoms: C_60  and  C_61
REMARK   29  A    between atoms: C_60  and  O_64
REMARK   30  A    between atoms: C_61  and  O_62
REMARK   31  A    between atoms: O_62  and  C_63
REMARK   32  A    between atoms: O_64  and  C_65
REMARK   33  A    between atoms: O_66  and  C_67
REMARK   34  A    between atoms: O_70  and  C_71
REMARK   35  A    between atoms: O_72  and  C_73
REMARK                            x       y       z     vdW  Elec       q    Type
REMARK                         _______ _______ _______ _____ _____    ______ ____
ROOT
ATOM      1  C   UNL     1     152.489 164.485 187.944  0.00  0.00    +0.011 C 
ATOM      2  H   UNL     1     152.087 163.582 188.416  0.00  0.00    +0.033 HD
ATOM      3  H   UNL     1     151.755 164.840 187.212  0.00  0.00    +0.033 HD
ENDROOT
BRANCH   1  36
ATOM      4  C   UNL     1     154.141 162.620 187.214  0.00  0.00    +0.020 C 
ATOM      5  C   UNL     1     154.539 162.056 188.608  0.00  0.00    +0.068 C 
ATOM      6  C   UNL     1     155.658 162.838 189.343  0.00  0.00    -0.008 C 
ATOM      7  C   UNL     1     156.808 163.321 188.502  0.00  0.00    -0.077 C 
ATOM      8  C   UNL     1     157.658 162.545 187.811  0.00  0.00    -0.003 C 
ATOM      9  C   UNL     1     158.694 163.146 187.043  0.00  0.00    +0.220 A 
ATOM     10  N   UNL     1     158.684 164.381 186.551  0.00  0.00    -0.205 NA
ATOM     11  C   UNL     1     159.934 164.572 186.019  0.00  0.00    +0.164 A 
ATOM     12  C   UNL     1     160.670 163.428 186.145  0.00  0.00    +0.125 A 
ATOM     13  O   UNL     1     159.888 162.494 186.754  0.00  0.00    -0.443 OA
ATOM     14  C   UNL     1     160.421 165.917 185.412  0.00  0.00    +0.250 A 
ATOM     15  N   UNL     1     159.618 166.953 185.229  0.00  0.00    -0.203 NA
ATOM     16  C   UNL     1     160.450 167.950 184.783  0.00  0.00    +0.164 A 
ATOM     17  C   UNL     1     161.726 167.472 184.665  0.00  0.00    +0.125 A 
ATOM     18  O   UNL     1     161.723 166.161 185.041  0.00  0.00    -0.442 OA
ATOM     19  C   UNL     1     159.996 169.401 184.446  0.00  0.00    +0.249 A 
ATOM     20  N   UNL     1     158.731 169.785 184.450  0.00  0.00    -0.210 NA
ATOM     21  C   UNL     1     158.758 171.095 184.020  0.00  0.00    +0.109 A 
ATOM     22  C   UNL     1     160.064 171.479 183.851  0.00  0.00    +0.118 A 
ATOM     23  O   UNL     1     160.866 170.399 184.071  0.00  0.00    -0.442 OA
ATOM     24  C   UNL     1     157.494 171.877 183.808  0.00  0.00    +0.113 C 
ATOM     25  C   UNL     1     156.923 171.775 182.378  0.00  0.00    +0.051 C 
ATOM     26  C   UNL     1     155.990 170.585 182.236  0.00  0.00    +0.161 C 
ATOM     27  O   UNL     1     154.773 170.759 182.145  0.00  0.00    -0.292 OA
ATOM     28  C   UNL     1     156.557 169.206 182.243  0.00  0.00    -0.023 C 
ATOM     29  C   UNL     1     155.748 168.136 182.295  0.00  0.00    -0.078 C 
ATOM     30  C   UNL     1     156.248 166.727 182.447  0.00  0.00    -0.008 C 
ATOM     31  C   UNL     1     155.916 166.135 183.826  0.00  0.00    +0.069 C 
ATOM     32  C   UNL     1     154.426 165.847 183.998  0.00  0.00    +0.071 C 
ATOM     33  C   UNL     1     154.140 165.749 185.469  0.00  0.00    +0.310 C 
ATOM     34  O   UNL     1     154.317 166.681 186.241  0.00  0.00    -0.251 OA
ATOM     35  O   UNL     1     153.709 164.509 185.808  0.00  0.00    -0.461 OA
ATOM     36  C   UNL     1     153.801 164.135 187.209  0.00  0.00    +0.110 C 
ATOM     37  H   UNL     1     154.994 162.466 186.532  0.00  0.00    +0.036 HD
ATOM     38  H   UNL     1     153.649 162.053 189.249  0.00  0.00    +0.060 HD
ATOM     39  H   UNL     1     155.206 163.717 189.812  0.00  0.00    +0.033 HD
ATOM     40  H   UNL     1     156.069 162.242 190.166  0.00  0.00    +0.033 HD
ATOM     41  H   UNL     1     156.930 164.406 188.461  0.00  0.00    +0.057 HD
ATOM     42  H   UNL     1     157.594 161.465 187.838  0.00  0.00    +0.067 HD
ATOM     43  H   UNL     1     161.668 163.118 185.876  0.00  0.00    +0.105 HD
ATOM     44  H   UNL     1     162.678 167.889 184.360  0.00  0.00    +0.105 HD
ATOM     45  H   UNL     1     160.549 172.395 183.542  0.00  0.00    +0.105 HD
ATOM     46  H   UNL     1     156.760 171.480 184.523  0.00  0.00    +0.067 HD
ATOM     47  H   UNL     1     156.277 172.653 182.224  0.00  0.00    +0.041 HD
ATOM     48  H   UNL     1     157.633 169.096 182.277  0.00  0.00    +0.065 HD
ATOM     49  H   UNL     1     154.670 168.279 182.263  0.00  0.00    +0.057 HD
ATOM     50  H   UNL     1     155.825 166.099 181.654  0.00  0.00    +0.033 HD
ATOM     51  H   UNL     1     157.336 166.690 182.300  0.00  0.00    +0.033 HD
ATOM     52  H   UNL     1     156.282 166.814 184.607  0.00  0.00    +0.060 HD
ATOM     53  H   UNL     1     153.783 166.649 183.616  0.00  0.00    +0.040 HD
ATOM     54  H   UNL     1     154.134 164.916 183.494  0.00  0.00    +0.040 HD
ATOM     55  H   UNL     1     154.652 164.666 187.637  0.00  0.00    +0.074 HD
BRANCH   4  56
ATOM     56  C   UNL     1     153.005 161.787 186.591  0.00  0.00    -0.057 C 
ATOM     57  H   UNL     1     152.470 162.360 185.829  0.00  0.00    +0.023 HD
ATOM     58  H   UNL     1     152.282 161.475 187.348  0.00  0.00    +0.023 HD
ATOM     59  H   UNL     1     153.392 160.888 186.103  0.00  0.00    +0.023 HD
ENDBRANCH   4  56
BRANCH  25  60
ATOM     60  C   UNL     1     157.947 171.849 181.246  0.00  0.00    -0.053 C 
ATOM     61  H   UNL     1     158.935 171.480 181.543  0.00  0.00    +0.024 HD
ATOM     62  H   UNL     1     158.053 172.878 180.885  0.00  0.00    +0.024 HD
ATOM     63  H   UNL     1     157.616 171.229 180.402  0.00  0.00    +0.024 HD
ENDBRANCH  25  60
BRANCH  31  64
ATOM     64  O   UNL     1     156.623 164.899 183.970  0.00  0.00    -0.391 OA
ATOM     65  H   UNL     1     157.264 165.024 184.702  0.00  0.00    +0.210 HD
ENDBRANCH  31  64
BRANCH  24  66
ATOM     66  O   UNL     1     157.731 173.266 184.112  0.00  0.00    -0.373 OA
BRANCH  66  67
ATOM     67  C   UNL     1     156.583 174.072 183.866  0.00  0.00    +0.037 C 
ATOM     68  H   UNL     1     156.634 174.536 182.877  0.00  0.00    +0.052 HD
ATOM     69  H   UNL     1     155.670 173.472 183.952  0.00  0.00    +0.052 HD
ATOM     70  H   UNL     1     156.551 174.862 184.621  0.00  0.00    +0.052 HD
ENDBRANCH  66  67
ENDBRANCH  24  66
BRANCH   5  71
ATOM     71  O   UNL     1     154.965 160.688 188.427  0.00  0.00    -0.379 OA
BRANCH  71  72
ATOM     72  C   UNL     1     154.314 159.787 189.317  0.00  0.00    +0.037 C 
ATOM     73  H   UNL     1     154.351 158.759 188.945  0.00  0.00    +0.052 HD
ATOM     74  H   UNL     1     153.266 160.091 189.398  0.00  0.00    +0.052 HD
ATOM     75  H   UNL     1     154.769 159.843 190.311  0.00  0.00    +0.052 HD
ENDBRANCH  71  72
ENDBRANCH   5  71
ENDBRANCH   1  36
BRANCH   1  76
ATOM     76  C   UNL     1     152.659 165.531 189.057  0.00  0.00    +0.064 C 
ATOM     77  H   UNL     1     153.591 166.084 188.909  0.00  0.00    +0.060 HD
BRANCH  76  78
ATOM     78  C   UNL     1     151.477 166.538 189.136  0.00  0.00    -0.017 C 
ATOM     79  H   UNL     1     151.850 167.438 189.627  0.00  0.00    +0.032 HD
BRANCH  78  80
ATOM     80  C   UNL     1     151.076 166.944 187.697  0.00  0.00    -0.060 C 
ATOM     81  H   UNL     1     151.552 167.889 187.410  0.00  0.00    +0.023 HD
ATOM     82  H   UNL     1     151.394 166.195 186.966  0.00  0.00    +0.023 HD
ATOM     83  H   UNL     1     149.992 167.072 187.615  0.00  0.00    +0.023 HD
ENDBRANCH  78  80
BRANCH  78  84
ATOM     84  C   UNL     1     150.195 166.054 189.834  0.00  0.00    -0.045 C 
ATOM     85  H   UNL     1     149.331 166.504 189.321  0.00  0.00    +0.027 HD
ATOM     86  H   UNL     1     150.084 164.969 189.670  0.00  0.00    +0.027 HD
BRANCH  84  87
ATOM     87  C   UNL     1     149.969 166.343 191.328  0.00  0.00    -0.015 C 
ATOM     88  H   UNL     1     149.490 165.430 191.701  0.00  0.00    +0.030 HD
ATOM     89  H   UNL     1     150.931 166.393 191.850  0.00  0.00    +0.030 HD
BRANCH  87  90
ATOM     90  C   UNL     1     149.101 167.549 191.762  0.00  0.00    +0.109 C 
ATOM     91  H   UNL     1     148.087 167.368 191.385  0.00  0.00    +0.074 HD
BRANCH  90  92
ATOM     92  C   UNL     1     149.662 168.894 191.173  0.00  0.00    +0.031 C 
ATOM     93  H   UNL     1     150.171 168.651 190.233  0.00  0.00    +0.037 HD
BRANCH  92  94
ATOM     94  C   UNL     1     150.779 169.491 192.051  0.00  0.00    -0.056 C 
ATOM     95  H   UNL     1     150.369 170.033 192.904  0.00  0.00    +0.023 HD
ATOM     96  H   UNL     1     151.423 170.162 191.477  0.00  0.00    +0.023 HD
ATOM     97  H   UNL     1     151.409 168.698 192.471  0.00  0.00    +0.023 HD
ENDBRANCH  92  94
BRANCH  92  98
ATOM     98  C   UNL     1     148.612 170.025 190.919  0.00  0.00    +0.115 C 
ATOM     99  H   UNL     1     149.126 170.874 190.446  0.00  0.00    +0.074 HD
BRANCH  98 100
ATOM    100  C   UNL     1     147.458 169.670 189.933  0.00  0.00    +0.013 C 
ATOM    101  H   UNL     1     147.088 170.577 189.451  0.00  0.00    +0.038 HD
BRANCH 100 102
ATOM    102  C   UNL     1     146.283 168.986 190.646  0.00  0.00    -0.056 C 
ATOM    103  H   UNL     1     146.139 167.956 190.291  0.00  0.00    +0.024 HD
ATOM    104  H   UNL     1     146.445 168.942 191.734  0.00  0.00    +0.024 HD
ATOM    105  H   UNL     1     145.344 169.518 190.468  0.00  0.00    +0.024 HD
ENDBRANCH 100 102
BRANCH 100 106
ATOM    106  C   UNL     1     147.946 168.734 188.838  0.00  0.00    -0.064 C 
ATOM    107  C   UNL     1     147.167 168.300 187.837  0.00  0.00    -0.005 C 
ATOM    108  H   UNL     1     148.982 168.411 188.919  0.00  0.00    +0.059 HD
ATOM    109  H   UNL     1     146.127 168.623 187.818  0.00  0.00    +0.078 HD
BRANCH 107 110
ATOM    110  N   UNL     1     147.519 167.444 186.805  0.00  0.00    -0.284 N 
ATOM    111  C   UNL     1     147.878 167.839 185.516  0.00  0.00    +0.206 C 
ATOM    112  O   UNL     1     147.959 168.971 185.051  0.00  0.00    -0.279 OA
ATOM    113  H   UNL     1     148.104 166.975 184.869  0.00  0.00    +0.126 HD
BRANCH 110 114
ATOM    114  C   UNL     1     147.505 166.015 187.104  0.00  0.00    +0.007 C 
ATOM    115  H   UNL     1     147.871 165.861 188.126  0.00  0.00    +0.043 HD
ATOM    116  H   UNL     1     148.145 165.448 186.420  0.00  0.00    +0.043 HD
ATOM    117  H   UNL     1     146.481 165.638 187.020  0.00  0.00    +0.043 HD
ENDBRANCH 110 114
ENDBRANCH 107 110
ENDBRANCH 100 106
ENDBRANCH  98 100
BRANCH  98 118
ATOM    118  O   UNL     1     148.029 170.447 192.174  0.00  0.00    -0.461 OA
BRANCH 118 119
ATOM    119  C   UNL     1     147.958 171.793 192.384  0.00  0.00    +0.304 C 
ATOM    120  O   UNL     1     147.231 172.575 191.789  0.00  0.00    -0.251 OA
BRANCH 119 121
ATOM    121  C   UNL     1     148.936 172.210 193.441  0.00  0.00    +0.033 C 
ATOM    122  H   UNL     1     148.994 173.299 193.470  0.00  0.00    +0.034 HD
ATOM    123  H   UNL     1     149.916 171.773 193.234  0.00  0.00    +0.034 HD
ATOM    124  H   UNL     1     148.601 171.835 194.412  0.00  0.00    +0.034 HD
ENDBRANCH 119 121
ENDBRANCH 118 119
ENDBRANCH  98 118
ENDBRANCH  92  98
ENDBRANCH  90  92
BRANCH  90 125
ATOM    125  O   UNL     1     149.064 167.608 193.212  0.00  0.00    -0.459 OA
BRANCH 125 126
ATOM    126  C   UNL     1     147.930 167.111 193.812  0.00  0.00    +0.339 C 
ATOM    127  O   UNL     1     146.852 167.690 193.821  0.00  0.00    -0.248 OA
BRANCH 126 128
ATOM    128  C   UNL     1     148.177 165.781 194.544  0.00  0.00    +0.178 C 
ATOM    129  H   UNL     1     148.185 164.996 193.769  0.00  0.00    +0.074 HD
BRANCH 128 130
ATOM    130  C   UNL     1     149.556 165.817 195.206  0.00  0.00    +0.084 C 
ATOM    131  H   UNL     1     150.115 166.689 194.861  0.00  0.00    +0.059 HD
ATOM    132  H   UNL     1     149.436 165.933 196.290  0.00  0.00    +0.059 HD
BRANCH 130 133
ATOM    133  O   UNL     1     150.290 164.624 194.942  0.00  0.00    -0.380 OA
BRANCH 133 134
ATOM    134  C   UNL     1     150.956 164.150 196.104  0.00  0.00    +0.037 C 
ATOM    135  H   UNL     1     150.222 163.845 196.858  0.00  0.00    +0.052 HD
ATOM    136  H   UNL     1     151.554 163.277 195.828  0.00  0.00    +0.052 HD
ATOM    137  H   UNL     1     151.619 164.916 196.519  0.00  0.00    +0.052 HD
ENDBRANCH 133 134
ENDBRANCH 130 133
ENDBRANCH 128 130
BRANCH 128 138
ATOM    138  O   UNL     1     147.221 165.442 195.551  0.00  0.00    -0.366 OA
BRANCH 138 139
ATOM    139  C   UNL     1     147.584 165.943 196.830  0.00  0.00    +0.038 C 
ATOM    140  H   UNL     1     146.732 165.810 197.504  0.00  0.00    +0.052 HD
ATOM    141  H   UNL     1     147.810 167.013 196.771  0.00  0.00    +0.052 HD
ATOM    142  H   UNL     1     148.440 165.399 197.238  0.00  0.00    +0.052 HD
ENDBRANCH 138 139
ENDBRANCH 128 138
ENDBRANCH 126 128
ENDBRANCH 125 126
ENDBRANCH  90 125
ENDBRANCH  87  90
ENDBRANCH  84  87
ENDBRANCH  78  84
ENDBRANCH  76  78
BRANCH  76 143
ATOM    143  O   UNL     1     152.661 164.822 190.311  0.00  0.00    -0.379 OA
BRANCH 143 144
ATOM    144  C   UNL     1     153.584 165.337 191.263  0.00  0.00    +0.037 C 
ATOM    145  H   UNL     1     153.160 165.193 192.263  0.00  0.00    +0.052 HD
ATOM    146  H   UNL     1     153.772 166.407 191.117  0.00  0.00    +0.052 HD
ATOM    147  H   UNL     1     154.523 164.783 191.219  0.00  0.00    +0.052 HD
ENDBRANCH 143 144
ENDBRANCH  76 143
ENDBRANCH   1  76
TORSDOF 35
ENDMDL
MODEL 3
REMARK VINA RESULT:      -6.0      1.426      1.941
REMARK  Name = Mycalolide B_conf3
REMARK  35 active torsions:
REMARK  status: ('A' for Active; 'I' for Inactive)
REMARK    1  A    between atoms: C_1  and  C_2
REMARK    2  A    between atoms: C_3  and  O_72
REMARK    3  A    between atoms: C_22  and  O_70
REMARK    4  A    between atoms: C_23  and  C_69
REMARK    5  A    between atoms: C_29  and  O_68
REMARK    6  A    between atoms: C_34  and  C_35
REMARK    7  A    between atoms: C_35  and  C_36
REMARK    8  A    between atoms: C_36  and  C_37
REMARK    9  A    between atoms: C_36  and  O_66
REMARK   10  A    between atoms: C_37  and  C_38
REMARK   11  A    between atoms: C_37  and  C_39
REMARK   12  A    between atoms: C_39  and  C_40
REMARK   13  A    between atoms: C_40  and  C_41
REMARK   14  A    between atoms: C_41  and  C_42
REMARK   15  A    between atoms: C_41  and  O_57
REMARK   16  A    between atoms: C_42  and  C_43
REMARK   17  A    between atoms: C_42  and  C_44
REMARK   18  A    between atoms: C_44  and  C_45
REMARK   19  A    between atoms: C_44  and  O_53
REMARK   20  A    between atoms: C_45  and  C_46
REMARK   21  A    between atoms: C_45  and  C_47
REMARK   22  A    between atoms: C_48  and  N_49
REMARK   23  A    between atoms: N_49  and  C_50
REMARK   24  A    between atoms: O_53  and  C_54
REMARK   25  A    between atoms: C_54  and  C_56
REMARK   26  A    between atoms: O_57  and  C_58
REMARK   27  A    between atoms: C_58  and  C_60
REMARK   28  A    between atoms: C_60  and  C_61
REMARK   29  A    between atoms: C_60  and  O_64
REMARK   30  A    between atoms: C_61  and  O_62
REMARK   31  A    between atoms: O_62  and  C_63
REMARK   32  A    between atoms: O_64  and  C_65
REMARK   33  A    between atoms: O_66  and  C_67
REMARK   34  A    between atoms: O_70  and  C_71
REMARK   35  A    between atoms: O_72  and  C_73
REMARK                            x       y       z     vdW  Elec       q    Type
REMARK                         _______ _______ _______ _____ _____    ______ ____
ROOT
ATOM      1  C   UNL     1     153.232 164.697 188.236  0.00  0.00    +0.011 C 
ATOM      2  H   UNL     1     153.058 163.886 188.952  0.00  0.00    +0.033 HD
ATOM      3  H   UNL     1     152.358 164.760 187.579  0.00  0.00    +0.033 HD
ENDROOT
BRANCH   1  36
ATOM      4  C   UNL     1     154.846 162.860 187.363  0.00  0.00    +0.020 C 
ATOM      5  C   UNL     1     155.381 162.311 188.716  0.00  0.00    +0.068 C 
ATOM      6  C   UNL     1     156.548 163.118 189.342  0.00  0.00    -0.008 C 
ATOM      7  C   UNL     1     157.606 163.619 188.397  0.00  0.00    -0.077 C 
ATOM      8  C   UNL     1     158.403 162.855 187.633  0.00  0.00    -0.003 C 
ATOM      9  C   UNL     1     159.352 163.473 186.770  0.00  0.00    +0.220 A 
ATOM     10  N   UNL     1     159.272 164.705 186.277  0.00  0.00    -0.205 NA
ATOM     11  C   UNL     1     160.464 164.917 185.632  0.00  0.00    +0.164 A 
ATOM     12  C   UNL     1     161.231 163.787 185.694  0.00  0.00    +0.125 A 
ATOM     13  O   UNL     1     160.526 162.842 186.375  0.00  0.00    -0.443 OA
ATOM     14  C   UNL     1     160.867 166.267 184.979  0.00  0.00    +0.250 A 
ATOM     15  N   UNL     1     160.030 167.288 184.867  0.00  0.00    -0.203 NA
ATOM     16  C   UNL     1     160.798 168.298 184.343  0.00  0.00    +0.164 A 
ATOM     17  C   UNL     1     162.067 167.843 184.109  0.00  0.00    +0.125 A 
ATOM     18  O   UNL     1     162.124 166.534 184.488  0.00  0.00    -0.442 OA
ATOM     19  C   UNL     1     160.287 169.738 184.045  0.00  0.00    +0.249 A 
ATOM     20  N   UNL     1     159.020 170.098 184.164  0.00  0.00    -0.210 NA
ATOM     21  C   UNL     1     158.982 171.406 183.730  0.00  0.00    +0.109 A 
ATOM     22  C   UNL     1     160.260 171.814 183.439  0.00  0.00    +0.118 A 
ATOM     23  O   UNL     1     161.099 170.751 183.587  0.00  0.00    -0.442 OA
ATOM     24  C   UNL     1     157.689 172.163 183.632  0.00  0.00    +0.113 C 
ATOM     25  C   UNL     1     156.991 172.043 182.262  0.00  0.00    +0.051 C 
ATOM     26  C   UNL     1     156.072 170.835 182.210  0.00  0.00    +0.161 C 
ATOM     27  O   UNL     1     154.848 170.985 182.231  0.00  0.00    -0.292 OA
ATOM     28  C   UNL     1     156.664 169.467 182.169  0.00  0.00    -0.023 C 
ATOM     29  C   UNL     1     155.884 168.382 182.299  0.00  0.00    -0.078 C 
ATOM     30  C   UNL     1     156.424 166.983 182.409  0.00  0.00    -0.008 C 
ATOM     31  C   UNL     1     156.232 166.392 183.814  0.00  0.00    +0.069 C 
ATOM     32  C   UNL     1     154.770 166.076 184.124  0.00  0.00    +0.071 C 
ATOM     33  C   UNL     1     154.622 165.980 185.615  0.00  0.00    +0.310 C 
ATOM     34  O   UNL     1     154.852 166.919 186.365  0.00  0.00    -0.251 OA
ATOM     35  O   UNL     1     154.248 164.734 185.997  0.00  0.00    -0.461 OA
ATOM     36  C   UNL     1     154.476 164.369 187.384  0.00  0.00    +0.110 C 
ATOM     37  H   UNL     1     155.634 162.720 186.606  0.00  0.00    +0.036 HD
ATOM     38  H   UNL     1     154.554 162.294 189.437  0.00  0.00    +0.060 HD
ATOM     39  H   UNL     1     156.124 163.990 189.848  0.00  0.00    +0.033 HD
ATOM     40  H   UNL     1     157.044 162.534 190.125  0.00  0.00    +0.033 HD
ATOM     41  H   UNL     1     157.702 164.706 188.341  0.00  0.00    +0.057 HD
ATOM     42  H   UNL     1     158.363 161.775 187.670  0.00  0.00    +0.067 HD
ATOM     43  H   UNL     1     162.205 163.496 185.334  0.00  0.00    +0.105 HD
ATOM     44  H   UNL     1     162.979 168.277 183.717  0.00  0.00    +0.105 HD
ATOM     45  H   UNL     1     160.696 172.738 183.084  0.00  0.00    +0.105 HD
ATOM     46  H   UNL     1     157.032 171.755 184.413  0.00  0.00    +0.067 HD
ATOM     47  H   UNL     1     156.316 172.907 182.165  0.00  0.00    +0.041 HD
ATOM     48  H   UNL     1     157.741 169.378 182.104  0.00  0.00    +0.065 HD
ATOM     49  H   UNL     1     154.805 168.504 182.366  0.00  0.00    +0.057 HD
ATOM     50  H   UNL     1     155.942 166.343 181.660  0.00  0.00    +0.033 HD
ATOM     51  H   UNL     1     157.494 166.966 182.162  0.00  0.00    +0.033 HD
ATOM     52  H   UNL     1     156.655 167.082 184.556  0.00  0.00    +0.060 HD
ATOM     53  H   UNL     1     154.079 166.864 183.800  0.00  0.00    +0.040 HD
ATOM     54  H   UNL     1     154.450 165.138 183.651  0.00  0.00    +0.040 HD
ATOM     55  H   UNL     1     155.354 164.918 187.730  0.00  0.00    +0.074 HD
BRANCH   4  56
ATOM     56  C   UNL     1     153.673 162.003 186.850  0.00  0.00    -0.057 C 
ATOM     57  H   UNL     1     152.881 161.931 187.601  0.00  0.00    +0.023 HD
ATOM     58  H   UNL     1     153.999 160.991 186.606  0.00  0.00    +0.023 HD
ATOM     59  H   UNL     1     153.223 162.439 185.953  0.00  0.00    +0.023 HD
ENDBRANCH   4  56
BRANCH  25  60
ATOM     60  C   UNL     1     157.905 172.130 181.040  0.00  0.00    -0.053 C 
ATOM     61  H   UNL     1     158.828 171.553 181.158  0.00  0.00    +0.024 HD
ATOM     62  H   UNL     1     158.170 173.172 180.827  0.00  0.00    +0.024 HD
ATOM     63  H   UNL     1     157.389 171.728 180.158  0.00  0.00    +0.024 HD
ENDBRANCH  25  60
BRANCH  31  64
ATOM     64  O   UNL     1     156.973 165.171 183.896  0.00  0.00    -0.391 OA
ATOM     65  H   UNL     1     157.525 165.229 184.705  0.00  0.00    +0.210 HD
ENDBRANCH  31  64
BRANCH  24  66
ATOM     66  O   UNL     1     157.926 173.558 183.909  0.00  0.00    -0.373 OA
BRANCH  66  67
ATOM     67  C   UNL     1     156.742 174.338 183.780  0.00  0.00    +0.037 C 
ATOM     68  H   UNL     1     156.073 174.178 184.631  0.00  0.00    +0.052 HD
ATOM     69  H   UNL     1     156.992 175.401 183.696  0.00  0.00    +0.052 HD
ATOM     70  H   UNL     1     156.225 174.029 182.868  0.00  0.00    +0.052 HD
ENDBRANCH  66  67
ENDBRANCH  24  66
BRANCH   5  71
ATOM     71  O   UNL     1     155.815 160.950 188.501  0.00  0.00    -0.379 OA
BRANCH  71  72
ATOM     72  C   UNL     1     155.243 160.037 189.431  0.00  0.00    +0.037 C 
ATOM     73  H   UNL     1     154.251 160.364 189.756  0.00  0.00    +0.052 HD
ATOM     74  H   UNL     1     155.899 159.990 190.306  0.00  0.00    +0.052 HD
ATOM     75  H   UNL     1     155.182 159.037 188.990  0.00  0.00    +0.052 HD
ENDBRANCH  71  72
ENDBRANCH   5  71
ENDBRANCH   1  36
BRANCH   1  76
ATOM     76  C   UNL     1     153.360 165.992 189.054  0.00  0.00    +0.064 C 
ATOM     77  H   UNL     1     154.005 166.703 188.527  0.00  0.00    +0.060 HD
BRANCH  76  78
ATOM     78  C   UNL     1     151.992 166.669 189.347  0.00  0.00    -0.017 C 
ATOM     79  H   UNL     1     151.809 167.392 188.551  0.00  0.00    +0.032 HD
BRANCH  78  80
ATOM     80  C   UNL     1     150.878 165.598 189.246  0.00  0.00    -0.060 C 
ATOM     81  H   UNL     1     149.959 166.028 188.831  0.00  0.00    +0.023 HD
ATOM     82  H   UNL     1     151.170 164.778 188.585  0.00  0.00    +0.023 HD
ATOM     83  H   UNL     1     150.643 165.185 190.232  0.00  0.00    +0.023 HD
ENDBRANCH  78  80
BRANCH  78  84
ATOM     84  C   UNL     1     151.831 167.348 190.718  0.00  0.00    -0.045 C 
ATOM     85  H   UNL     1     151.991 166.590 191.500  0.00  0.00    +0.027 HD
ATOM     86  H   UNL     1     152.650 168.073 190.858  0.00  0.00    +0.027 HD
BRANCH  84  87
ATOM     87  C   UNL     1     150.508 168.037 191.092  0.00  0.00    -0.015 C 
ATOM     88  H   UNL     1     150.824 168.985 191.540  0.00  0.00    +0.030 HD
ATOM     89  H   UNL     1     149.963 168.320 190.184  0.00  0.00    +0.030 HD
BRANCH  87  90
ATOM     90  C   UNL     1     149.525 167.350 192.071  0.00  0.00    +0.109 C 
ATOM     91  H   UNL     1     149.410 166.312 191.736  0.00  0.00    +0.074 HD
BRANCH  90  92
ATOM     92  C   UNL     1     148.129 168.072 192.075  0.00  0.00    +0.031 C 
ATOM     93  H   UNL     1     147.949 168.430 193.096  0.00  0.00    +0.037 HD
BRANCH  92  94
ATOM     94  C   UNL     1     146.968 167.092 191.821  0.00  0.00    -0.056 C 
ATOM     95  H   UNL     1     146.926 166.785 190.775  0.00  0.00    +0.023 HD
ATOM     96  H   UNL     1     146.006 167.527 192.105  0.00  0.00    +0.023 HD
ATOM     97  H   UNL     1     147.103 166.170 192.401  0.00  0.00    +0.023 HD
ENDBRANCH  92  94
BRANCH  92  98
ATOM     98  C   UNL     1     147.965 169.260 191.071  0.00  0.00    +0.115 C 
ATOM     99  H   UNL     1     148.914 169.388 190.529  0.00  0.00    +0.074 HD
BRANCH  98 100
ATOM    100  C   UNL     1     146.900 169.061 189.952  0.00  0.00    +0.013 C 
ATOM    101  H   UNL     1     146.233 168.238 190.215  0.00  0.00    +0.038 HD
BRANCH 100 102
ATOM    102  C   UNL     1     147.545 168.747 188.594  0.00  0.00    -0.056 C 
ATOM    103  H   UNL     1     148.115 167.807 188.626  0.00  0.00    +0.024 HD
ATOM    104  H   UNL     1     146.786 168.648 187.804  0.00  0.00    +0.024 HD
ATOM    105  H   UNL     1     148.243 169.533 188.293  0.00  0.00    +0.024 HD
ENDBRANCH 100 102
BRANCH 100 106
ATOM    106  C   UNL     1     146.047 170.309 189.784  0.00  0.00    -0.064 C 
ATOM    107  C   UNL     1     145.913 170.960 188.619  0.00  0.00    -0.005 C 
ATOM    108  H   UNL     1     145.550 170.667 190.683  0.00  0.00    +0.059 HD
ATOM    109  H   UNL     1     146.458 170.583 187.754  0.00  0.00    +0.078 HD
BRANCH 107 110
ATOM    110  N   UNL     1     145.169 172.102 188.373  0.00  0.00    -0.284 N 
ATOM    111  C   UNL     1     145.383 172.994 187.320  0.00  0.00    +0.206 C 
ATOM    112  O   UNL     1     146.228 172.952 186.434  0.00  0.00    -0.279 OA
ATOM    113  H   UNL     1     144.668 173.834 187.342  0.00  0.00    +0.126 HD
BRANCH 110 114
ATOM    114  C   UNL     1     144.077 172.387 189.300  0.00  0.00    +0.007 C 
ATOM    115  H   UNL     1     144.232 173.380 189.739  0.00  0.00    +0.043 HD
ATOM    116  H   UNL     1     144.031 171.655 190.113  0.00  0.00    +0.043 HD
ATOM    117  H   UNL     1     143.128 172.369 188.757  0.00  0.00    +0.043 HD
ENDBRANCH 110 114
ENDBRANCH 107 110
ENDBRANCH 100 106
ENDBRANCH  98 100
BRANCH  98 118
ATOM    118  O   UNL     1     147.652 170.475 191.793  0.00  0.00    -0.461 OA
BRANCH 118 119
ATOM    119  C   UNL     1     148.670 171.371 191.939  0.00  0.00    +0.304 C 
ATOM    120  O   UNL     1     149.611 171.519 191.173  0.00  0.00    -0.251 OA
BRANCH 119 121
ATOM    121  C   UNL     1     148.505 172.148 193.210  0.00  0.00    +0.033 C 
ATOM    122  H   UNL     1     149.455 172.615 193.475  0.00  0.00    +0.034 HD
ATOM    123  H   UNL     1     148.160 171.486 194.009  0.00  0.00    +0.034 HD
ATOM    124  H   UNL     1     147.745 172.921 193.066  0.00  0.00    +0.034 HD
ENDBRANCH 119 121
ENDBRANCH 118 119
ENDBRANCH  98 118
ENDBRANCH  92  98
ENDBRANCH  90  92
BRANCH  90 125
ATOM    125  O   UNL     1     150.102 167.356 193.402  0.00  0.00    -0.459 OA
BRANCH 125 126
ATOM    126  C   UNL     1     150.449 166.130 193.920  0.00  0.00    +0.339 C 
ATOM    127  O   UNL     1     151.408 165.473 193.538  0.00  0.00    -0.248 OA
BRANCH 126 128
ATOM    128  C   UNL     1     149.456 165.629 194.983  0.00  0.00    +0.178 C 
ATOM    129  H   UNL     1     149.122 164.633 194.651  0.00  0.00    +0.074 HD
BRANCH 128 130
ATOM    130  C   UNL     1     150.183 165.472 196.321  0.00  0.00    +0.084 C 
ATOM    131  H   UNL     1     151.240 165.720 196.204  0.00  0.00    +0.059 HD
ATOM    132  H   UNL     1     149.773 166.188 197.043  0.00  0.00    +0.059 HD
BRANCH 130 133
ATOM    133  O   UNL     1     150.040 164.151 196.837  0.00  0.00    -0.380 OA
BRANCH 133 134
ATOM    134  C   UNL     1     151.191 163.360 196.579  0.00  0.00    +0.037 C 
ATOM    135  H   UNL     1     151.232 163.092 195.518  0.00  0.00    +0.052 HD
ATOM    136  H   UNL     1     152.078 163.951 196.823  0.00  0.00    +0.052 HD
ATOM    137  H   UNL     1     151.191 162.453 197.192  0.00  0.00    +0.052 HD
ENDBRANCH 133 134
ENDBRANCH 130 133
ENDBRANCH 128 130
BRANCH 128 138
ATOM    138  O   UNL     1     148.314 166.461 195.205  0.00  0.00    -0.366 OA
BRANCH 138 139
ATOM    139  C   UNL     1     147.104 165.719 195.238  0.00  0.00    +0.038 C 
ATOM    140  H   UNL     1     146.269 166.425 195.221  0.00  0.00    +0.052 HD
ATOM    141  H   UNL     1     147.039 165.133 196.161  0.00  0.00    +0.052 HD
ATOM    142  H   UNL     1     147.021 165.061 194.369  0.00  0.00    +0.052 HD
ENDBRANCH 138 139
ENDBRANCH 128 138
ENDBRANCH 126 128
ENDBRANCH 125 126
ENDBRANCH  90 125
ENDBRANCH  87  90
ENDBRANCH  84  87
ENDBRANCH  78  84
ENDBRANCH  76  78
BRANCH  76 143
ATOM    143  O   UNL     1     153.910 165.634 190.336  0.00  0.00    -0.379 OA
BRANCH 143 144
ATOM    144  C   UNL     1     155.227 166.123 190.556  0.00  0.00    +0.037 C 
ATOM    145  H   UNL     1     155.309 166.425 191.606  0.00  0.00    +0.052 HD
ATOM    146  H   UNL     1     155.454 166.990 189.926  0.00  0.00    +0.052 HD
ATOM    147  H   UNL     1     155.959 165.332 190.381  0.00  0.00    +0.052 HD
ENDBRANCH 143 144
ENDBRANCH  76 143
ENDBRANCH   1  76
TORSDOF 35
ENDMDL
MODEL 4
REMARK VINA RESULT:      -6.0     19.479     26.125
REMARK  Name = Mycalolide B_conf3
REMARK  35 active torsions:
REMARK  status: ('A' for Active; 'I' for Inactive)
REMARK    1  A    between atoms: C_1  and  C_2
REMARK    2  A    between atoms: C_3  and  O_72
REMARK    3  A    between atoms: C_22  and  O_70
REMARK    4  A    between atoms: C_23  and  C_69
REMARK    5  A    between atoms: C_29  and  O_68
REMARK    6  A    between atoms: C_34  and  C_35
REMARK    7  A    between atoms: C_35  and  C_36
REMARK    8  A    between atoms: C_36  and  C_37
REMARK    9  A    between atoms: C_36  and  O_66
REMARK   10  A    between atoms: C_37  and  C_38
REMARK   11  A    between atoms: C_37  and  C_39
REMARK   12  A    between atoms: C_39  and  C_40
REMARK   13  A    between atoms: C_40  and  C_41
REMARK   14  A    between atoms: C_41  and  C_42
REMARK   15  A    between atoms: C_41  and  O_57
REMARK   16  A    between atoms: C_42  and  C_43
REMARK   17  A    between atoms: C_42  and  C_44
REMARK   18  A    between atoms: C_44  and  C_45
REMARK   19  A    between atoms: C_44  and  O_53
REMARK   20  A    between atoms: C_45  and  C_46
REMARK   21  A    between atoms: C_45  and  C_47
REMARK   22  A    between atoms: C_48  and  N_49
REMARK   23  A    between atoms: N_49  and  C_50
REMARK   24  A    between atoms: O_53  and  C_54
REMARK   25  A    between atoms: C_54  and  C_56
REMARK   26  A    between atoms: O_57  and  C_58
REMARK   27  A    between atoms: C_58  and  C_60
REMARK   28  A    between atoms: C_60  and  C_61
REMARK   29  A    between atoms: C_60  and  O_64
REMARK   30  A    between atoms: C_61  and  O_62
REMARK   31  A    between atoms: O_62  and  C_63
REMARK   32  A    between atoms: O_64  and  C_65
REMARK   33  A    between atoms: O_66  and  C_67
REMARK   34  A    between atoms: O_70  and  C_71
REMARK   35  A    between atoms: O_72  and  C_73
REMARK                            x       y       z     vdW  Elec       q    Type
REMARK                         _______ _______ _______ _____ _____    ______ ____
ROOT
ATOM      1  C   UNL     1     148.666 188.631 199.346  0.00  0.00    +0.011 C 
ATOM      2  H   UNL     1     149.527 188.145 198.874  0.00  0.00    +0.033 HD
ATOM      3  H   UNL     1     148.602 188.275 200.380  0.00  0.00    +0.033 HD
ENDROOT
BRANCH   1  36
ATOM      4  C   UNL     1     146.102 188.245 199.484  0.00  0.00    +0.020 C 
ATOM      5  C   UNL     1     146.059 187.129 200.567  0.00  0.00    +0.068 C 
ATOM      6  C   UNL     1     146.305 185.690 200.044  0.00  0.00    -0.008 C 
ATOM      7  C   UNL     1     145.659 185.329 198.734  0.00  0.00    -0.077 C 
ATOM      8  C   UNL     1     144.340 185.307 198.487  0.00  0.00    -0.003 C 
ATOM      9  C   UNL     1     143.873 184.959 197.188  0.00  0.00    +0.220 A 
ATOM     10  N   UNL     1     144.559 185.076 196.056  0.00  0.00    -0.205 NA
ATOM     11  C   UNL     1     143.778 184.488 195.094  0.00  0.00    +0.164 A 
ATOM     12  C   UNL     1     142.600 184.071 195.647  0.00  0.00    +0.125 A 
ATOM     13  O   UNL     1     142.620 184.399 196.968  0.00  0.00    -0.443 OA
ATOM     14  C   UNL     1     144.218 184.300 193.616  0.00  0.00    +0.250 A 
ATOM     15  N   UNL     1     145.332 184.823 193.127  0.00  0.00    -0.203 NA
ATOM     16  C   UNL     1     145.397 184.339 191.845  0.00  0.00    +0.164 A 
ATOM     17  C   UNL     1     144.294 183.575 191.579  0.00  0.00    +0.125 A 
ATOM     18  O   UNL     1     143.513 183.558 192.697  0.00  0.00    -0.442 OA
ATOM     19  C   UNL     1     146.550 184.637 190.841  0.00  0.00    +0.249 A 
ATOM     20  N   UNL     1     147.533 185.485 191.095  0.00  0.00    -0.210 NA
ATOM     21  C   UNL     1     148.278 185.520 189.935  0.00  0.00    +0.109 A 
ATOM     22  C   UNL     1     147.754 184.616 189.045  0.00  0.00    +0.118 A 
ATOM     23  O   UNL     1     146.625 184.078 189.586  0.00  0.00    -0.442 OA
ATOM     24  C   UNL     1     149.454 186.441 189.786  0.00  0.00    +0.113 C 
ATOM     25  C   UNL     1     149.101 187.824 189.200  0.00  0.00    +0.051 C 
ATOM     26  C   UNL     1     148.707 188.806 190.289  0.00  0.00    +0.161 C 
ATOM     27  O   UNL     1     149.472 189.719 190.606  0.00  0.00    -0.292 OA
ATOM     28  C   UNL     1     147.405 188.632 190.994  0.00  0.00    -0.023 C 
ATOM     29  C   UNL     1     147.109 189.374 192.074  0.00  0.00    -0.078 C 
ATOM     30  C   UNL     1     145.883 189.158 192.916  0.00  0.00    -0.008 C 
ATOM     31  C   UNL     1     146.220 188.587 194.302  0.00  0.00    +0.069 C 
ATOM     32  C   UNL     1     146.914 189.606 195.204  0.00  0.00    +0.071 C 
ATOM     33  C   UNL     1     147.619 188.854 196.296  0.00  0.00    +0.310 C 
ATOM     34  O   UNL     1     148.512 188.047 196.075  0.00  0.00    -0.251 OA
ATOM     35  O   UNL     1     147.111 189.160 197.515  0.00  0.00    -0.461 OA
ATOM     36  C   UNL     1     147.378 188.228 198.597  0.00  0.00    +0.110 C 
ATOM     37  H   UNL     1     145.233 188.106 198.822  0.00  0.00    +0.036 HD
ATOM     38  H   UNL     1     146.821 187.350 201.325  0.00  0.00    +0.060 HD
ATOM     39  H   UNL     1     147.384 185.552 199.925  0.00  0.00    +0.033 HD
ATOM     40  H   UNL     1     145.993 184.950 200.790  0.00  0.00    +0.033 HD
ATOM     41  H   UNL     1     146.353 185.076 197.929  0.00  0.00    +0.057 HD
ATOM     42  H   UNL     1     143.612 185.526 199.257  0.00  0.00    +0.067 HD
ATOM     43  H   UNL     1     141.709 183.580 195.286  0.00  0.00    +0.105 HD
ATOM     44  H   UNL     1     143.936 183.012 190.726  0.00  0.00    +0.105 HD
ATOM     45  H   UNL     1     148.013 184.308 188.041  0.00  0.00    +0.105 HD
ATOM     46  H   UNL     1     149.877 186.569 190.792  0.00  0.00    +0.067 HD
ATOM     47  H   UNL     1     150.026 188.241 188.773  0.00  0.00    +0.041 HD
ATOM     48  H   UNL     1     146.741 187.848 190.656  0.00  0.00    +0.065 HD
ATOM     49  H   UNL     1     147.799 190.153 192.392  0.00  0.00    +0.057 HD
ATOM     50  H   UNL     1     145.336 190.103 193.018  0.00  0.00    +0.033 HD
ATOM     51  H   UNL     1     145.188 188.472 192.411  0.00  0.00    +0.033 HD
ATOM     52  H   UNL     1     146.830 187.683 194.181  0.00  0.00    +0.060 HD
ATOM     53  H   UNL     1     147.688 190.185 194.686  0.00  0.00    +0.040 HD
ATOM     54  H   UNL     1     146.199 190.318 195.636  0.00  0.00    +0.040 HD
ATOM     55  H   UNL     1     147.463 187.232 198.162  0.00  0.00    +0.074 HD
BRANCH   4  56
ATOM     56  C   UNL     1     145.878 189.631 200.118  0.00  0.00    -0.057 C 
ATOM     57  H   UNL     1     146.709 190.305 199.894  0.00  0.00    +0.023 HD
ATOM     58  H   UNL     1     145.783 189.560 201.203  0.00  0.00    +0.023 HD
ATOM     59  H   UNL     1     144.969 190.103 199.730  0.00  0.00    +0.023 HD
ENDBRANCH   4  56
BRANCH  25  60
ATOM     60  C   UNL     1     148.110 187.819 188.036  0.00  0.00    -0.053 C 
ATOM     61  H   UNL     1     147.069 187.729 188.365  0.00  0.00    +0.024 HD
ATOM     62  H   UNL     1     148.328 186.999 187.344  0.00  0.00    +0.024 HD
ATOM     63  H   UNL     1     148.186 188.761 187.477  0.00  0.00    +0.024 HD
ENDBRANCH  25  60
BRANCH  31  64
ATOM     64  O   UNL     1     144.999 188.196 194.939  0.00  0.00    -0.391 OA
ATOM     65  H   UNL     1     145.248 187.683 195.737  0.00  0.00    +0.210 HD
ENDBRANCH  31  64
BRANCH  24  66
ATOM     66  O   UNL     1     150.446 185.822 188.943  0.00  0.00    -0.373 OA
BRANCH  66  67
ATOM     67  C   UNL     1     151.332 186.777 188.369  0.00  0.00    +0.037 C 
ATOM     68  H   UNL     1     150.779 187.539 187.811  0.00  0.00    +0.052 HD
ATOM     69  H   UNL     1     151.940 187.251 189.147  0.00  0.00    +0.052 HD
ATOM     70  H   UNL     1     151.998 186.254 187.677  0.00  0.00    +0.052 HD
ENDBRANCH  66  67
ENDBRANCH  24  66
BRANCH   5  71
ATOM     71  O   UNL     1     144.765 187.181 201.206  0.00  0.00    -0.379 OA
BRANCH  71  72
ATOM     72  C   UNL     1     144.532 186.073 202.068  0.00  0.00    +0.037 C 
ATOM     73  H   UNL     1     145.467 185.584 202.355  0.00  0.00    +0.052 HD
ATOM     74  H   UNL     1     143.911 185.350 201.528  0.00  0.00    +0.052 HD
ATOM     75  H   UNL     1     143.988 186.397 202.961  0.00  0.00    +0.052 HD
ENDBRANCH  71  72
ENDBRANCH   5  71
ENDBRANCH   1  36
BRANCH   1  76
ATOM     76  C   UNL     1     148.947 190.142 199.335  0.00  0.00    +0.064 C 
ATOM     77  H   UNL     1     148.045 190.686 199.040  0.00  0.00    +0.060 HD
BRANCH  76  78
ATOM     78  C   UNL     1     149.441 190.683 200.706  0.00  0.00    -0.017 C 
ATOM     79  H   UNL     1     149.203 191.746 200.740  0.00  0.00    +0.032 HD
BRANCH  78  80
ATOM     80  C   UNL     1     148.624 190.002 201.830  0.00  0.00    -0.060 C 
ATOM     81  H   UNL     1     148.871 190.433 202.808  0.00  0.00    +0.023 HD
ATOM     82  H   UNL     1     147.549 190.142 201.686  0.00  0.00    +0.023 HD
ATOM     83  H   UNL     1     148.834 188.929 201.871  0.00  0.00    +0.023 HD
ENDBRANCH  78  80
BRANCH  78  84
ATOM     84  C   UNL     1     150.926 190.468 201.044  0.00  0.00    -0.045 C 
ATOM     85  H   UNL     1     151.370 189.829 200.265  0.00  0.00    +0.027 HD
ATOM     86  H   UNL     1     151.458 191.430 200.953  0.00  0.00    +0.027 HD
BRANCH  84  87
ATOM     87  C   UNL     1     151.332 189.816 202.376  0.00  0.00    -0.015 C 
ATOM     88  H   UNL     1     150.420 189.307 202.707  0.00  0.00    +0.030 HD
ATOM     89  H   UNL     1     152.056 189.013 202.196  0.00  0.00    +0.030 HD
BRANCH  87  90
ATOM     90  C   UNL     1     151.840 190.693 203.547  0.00  0.00    +0.109 C 
ATOM     91  H   UNL     1     152.802 190.275 203.867  0.00  0.00    +0.074 HD
BRANCH  90  92
ATOM     92  C   UNL     1     150.824 190.685 204.746  0.00  0.00    +0.031 C 
ATOM     93  H   UNL     1     150.058 189.933 204.519  0.00  0.00    +0.037 HD
BRANCH  92  94
ATOM     94  C   UNL     1     150.029 192.001 204.842  0.00  0.00    -0.056 C 
ATOM     95  H   UNL     1     149.787 192.246 205.877  0.00  0.00    +0.023 HD
ATOM     96  H   UNL     1     149.104 191.954 204.261  0.00  0.00    +0.023 HD
ATOM     97  H   UNL     1     150.622 192.842 204.462  0.00  0.00    +0.023 HD
ENDBRANCH  92  94
BRANCH  92  98
ATOM     98  C   UNL     1     151.429 190.400 206.159  0.00  0.00    +0.115 C 
ATOM     99  H   UNL     1     152.222 191.138 206.351  0.00  0.00    +0.074 HD
BRANCH  98 100
ATOM    100  C   UNL     1     150.450 190.558 207.361  0.00  0.00    +0.013 C 
ATOM    101  H   UNL     1     149.455 190.824 206.998  0.00  0.00    +0.038 HD
BRANCH 100 102
ATOM    102  C   UNL     1     150.915 191.645 208.341  0.00  0.00    -0.056 C 
ATOM    103  H   UNL     1     150.078 192.036 208.937  0.00  0.00    +0.024 HD
ATOM    104  H   UNL     1     151.668 191.257 209.043  0.00  0.00    +0.024 HD
ATOM    105  H   UNL     1     151.355 192.496 207.813  0.00  0.00    +0.024 HD
ENDBRANCH 100 102
BRANCH 100 106
ATOM    106  C   UNL     1     150.325 189.256 208.137  0.00  0.00    -0.064 C 
ATOM    107  C   UNL     1     150.847 189.071 209.358  0.00  0.00    -0.005 C 
ATOM    108  H   UNL     1     149.790 188.455 207.631  0.00  0.00    +0.059 HD
ATOM    109  H   UNL     1     151.404 189.892 209.808  0.00  0.00    +0.078 HD
BRANCH 107 110
ATOM    110  N   UNL     1     150.791 187.924 210.133  0.00  0.00    -0.284 N 
ATOM    111  C   UNL     1     151.769 186.929 210.175  0.00  0.00    +0.206 C 
ATOM    112  O   UNL     1     152.832 186.866 209.568  0.00  0.00    -0.279 OA
ATOM    113  H   UNL     1     151.492 186.109 210.859  0.00  0.00    +0.126 HD
BRANCH 110 114
ATOM    114  C   UNL     1     149.605 187.754 210.969  0.00  0.00    +0.007 C 
ATOM    115  H   UNL     1     148.712 187.941 210.360  0.00  0.00    +0.043 HD
ATOM    116  H   UNL     1     149.598 188.449 211.814  0.00  0.00    +0.043 HD
ATOM    117  H   UNL     1     149.579 186.731 211.355  0.00  0.00    +0.043 HD
ENDBRANCH 110 114
ENDBRANCH 107 110
ENDBRANCH 100 106
ENDBRANCH  98 100
BRANCH  98 118
ATOM    118  O   UNL     1     151.989 189.066 206.195  0.00  0.00    -0.461 OA
BRANCH 118 119
ATOM    119  C   UNL     1     153.299 188.970 206.566  0.00  0.00    +0.304 C 
ATOM    120  O   UNL     1     153.956 187.941 206.621  0.00  0.00    -0.251 OA
BRANCH 119 121
ATOM    121  C   UNL     1     153.835 190.318 206.943  0.00  0.00    +0.033 C 
ATOM    122  H   UNL     1     154.014 190.348 208.019  0.00  0.00    +0.034 HD
ATOM    123  H   UNL     1     153.128 191.097 206.645  0.00  0.00    +0.034 HD
ATOM    124  H   UNL     1     154.772 190.497 206.410  0.00  0.00    +0.034 HD
ENDBRANCH 119 121
ENDBRANCH 118 119
ENDBRANCH  98 118
ENDBRANCH  92  98
ENDBRANCH  90  92
BRANCH  90 125
ATOM    125  O   UNL     1     152.048 192.047 203.069  0.00  0.00    -0.459 OA
BRANCH 125 126
ATOM    126  C   UNL     1     153.339 192.518 203.118  0.00  0.00    +0.339 C 
ATOM    127  O   UNL     1     154.029 192.517 204.129  0.00  0.00    -0.248 OA
BRANCH 126 128
ATOM    128  C   UNL     1     153.803 193.125 201.782  0.00  0.00    +0.178 C 
ATOM    129  H   UNL     1     154.581 193.866 202.031  0.00  0.00    +0.074 HD
BRANCH 128 130
ATOM    130  C   UNL     1     154.439 192.029 200.924  0.00  0.00    +0.084 C 
ATOM    131  H   UNL     1     154.288 191.053 201.389  0.00  0.00    +0.059 HD
ATOM    132  H   UNL     1     153.936 191.992 199.950  0.00  0.00    +0.059 HD
BRANCH 130 133
ATOM    133  O   UNL     1     155.830 192.270 200.722  0.00  0.00    -0.380 OA
BRANCH 133 134
ATOM    134  C   UNL     1     156.207 193.566 201.165  0.00  0.00    +0.037 C 
ATOM    135  H   UNL     1     155.318 194.192 201.292  0.00  0.00    +0.052 HD
ATOM    136  H   UNL     1     156.705 193.469 202.133  0.00  0.00    +0.052 HD
ATOM    137  H   UNL     1     156.897 194.038 200.459  0.00  0.00    +0.052 HD
ENDBRANCH 133 134
ENDBRANCH 130 133
ENDBRANCH 128 130
BRANCH 128 138
ATOM    138  O   UNL     1     152.785 193.753 201.000  0.00  0.00    -0.366 OA
BRANCH 138 139
ATOM    139  C   UNL     1     152.736 193.249 199.673  0.00  0.00    +0.038 C 
ATOM    140  H   UNL     1     151.744 192.821 199.505  0.00  0.00    +0.052 HD
ATOM    141  H   UNL     1     153.479 192.456 199.537  0.00  0.00    +0.052 HD
ATOM    142  H   UNL     1     152.900 194.046 198.942  0.00  0.00    +0.052 HD
ENDBRANCH 138 139
ENDBRANCH 128 138
ENDBRANCH 126 128
ENDBRANCH 125 126
ENDBRANCH  90 125
ENDBRANCH  87  90
ENDBRANCH  84  87
ENDBRANCH  78  84
ENDBRANCH  76  78
BRANCH  76 143
ATOM    143  O   UNL     1     150.025 190.368 198.406  0.00  0.00    -0.379 OA
BRANCH 143 144
ATOM    144  C   UNL     1     149.838 191.505 197.572  0.00  0.00    +0.037 C 
ATOM    145  H   UNL     1     148.920 192.012 197.886  0.00  0.00    +0.052 HD
ATOM    146  H   UNL     1     149.739 191.228 196.517  0.00  0.00    +0.052 HD
ATOM    147  H   UNL     1     150.664 192.208 197.698  0.00  0.00    +0.052 HD
ENDBRANCH 143 144
ENDBRANCH  76 143
ENDBRANCH   1  76
TORSDOF 35
ENDMDL
MODEL 5
REMARK VINA RESULT:      -6.0      4.687      8.562
REMARK  Name = Mycalolide B_conf3
REMARK  35 active torsions:
REMARK  status: ('A' for Active; 'I' for Inactive)
REMARK    1  A    between atoms: C_1  and  C_2
REMARK    2  A    between atoms: C_3  and  O_72
REMARK    3  A    between atoms: C_22  and  O_70
REMARK    4  A    between atoms: C_23  and  C_69
REMARK    5  A    between atoms: C_29  and  O_68
REMARK    6  A    between atoms: C_34  and  C_35
REMARK    7  A    between atoms: C_35  and  C_36
REMARK    8  A    between atoms: C_36  and  C_37
REMARK    9  A    between atoms: C_36  and  O_66
REMARK   10  A    between atoms: C_37  and  C_38
REMARK   11  A    between atoms: C_37  and  C_39
REMARK   12  A    between atoms: C_39  and  C_40
REMARK   13  A    between atoms: C_40  and  C_41
REMARK   14  A    between atoms: C_41  and  C_42
REMARK   15  A    between atoms: C_41  and  O_57
REMARK   16  A    between atoms: C_42  and  C_43
REMARK   17  A    between atoms: C_42  and  C_44
REMARK   18  A    between atoms: C_44  and  C_45
REMARK   19  A    between atoms: C_44  and  O_53
REMARK   20  A    between atoms: C_45  and  C_46
REMARK   21  A    between atoms: C_45  and  C_47
REMARK   22  A    between atoms: C_48  and  N_49
REMARK   23  A    between atoms: N_49  and  C_50
REMARK   24  A    between atoms: O_53  and  C_54
REMARK   25  A    between atoms: C_54  and  C_56
REMARK   26  A    between atoms: O_57  and  C_58
REMARK   27  A    between atoms: C_58  and  C_60
REMARK   28  A    between atoms: C_60  and  C_61
REMARK   29  A    between atoms: C_60  and  O_64
REMARK   30  A    between atoms: C_61  and  O_62
REMARK   31  A    between atoms: O_62  and  C_63
REMARK   32  A    between atoms: O_64  and  C_65
REMARK   33  A    between atoms: O_66  and  C_67
REMARK   34  A    between atoms: O_70  and  C_71
REMARK   35  A    between atoms: O_72  and  C_73
REMARK                            x       y       z     vdW  Elec       q    Type
REMARK                         _______ _______ _______ _____ _____    ______ ____
ROOT
ATOM      1  C   UNL     1     154.648 165.801 187.247  0.00  0.00    +0.011 C 
ATOM      2  H   UNL     1     153.828 165.946 186.535  0.00  0.00    +0.033 HD
ATOM      3  H   UNL     1     155.520 166.348 186.873  0.00  0.00    +0.033 HD
ENDROOT
BRANCH   1  36
ATOM      4  C   UNL     1     154.085 163.394 186.452  0.00  0.00    +0.020 C 
ATOM      5  C   UNL     1     152.615 163.286 186.952  0.00  0.00    +0.068 C 
ATOM      6  C   UNL     1     152.452 162.893 188.443  0.00  0.00    -0.008 C 
ATOM      7  C   UNL     1     153.381 161.832 188.967  0.00  0.00    -0.077 C 
ATOM      8  C   UNL     1     153.453 160.564 188.531  0.00  0.00    -0.003 C 
ATOM      9  C   UNL     1     154.397 159.673 189.114  0.00  0.00    +0.220 A 
ATOM     10  N   UNL     1     155.524 160.021 189.727  0.00  0.00    -0.205 NA
ATOM     11  C   UNL     1     156.028 158.859 190.252  0.00  0.00    +0.164 A 
ATOM     12  C   UNL     1     155.227 157.808 189.902  0.00  0.00    +0.125 A 
ATOM     13  O   UNL     1     154.208 158.296 189.142  0.00  0.00    -0.443 OA
ATOM     14  C   UNL     1     157.297 158.790 191.146  0.00  0.00    +0.250 A 
ATOM     15  N   UNL     1     158.081 159.835 191.358  0.00  0.00    -0.203 NA
ATOM     16  C   UNL     1     159.004 159.385 192.269  0.00  0.00    +0.164 A 
ATOM     17  C   UNL     1     158.779 158.064 192.544  0.00  0.00    +0.125 A 
ATOM     18  O   UNL     1     157.701 157.658 191.814  0.00  0.00    -0.442 OA
ATOM     19  C   UNL     1     160.147 160.250 192.877  0.00  0.00    +0.249 A 
ATOM     20  N   UNL     1     160.409 161.486 192.486  0.00  0.00    -0.210 NA
ATOM     21  C   UNL     1     161.529 161.854 193.201  0.00  0.00    +0.109 A 
ATOM     22  C   UNL     1     161.853 160.840 194.068  0.00  0.00    +0.118 A 
ATOM     23  O   UNL     1     161.014 159.791 193.843  0.00  0.00    -0.442 OA
ATOM     24  C   UNL     1     162.200 163.178 192.981  0.00  0.00    +0.113 C 
ATOM     25  C   UNL     1     163.310 163.152 191.910  0.00  0.00    +0.051 C 
ATOM     26  C   UNL     1     162.749 163.417 190.523  0.00  0.00    +0.161 C 
ATOM     27  O   UNL     1     162.962 164.494 189.963  0.00  0.00    -0.292 OA
ATOM     28  C   UNL     1     161.912 162.375 189.862  0.00  0.00    -0.023 C 
ATOM     29  C   UNL     1     161.262 162.646 188.719  0.00  0.00    -0.078 C 
ATOM     30  C   UNL     1     160.291 161.697 188.073  0.00  0.00    -0.008 C 
ATOM     31  C   UNL     1     158.840 162.194 188.165  0.00  0.00    +0.069 C 
ATOM     32  C   UNL     1     158.575 163.403 187.270  0.00  0.00    +0.071 C 
ATOM     33  C   UNL     1     157.341 164.093 187.774  0.00  0.00    +0.310 C 
ATOM     34  O   UNL     1     157.263 164.575 188.896  0.00  0.00    -0.251 OA
ATOM     35  O   UNL     1     156.347 164.068 186.852  0.00  0.00    -0.461 OA
ATOM     36  C   UNL     1     154.995 164.299 187.328  0.00  0.00    +0.110 C 
ATOM     37  H   UNL     1     154.518 162.381 186.455  0.00  0.00    +0.036 HD
ATOM     38  H   UNL     1     152.124 164.255 186.800  0.00  0.00    +0.060 HD
ATOM     39  H   UNL     1     152.606 163.790 189.049  0.00  0.00    +0.033 HD
ATOM     40  H   UNL     1     151.424 162.572 188.646  0.00  0.00    +0.033 HD
ATOM     41  H   UNL     1     154.052 162.156 189.767  0.00  0.00    +0.057 HD
ATOM     42  H   UNL     1     152.795 160.189 187.759  0.00  0.00    +0.067 HD
ATOM     43  H   UNL     1     155.232 156.743 190.075  0.00  0.00    +0.105 HD
ATOM     44  H   UNL     1     159.243 157.322 193.183  0.00  0.00    +0.105 HD
ATOM     45  H   UNL     1     162.629 160.698 194.808  0.00  0.00    +0.105 HD
ATOM     46  H   UNL     1     161.411 163.878 192.672  0.00  0.00    +0.067 HD
ATOM     47  H   UNL     1     163.972 164.008 192.107  0.00  0.00    +0.041 HD
ATOM     48  H   UNL     1     161.787 161.424 190.364  0.00  0.00    +0.065 HD
ATOM     49  H   UNL     1     161.405 163.613 188.239  0.00  0.00    +0.057 HD
ATOM     50  H   UNL     1     160.572 161.541 187.025  0.00  0.00    +0.033 HD
ATOM     51  H   UNL     1     160.355 160.706 188.543  0.00  0.00    +0.033 HD
ATOM     52  H   UNL     1     158.600 162.416 189.213  0.00  0.00    +0.060 HD
ATOM     53  H   UNL     1     159.377 164.151 187.305  0.00  0.00    +0.040 HD
ATOM     54  H   UNL     1     158.441 163.108 186.220  0.00  0.00    +0.040 HD
ATOM     55  H   UNL     1     154.937 163.930 188.353  0.00  0.00    +0.074 HD
BRANCH   4  56
ATOM     56  C   UNL     1     154.129 163.819 184.972  0.00  0.00    -0.057 C 
ATOM     57  H   UNL     1     155.045 164.373 184.749  0.00  0.00    +0.023 HD
ATOM     58  H   UNL     1     153.279 164.455 184.717  0.00  0.00    +0.023 HD
ATOM     59  H   UNL     1     154.111 162.949 184.308  0.00  0.00    +0.023 HD
ENDBRANCH   4  56
BRANCH  25  60
ATOM     60  C   UNL     1     164.235 161.936 191.940  0.00  0.00    -0.053 C 
ATOM     61  H   UNL     1     164.617 161.719 192.943  0.00  0.00    +0.024 HD
ATOM     62  H   UNL     1     165.087 162.080 191.266  0.00  0.00    +0.024 HD
ATOM     63  H   UNL     1     163.689 161.043 191.607  0.00  0.00    +0.024 HD
ENDBRANCH  25  60
BRANCH  31  64
ATOM     64  O   UNL     1     157.973 161.137 187.744  0.00  0.00    -0.391 OA
ATOM     65  H   UNL     1     157.428 160.892 188.521  0.00  0.00    +0.210 HD
ENDBRANCH  31  64
BRANCH  24  66
ATOM     66  O   UNL     1     162.769 163.642 194.223  0.00  0.00    -0.373 OA
BRANCH  66  67
ATOM     67  C   UNL     1     163.464 164.874 194.066  0.00  0.00    +0.037 C 
ATOM     68  H   UNL     1     163.228 165.338 193.104  0.00  0.00    +0.052 HD
ATOM     69  H   UNL     1     163.215 165.559 194.883  0.00  0.00    +0.052 HD
ATOM     70  H   UNL     1     164.537 164.668 194.100  0.00  0.00    +0.052 HD
ENDBRANCH  66  67
ENDBRANCH  24  66
BRANCH   5  71
ATOM     71  O   UNL     1     151.940 162.307 186.132  0.00  0.00    -0.379 OA
BRANCH  71  72
ATOM     72  C   UNL     1     150.571 162.144 186.486  0.00  0.00    +0.037 C 
ATOM     73  H   UNL     1     150.463 161.612 187.435  0.00  0.00    +0.052 HD
ATOM     74  H   UNL     1     150.087 161.557 185.699  0.00  0.00    +0.052 HD
ATOM     75  H   UNL     1     150.077 163.119 186.545  0.00  0.00    +0.052 HD
ENDBRANCH  71  72
ENDBRANCH   5  71
ENDBRANCH   1  36
BRANCH   1  76
ATOM     76  C   UNL     1     154.190 166.408 188.583  0.00  0.00    +0.064 C 
ATOM     77  H   UNL     1     154.828 167.257 188.844  0.00  0.00    +0.060 HD
BRANCH  76  78
ATOM     78  C   UNL     1     152.707 166.872 188.568  0.00  0.00    -0.017 C 
ATOM     79  H   UNL     1     152.681 167.890 188.960  0.00  0.00    +0.032 HD
BRANCH  78  80
ATOM     80  C   UNL     1     152.225 166.945 187.099  0.00  0.00    -0.060 C 
ATOM     81  H   UNL     1     152.740 166.199 186.482  0.00  0.00    +0.023 HD
ATOM     82  H   UNL     1     151.155 166.737 187.017  0.00  0.00    +0.023 HD
ATOM     83  H   UNL     1     152.423 167.933 186.671  0.00  0.00    +0.023 HD
ENDBRANCH  78  80
BRANCH  78  84
ATOM     84  C   UNL     1     151.694 165.995 189.324  0.00  0.00    -0.045 C 
ATOM     85  H   UNL     1     152.070 164.960 189.328  0.00  0.00    +0.027 HD
ATOM     86  H   UNL     1     151.683 166.293 190.386  0.00  0.00    +0.027 HD
BRANCH  84  87
ATOM     87  C   UNL     1     150.240 165.893 188.836  0.00  0.00    -0.015 C 
ATOM     88  H   UNL     1     150.296 166.187 187.782  0.00  0.00    +0.030 HD
ATOM     89  H   UNL     1     149.922 164.844 188.821  0.00  0.00    +0.030 HD
BRANCH  87  90
ATOM     90  C   UNL     1     149.133 166.741 189.509  0.00  0.00    +0.109 C 
ATOM     91  H   UNL     1     149.470 167.784 189.486  0.00  0.00    +0.074 HD
BRANCH  90  92
ATOM     92  C   UNL     1     148.893 166.286 190.994  0.00  0.00    +0.031 C 
ATOM     93  H   UNL     1     148.962 165.191 191.016  0.00  0.00    +0.037 HD
BRANCH  92  94
ATOM     94  C   UNL     1     147.454 166.571 191.463  0.00  0.00    -0.056 C 
ATOM     95  H   UNL     1     146.747 165.856 191.039  0.00  0.00    +0.023 HD
ATOM     96  H   UNL     1     147.140 167.584 191.200  0.00  0.00    +0.023 HD
ATOM     97  H   UNL     1     147.372 166.467 192.553  0.00  0.00    +0.023 HD
ENDBRANCH  92  94
BRANCH  92  98
ATOM     98  C   UNL     1     149.862 166.889 192.064  0.00  0.00    +0.115 C 
ATOM     99  H   UNL     1     150.751 166.243 192.129  0.00  0.00    +0.074 HD
BRANCH  98 100
ATOM    100  C   UNL     1     150.430 168.304 191.744  0.00  0.00    +0.013 C 
ATOM    101  H   UNL     1     150.422 168.472 190.665  0.00  0.00    +0.038 HD
BRANCH 100 102
ATOM    102  C   UNL     1     151.870 168.473 192.250  0.00  0.00    -0.056 C 
ATOM    103  H   UNL     1     151.981 169.388 192.850  0.00  0.00    +0.024 HD
ATOM    104  H   UNL     1     152.175 167.624 192.880  0.00  0.00    +0.024 HD
ATOM    105  H   UNL     1     152.578 168.547 191.420  0.00  0.00    +0.024 HD
ENDBRANCH 100 102
BRANCH 100 106
ATOM    106  C   UNL     1     149.580 169.390 192.385  0.00  0.00    -0.064 C 
ATOM    107  C   UNL     1     149.592 170.669 191.984  0.00  0.00    -0.005 C 
ATOM    108  H   UNL     1     148.958 169.072 193.219  0.00  0.00    +0.059 HD
ATOM    109  H   UNL     1     150.258 170.946 191.167  0.00  0.00    +0.078 HD
BRANCH 107 110
ATOM    110  N   UNL     1     148.863 171.724 192.509  0.00  0.00    -0.284 N 
ATOM    111  C   UNL     1     147.547 172.043 192.173  0.00  0.00    +0.206 C 
ATOM    112  O   UNL     1     146.794 171.480 191.385  0.00  0.00    -0.279 OA
ATOM    113  H   UNL     1     147.187 172.933 192.716  0.00  0.00    +0.126 HD
BRANCH 110 114
ATOM    114  C   UNL     1     149.542 172.566 193.492  0.00  0.00    +0.007 C 
ATOM    115  H   UNL     1     150.150 173.309 192.964  0.00  0.00    +0.043 HD
ATOM    116  H   UNL     1     150.199 171.982 194.144  0.00  0.00    +0.043 HD
ATOM    117  H   UNL     1     148.795 173.074 194.110  0.00  0.00    +0.043 HD
ENDBRANCH 110 114
ENDBRANCH 107 110
ENDBRANCH 100 106
ENDBRANCH  98 100
BRANCH  98 118
ATOM    118  O   UNL     1     149.203 166.939 193.352  0.00  0.00    -0.461 OA
BRANCH 118 119
ATOM    119  C   UNL     1     149.413 165.874 194.179  0.00  0.00    +0.304 C 
ATOM    120  O   UNL     1     148.562 165.086 194.564  0.00  0.00    -0.251 OA
BRANCH 119 121
ATOM    121  C   UNL     1     150.851 165.811 194.596  0.00  0.00    +0.033 C 
ATOM    122  H   UNL     1     151.073 166.651 195.257  0.00  0.00    +0.034 HD
ATOM    123  H   UNL     1     151.496 165.831 193.713  0.00  0.00    +0.034 HD
ATOM    124  H   UNL     1     151.035 164.872 195.123  0.00  0.00    +0.034 HD
ENDBRANCH 119 121
ENDBRANCH 118 119
ENDBRANCH  98 118
ENDBRANCH  92  98
ENDBRANCH  90  92
BRANCH  90 125
ATOM    125  O   UNL     1     147.910 166.621 188.739  0.00  0.00    -0.459 OA
BRANCH 125 126
ATOM    126  C   UNL     1     147.638 167.647 187.865  0.00  0.00    +0.339 C 
ATOM    127  O   UNL     1     147.577 168.826 188.192  0.00  0.00    -0.248 OA
BRANCH 126 128
ATOM    128  C   UNL     1     147.337 167.153 186.439  0.00  0.00    +0.178 C 
ATOM    129  H   UNL     1     146.328 167.520 186.190  0.00  0.00    +0.074 HD
BRANCH 128 130
ATOM    130  C   UNL     1     148.334 167.784 185.465  0.00  0.00    +0.084 C 
ATOM    131  H   UNL     1     148.987 168.481 185.995  0.00  0.00    +0.059 HD
ATOM    132  H   UNL     1     148.983 167.002 185.051  0.00  0.00    +0.059 HD
BRANCH 130 133
ATOM    133  O   UNL     1     147.665 168.450 184.397  0.00  0.00    -0.380 OA
BRANCH 133 134
ATOM    134  C   UNL     1     147.263 169.761 184.767  0.00  0.00    +0.037 C 
ATOM    135  H   UNL     1     146.873 169.758 185.791  0.00  0.00    +0.052 HD
ATOM    136  H   UNL     1     148.138 170.415 184.730  0.00  0.00    +0.052 HD
ATOM    137  H   UNL     1     146.503 170.148 184.081  0.00  0.00    +0.052 HD
ENDBRANCH 133 134
ENDBRANCH 130 133
ENDBRANCH 128 130
BRANCH 128 138
ATOM    138  O   UNL     1     147.385 165.736 186.252  0.00  0.00    -0.366 OA
BRANCH 138 139
ATOM    139  C   UNL     1     148.564 165.321 185.578  0.00  0.00    +0.038 C 
ATOM    140  H   UNL     1     148.608 164.228 185.607  0.00  0.00    +0.052 HD
ATOM    141  H   UNL     1     149.453 165.713 186.084  0.00  0.00    +0.052 HD
ATOM    142  H   UNL     1     148.554 165.641 184.533  0.00  0.00    +0.052 HD
ENDBRANCH 138 139
ENDBRANCH 128 138
ENDBRANCH 126 128
ENDBRANCH 125 126
ENDBRANCH  90 125
ENDBRANCH  87  90
ENDBRANCH  84  87
ENDBRANCH  78  84
ENDBRANCH  76  78
BRANCH  76 143
ATOM    143  O   UNL     1     154.269 165.365 189.574  0.00  0.00    -0.379 OA
BRANCH 143 144
ATOM    144  C   UNL     1     154.754 165.805 190.837  0.00  0.00    +0.037 C 
ATOM    145  H   UNL     1     154.674 164.971 191.543  0.00  0.00    +0.052 HD
ATOM    146  H   UNL     1     154.173 166.648 191.228  0.00  0.00    +0.052 HD
ATOM    147  H   UNL     1     155.808 166.078 190.764  0.00  0.00    +0.052 HD
ENDBRANCH 143 144
ENDBRANCH  76 143
ENDBRANCH   1  76
TORSDOF 35
ENDMDL
MODEL 6
REMARK VINA RESULT:      -6.0      4.585      7.806
REMARK  Name = Mycalolide B_conf3
REMARK  35 active torsions:
REMARK  status: ('A' for Active; 'I' for Inactive)
REMARK    1  A    between atoms: C_1  and  C_2
REMARK    2  A    between atoms: C_3  and  O_72
REMARK    3  A    between atoms: C_22  and  O_70
REMARK    4  A    between atoms: C_23  and  C_69
REMARK    5  A    between atoms: C_29  and  O_68
REMARK    6  A    between atoms: C_34  and  C_35
REMARK    7  A    between atoms: C_35  and  C_36
REMARK    8  A    between atoms: C_36  and  C_37
REMARK    9  A    between atoms: C_36  and  O_66
REMARK   10  A    between atoms: C_37  and  C_38
REMARK   11  A    between atoms: C_37  and  C_39
REMARK   12  A    between atoms: C_39  and  C_40
REMARK   13  A    between atoms: C_40  and  C_41
REMARK   14  A    between atoms: C_41  and  C_42
REMARK   15  A    between atoms: C_41  and  O_57
REMARK   16  A    between atoms: C_42  and  C_43
REMARK   17  A    between atoms: C_42  and  C_44
REMARK   18  A    between atoms: C_44  and  C_45
REMARK   19  A    between atoms: C_44  and  O_53
REMARK   20  A    between atoms: C_45  and  C_46
REMARK   21  A    between atoms: C_45  and  C_47
REMARK   22  A    between atoms: C_48  and  N_49
REMARK   23  A    between atoms: N_49  and  C_50
REMARK   24  A    between atoms: O_53  and  C_54
REMARK   25  A    between atoms: C_54  and  C_56
REMARK   26  A    between atoms: O_57  and  C_58
REMARK   27  A    between atoms: C_58  and  C_60
REMARK   28  A    between atoms: C_60  and  C_61
REMARK   29  A    between atoms: C_60  and  O_64
REMARK   30  A    between atoms: C_61  and  O_62
REMARK   31  A    between atoms: O_62  and  C_63
REMARK   32  A    between atoms: O_64  and  C_65
REMARK   33  A    between atoms: O_66  and  C_67
REMARK   34  A    between atoms: O_70  and  C_71
REMARK   35  A    between atoms: O_72  and  C_73
REMARK                            x       y       z     vdW  Elec       q    Type
REMARK                         _______ _______ _______ _____ _____    ______ ____
ROOT
ATOM      1  C   UNL     1     154.633 166.006 187.431  0.00  0.00    +0.011 C 
ATOM      2  H   UNL     1     153.801 166.192 186.745  0.00  0.00    +0.033 HD
ATOM      3  H   UNL     1     155.509 166.547 187.056  0.00  0.00    +0.033 HD
ENDROOT
BRANCH   1  36
ATOM      4  C   UNL     1     154.011 163.641 186.557  0.00  0.00    +0.020 C 
ATOM      5  C   UNL     1     152.546 163.545 187.072  0.00  0.00    +0.068 C 
ATOM      6  C   UNL     1     152.393 163.101 188.550  0.00  0.00    -0.008 C 
ATOM      7  C   UNL     1     153.306 162.003 189.023  0.00  0.00    -0.077 C 
ATOM      8  C   UNL     1     153.346 160.751 188.541  0.00  0.00    -0.003 C 
ATOM      9  C   UNL     1     154.279 159.820 189.079  0.00  0.00    +0.220 A 
ATOM     10  N   UNL     1     155.420 160.123 189.690  0.00  0.00    -0.205 NA
ATOM     11  C   UNL     1     155.906 158.932 190.166  0.00  0.00    +0.164 A 
ATOM     12  C   UNL     1     155.080 157.911 189.788  0.00  0.00    +0.125 A 
ATOM     13  O   UNL     1     154.062 158.447 189.059  0.00  0.00    -0.443 OA
ATOM     14  C   UNL     1     157.184 158.806 191.039  0.00  0.00    +0.250 A 
ATOM     15  N   UNL     1     157.993 159.826 191.279  0.00  0.00    -0.203 NA
ATOM     16  C   UNL     1     158.918 159.324 192.161  0.00  0.00    +0.164 A 
ATOM     17  C   UNL     1     158.668 157.999 192.391  0.00  0.00    +0.125 A 
ATOM     18  O   UNL     1     157.573 157.641 191.661  0.00  0.00    -0.442 OA
ATOM     19  C   UNL     1     160.086 160.143 192.785  0.00  0.00    +0.249 A 
ATOM     20  N   UNL     1     160.368 161.387 192.435  0.00  0.00    -0.210 NA
ATOM     21  C   UNL     1     161.504 161.705 193.149  0.00  0.00    +0.109 A 
ATOM     22  C   UNL     1     161.818 160.655 193.974  0.00  0.00    +0.118 A 
ATOM     23  O   UNL     1     160.954 159.632 193.722  0.00  0.00    -0.442 OA
ATOM     24  C   UNL     1     162.200 163.023 192.968  0.00  0.00    +0.113 C 
ATOM     25  C   UNL     1     163.295 163.014 191.882  0.00  0.00    +0.051 C 
ATOM     26  C   UNL     1     162.723 163.340 190.513  0.00  0.00    +0.161 C 
ATOM     27  O   UNL     1     162.951 164.433 189.990  0.00  0.00    -0.292 OA
ATOM     28  C   UNL     1     161.856 162.340 189.826  0.00  0.00    -0.023 C 
ATOM     29  C   UNL     1     161.198 162.666 188.702  0.00  0.00    -0.078 C 
ATOM     30  C   UNL     1     160.200 161.761 188.035  0.00  0.00    -0.008 C 
ATOM     31  C   UNL     1     158.761 162.284 188.164  0.00  0.00    +0.069 C 
ATOM     32  C   UNL     1     158.511 163.530 187.316  0.00  0.00    +0.071 C 
ATOM     33  C   UNL     1     157.297 164.225 187.861  0.00  0.00    +0.310 C 
ATOM     34  O   UNL     1     157.243 164.668 189.000  0.00  0.00    -0.251 OA
ATOM     35  O   UNL     1     156.292 164.254 186.952  0.00  0.00    -0.461 OA
ATOM     36  C   UNL     1     154.950 164.495 187.453  0.00  0.00    +0.110 C 
ATOM     37  H   UNL     1     154.423 162.620 186.519  0.00  0.00    +0.036 HD
ATOM     38  H   UNL     1     152.073 164.528 186.962  0.00  0.00    +0.060 HD
ATOM     39  H   UNL     1     152.573 163.972 189.186  0.00  0.00    +0.033 HD
ATOM     40  H   UNL     1     151.361 162.794 188.755  0.00  0.00    +0.033 HD
ATOM     41  H   UNL     1     153.993 162.284 189.825  0.00  0.00    +0.057 HD
ATOM     42  H   UNL     1     152.672 160.418 187.764  0.00  0.00    +0.067 HD
ATOM     43  H   UNL     1     155.065 156.841 189.923  0.00  0.00    +0.105 HD
ATOM     44  H   UNL     1     159.124 157.225 192.997  0.00  0.00    +0.105 HD
ATOM     45  H   UNL     1     162.600 160.470 194.699  0.00  0.00    +0.105 HD
ATOM     46  H   UNL     1     161.422 163.750 192.695  0.00  0.00    +0.067 HD
ATOM     47  H   UNL     1     163.978 163.849 192.102  0.00  0.00    +0.041 HD
ATOM     48  H   UNL     1     161.718 161.375 190.295  0.00  0.00    +0.065 HD
ATOM     49  H   UNL     1     161.355 163.646 188.256  0.00  0.00    +0.057 HD
ATOM     50  H   UNL     1     160.465 161.637 186.978  0.00  0.00    +0.033 HD
ATOM     51  H   UNL     1     160.250 160.753 188.468  0.00  0.00    +0.033 HD
ATOM     52  H   UNL     1     158.539 162.472 189.222  0.00  0.00    +0.060 HD
ATOM     53  H   UNL     1     159.328 164.259 187.368  0.00  0.00    +0.040 HD
ATOM     54  H   UNL     1     158.357 163.275 186.259  0.00  0.00    +0.040 HD
ATOM     55  H   UNL     1     154.898 164.090 188.465  0.00  0.00    +0.074 HD
BRANCH   4  56
ATOM     56  C   UNL     1     154.045 164.119 185.093  0.00  0.00    -0.057 C 
ATOM     57  H   UNL     1     153.818 165.186 185.022  0.00  0.00    +0.023 HD
ATOM     58  H   UNL     1     153.320 163.578 184.483  0.00  0.00    +0.023 HD
ATOM     59  H   UNL     1     155.036 163.973 184.650  0.00  0.00    +0.023 HD
ENDBRANCH   4  56
BRANCH  25  60
ATOM     60  C   UNL     1     164.196 161.779 191.856  0.00  0.00    -0.053 C 
ATOM     61  H   UNL     1     164.624 161.586 190.867  0.00  0.00    +0.024 HD
ATOM     62  H   UNL     1     163.642 160.889 192.176  0.00  0.00    +0.024 HD
ATOM     63  H   UNL     1     165.039 161.916 192.546  0.00  0.00    +0.024 HD
ENDBRANCH  25  60
BRANCH  31  64
ATOM     64  O   UNL     1     157.867 161.260 187.716  0.00  0.00    -0.391 OA
ATOM     65  H   UNL     1     158.202 160.413 188.080  0.00  0.00    +0.210 HD
ENDBRANCH  31  64
BRANCH  24  66
ATOM     66  O   UNL     1     162.793 163.430 194.218  0.00  0.00    -0.373 OA
BRANCH  66  67
ATOM     67  C   UNL     1     163.510 164.654 194.098  0.00  0.00    +0.037 C 
ATOM     68  H   UNL     1     163.580 165.164 195.063  0.00  0.00    +0.052 HD
ATOM     69  H   UNL     1     164.513 164.471 193.698  0.00  0.00    +0.052 HD
ATOM     70  H   UNL     1     162.971 165.300 193.400  0.00  0.00    +0.052 HD
ENDBRANCH  66  67
ENDBRANCH  24  66
BRANCH   5  71
ATOM     71  O   UNL     1     151.840 162.611 186.227  0.00  0.00    -0.379 OA
BRANCH  71  72
ATOM     72  C   UNL     1     150.462 162.499 186.561  0.00  0.00    +0.037 C 
ATOM     73  H   UNL     1     150.089 161.485 186.394  0.00  0.00    +0.052 HD
ATOM     74  H   UNL     1     149.902 163.187 185.919  0.00  0.00    +0.052 HD
ATOM     75  H   UNL     1     150.301 162.791 187.604  0.00  0.00    +0.052 HD
ENDBRANCH  71  72
ENDBRANCH   5  71
ENDBRANCH   1  36
BRANCH   1  76
ATOM     76  C   UNL     1     154.219 166.576 188.798  0.00  0.00    +0.064 C 
ATOM     77  H   UNL     1     154.904 167.378 189.089  0.00  0.00    +0.060 HD
BRANCH  76  78
ATOM     78  C   UNL     1     152.763 167.117 188.819  0.00  0.00    -0.017 C 
ATOM     79  H   UNL     1     152.811 168.169 189.102  0.00  0.00    +0.032 HD
BRANCH  78  80
ATOM     80  C   UNL     1     152.193 167.063 187.381  0.00  0.00    -0.060 C 
ATOM     81  H   UNL     1     151.409 166.302 187.299  0.00  0.00    +0.023 HD
ATOM     82  H   UNL     1     151.739 168.016 187.094  0.00  0.00    +0.023 HD
ATOM     83  H   UNL     1     152.979 166.820 186.658  0.00  0.00    +0.023 HD
ENDBRANCH  78  80
BRANCH  78  84
ATOM     84  C   UNL     1     151.759 166.379 189.721  0.00  0.00    -0.045 C 
ATOM     85  H   UNL     1     151.172 165.690 189.094  0.00  0.00    +0.027 HD
ATOM     86  H   UNL     1     152.313 165.724 190.414  0.00  0.00    +0.027 HD
BRANCH  84  87
ATOM     87  C   UNL     1     150.717 167.169 190.532  0.00  0.00    -0.015 C 
ATOM     88  H   UNL     1     151.323 167.794 191.198  0.00  0.00    +0.030 HD
ATOM     89  H   UNL     1     150.192 167.876 189.880  0.00  0.00    +0.030 HD
BRANCH  87  90
ATOM     90  C   UNL     1     149.676 166.419 191.397  0.00  0.00    +0.109 C 
ATOM     91  H   UNL     1     149.978 165.364 191.421  0.00  0.00    +0.074 HD
BRANCH  90  92
ATOM     92  C   UNL     1     148.232 166.551 190.791  0.00  0.00    +0.031 C 
ATOM     93  H   UNL     1     147.702 165.615 191.004  0.00  0.00    +0.037 HD
BRANCH  92  94
ATOM     94  C   UNL     1     148.252 166.618 189.251  0.00  0.00    -0.056 C 
ATOM     95  H   UNL     1     147.280 166.909 188.852  0.00  0.00    +0.023 HD
ATOM     96  H   UNL     1     148.548 165.662 188.812  0.00  0.00    +0.023 HD
ATOM     97  H   UNL     1     148.962 167.380 188.905  0.00  0.00    +0.023 HD
ENDBRANCH  92  94
BRANCH  92  98
ATOM     98  C   UNL     1     147.379 167.759 191.300  0.00  0.00    +0.115 C 
ATOM     99  H   UNL     1     147.514 167.842 192.389  0.00  0.00    +0.074 HD
BRANCH  98 100
ATOM    100  C   UNL     1     147.788 169.158 190.749  0.00  0.00    +0.013 C 
ATOM    101  H   UNL     1     148.536 169.043 189.961  0.00  0.00    +0.038 HD
BRANCH 100 102
ATOM    102  C   UNL     1     148.375 170.058 191.846  0.00  0.00    -0.056 C 
ATOM    103  H   UNL     1     147.949 171.070 191.808  0.00  0.00    +0.024 HD
ATOM    104  H   UNL     1     148.174 169.651 192.849  0.00  0.00    +0.024 HD
ATOM    105  H   UNL     1     149.459 170.164 191.738  0.00  0.00    +0.024 HD
ENDBRANCH 100 102
BRANCH 100 106
ATOM    106  C   UNL     1     146.592 169.878 190.148  0.00  0.00    -0.064 C 
ATOM    107  C   UNL     1     146.324 171.174 190.365  0.00  0.00    -0.005 C 
ATOM    108  H   UNL     1     145.935 169.268 189.530  0.00  0.00    +0.059 HD
ATOM    109  H   UNL     1     146.991 171.733 191.019  0.00  0.00    +0.078 HD
BRANCH 107 110
ATOM    110  N   UNL     1     145.259 171.909 189.870  0.00  0.00    -0.284 N 
ATOM    111  C   UNL     1     145.105 172.313 188.542  0.00  0.00    +0.206 C 
ATOM    112  O   UNL     1     145.840 172.106 187.583  0.00  0.00    -0.279 OA
ATOM    113  H   UNL     1     144.181 172.898 188.395  0.00  0.00    +0.126 HD
BRANCH 110 114
ATOM    114  C   UNL     1     144.223 172.289 190.826  0.00  0.00    +0.007 C 
ATOM    115  H   UNL     1     143.503 171.467 190.916  0.00  0.00    +0.043 HD
ATOM    116  H   UNL     1     143.683 173.187 190.507  0.00  0.00    +0.043 HD
ATOM    117  H   UNL     1     144.683 172.483 191.799  0.00  0.00    +0.043 HD
ENDBRANCH 110 114
ENDBRANCH 107 110
ENDBRANCH 100 106
ENDBRANCH  98 100
BRANCH  98 118
ATOM    118  O   UNL     1     145.982 167.537 190.998  0.00  0.00    -0.461 OA
BRANCH 118 119
ATOM    119  C   UNL     1     145.288 166.765 191.884  0.00  0.00    +0.304 C 
ATOM    120  O   UNL     1     145.158 166.984 193.080  0.00  0.00    -0.251 OA
BRANCH 119 121
ATOM    121  C   UNL     1     144.719 165.562 191.195  0.00  0.00    +0.033 C 
ATOM    122  H   UNL     1     143.808 165.847 190.664  0.00  0.00    +0.034 HD
ATOM    123  H   UNL     1     144.513 164.776 191.926  0.00  0.00    +0.034 HD
ATOM    124  H   UNL     1     145.450 165.172 190.483  0.00  0.00    +0.034 HD
ENDBRANCH 119 121
ENDBRANCH 118 119
ENDBRANCH  98 118
ENDBRANCH  92  98
ENDBRANCH  90  92
BRANCH  90 125
ATOM    125  O   UNL     1     149.709 166.951 192.746  0.00  0.00    -0.459 OA
BRANCH 125 126
ATOM    126  C   UNL     1     150.477 166.260 193.654  0.00  0.00    +0.339 C 
ATOM    127  O   UNL     1     151.699 166.310 193.695  0.00  0.00    -0.248 OA
BRANCH 126 128
ATOM    128  C   UNL     1     149.641 165.349 194.570  0.00  0.00    +0.178 C 
ATOM    129  H   UNL     1     150.117 164.355 194.538  0.00  0.00    +0.074 HD
BRANCH 128 130
ATOM    130  C   UNL     1     149.714 165.872 196.006  0.00  0.00    +0.084 C 
ATOM    131  H   UNL     1     149.849 166.955 196.004  0.00  0.00    +0.059 HD
ATOM    132  H   UNL     1     148.761 165.677 196.513  0.00  0.00    +0.059 HD
BRANCH 130 133
ATOM    133  O   UNL     1     150.768 165.245 196.734  0.00  0.00    -0.380 OA
BRANCH 133 134
ATOM    134  C   UNL     1     150.898 163.873 196.390  0.00  0.00    +0.037 C 
ATOM    135  H   UNL     1     150.654 163.727 195.332  0.00  0.00    +0.052 HD
ATOM    136  H   UNL     1     151.936 163.572 196.553  0.00  0.00    +0.052 HD
ATOM    137  H   UNL     1     150.248 163.248 197.011  0.00  0.00    +0.052 HD
ENDBRANCH 133 134
ENDBRANCH 130 133
ENDBRANCH 128 130
BRANCH 128 138
ATOM    138  O   UNL     1     148.259 165.223 194.224  0.00  0.00    -0.366 OA
BRANCH 138 139
ATOM    139  C   UNL     1     147.400 165.678 195.259  0.00  0.00    +0.038 C 
ATOM    140  H   UNL     1     147.360 166.770 195.215  0.00  0.00    +0.052 HD
ATOM    141  H   UNL     1     147.795 165.389 196.239  0.00  0.00    +0.052 HD
ATOM    142  H   UNL     1     146.387 165.287 195.132  0.00  0.00    +0.052 HD
ENDBRANCH 138 139
ENDBRANCH 128 138
ENDBRANCH 126 128
ENDBRANCH 125 126
ENDBRANCH  90 125
ENDBRANCH  87  90
ENDBRANCH  84  87
ENDBRANCH  78  84
ENDBRANCH  76  78
BRANCH  76 143
ATOM    143  O   UNL     1     154.253 165.488 189.741  0.00  0.00    -0.379 OA
BRANCH 143 144
ATOM    144  C   UNL     1     154.770 165.846 191.016  0.00  0.00    +0.037 C 
ATOM    145  H   UNL     1     154.082 166.565 191.475  0.00  0.00    +0.052 HD
ATOM    146  H   UNL     1     155.760 166.311 190.943  0.00  0.00    +0.052 HD
ATOM    147  H   UNL     1     154.816 164.971 191.667  0.00  0.00    +0.052 HD
ENDBRANCH 143 144
ENDBRANCH  76 143
ENDBRANCH   1  76
TORSDOF 35
ENDMDL
MODEL 7
REMARK VINA RESULT:      -5.9      5.074     12.221
REMARK  Name = Mycalolide B_conf3
REMARK  35 active torsions:
REMARK  status: ('A' for Active; 'I' for Inactive)
REMARK    1  A    between atoms: C_1  and  C_2
REMARK    2  A    between atoms: C_3  and  O_72
REMARK    3  A    between atoms: C_22  and  O_70
REMARK    4  A    between atoms: C_23  and  C_69
REMARK    5  A    between atoms: C_29  and  O_68
REMARK    6  A    between atoms: C_34  and  C_35
REMARK    7  A    between atoms: C_35  and  C_36
REMARK    8  A    between atoms: C_36  and  C_37
REMARK    9  A    between atoms: C_36  and  O_66
REMARK   10  A    between atoms: C_37  and  C_38
REMARK   11  A    between atoms: C_37  and  C_39
REMARK   12  A    between atoms: C_39  and  C_40
REMARK   13  A    between atoms: C_40  and  C_41
REMARK   14  A    between atoms: C_41  and  C_42
REMARK   15  A    between atoms: C_41  and  O_57
REMARK   16  A    between atoms: C_42  and  C_43
REMARK   17  A    between atoms: C_42  and  C_44
REMARK   18  A    between atoms: C_44  and  C_45
REMARK   19  A    between atoms: C_44  and  O_53
REMARK   20  A    between atoms: C_45  and  C_46
REMARK   21  A    between atoms: C_45  and  C_47
REMARK   22  A    between atoms: C_48  and  N_49
REMARK   23  A    between atoms: N_49  and  C_50
REMARK   24  A    between atoms: O_53  and  C_54
REMARK   25  A    between atoms: C_54  and  C_56
REMARK   26  A    between atoms: O_57  and  C_58
REMARK   27  A    between atoms: C_58  and  C_60
REMARK   28  A    between atoms: C_60  and  C_61
REMARK   29  A    between atoms: C_60  and  O_64
REMARK   30  A    between atoms: C_61  and  O_62
REMARK   31  A    between atoms: O_62  and  C_63
REMARK   32  A    between atoms: O_64  and  C_65
REMARK   33  A    between atoms: O_66  and  C_67
REMARK   34  A    between atoms: O_70  and  C_71
REMARK   35  A    between atoms: O_72  and  C_73
REMARK                            x       y       z     vdW  Elec       q    Type
REMARK                         _______ _______ _______ _____ _____    ______ ____
ROOT
ATOM      1  C   UNL     1     152.406 164.504 186.081  0.00  0.00    +0.011 C 
ATOM      2  H   UNL     1     153.394 164.806 185.716  0.00  0.00    +0.033 HD
ATOM      3  H   UNL     1     151.676 164.710 185.290  0.00  0.00    +0.033 HD
ENDROOT
BRANCH   1  36
ATOM      4  C   UNL     1     153.268 165.994 188.024  0.00  0.00    +0.020 C 
ATOM      5  C   UNL     1     154.220 164.986 188.731  0.00  0.00    +0.068 C 
ATOM      6  C   UNL     1     153.530 164.004 189.713  0.00  0.00    -0.008 C 
ATOM      7  C   UNL     1     152.447 164.574 190.588  0.00  0.00    -0.077 C 
ATOM      8  C   UNL     1     152.602 165.545 191.501  0.00  0.00    -0.003 C 
ATOM      9  C   UNL     1     151.476 165.997 192.246  0.00  0.00    +0.220 A 
ATOM     10  N   UNL     1     150.205 165.908 191.869  0.00  0.00    -0.205 NA
ATOM     11  C   UNL     1     149.474 166.326 192.952  0.00  0.00    +0.164 A 
ATOM     12  C   UNL     1     150.316 166.718 193.955  0.00  0.00    +0.125 A 
ATOM     13  O   UNL     1     151.594 166.558 193.513  0.00  0.00    -0.443 OA
ATOM     14  C   UNL     1     147.922 166.302 193.011  0.00  0.00    +0.250 A 
ATOM     15  N   UNL     1     147.169 166.008 191.962  0.00  0.00    -0.203 NA
ATOM     16  C   UNL     1     145.889 165.994 192.459  0.00  0.00    +0.164 A 
ATOM     17  C   UNL     1     145.902 166.328 193.785  0.00  0.00    +0.125 A 
ATOM     18  O   UNL     1     147.196 166.553 194.152  0.00  0.00    -0.442 OA
ATOM     19  C   UNL     1     144.616 165.666 191.624  0.00  0.00    +0.249 A 
ATOM     20  N   UNL     1     144.636 165.475 190.316  0.00  0.00    -0.210 NA
ATOM     21  C   UNL     1     143.314 165.299 189.965  0.00  0.00    +0.109 A 
ATOM     22  C   UNL     1     142.548 165.308 191.104  0.00  0.00    +0.118 A 
ATOM     23  O   UNL     1     143.354 165.588 192.166  0.00  0.00    -0.442 OA
ATOM     24  C   UNL     1     142.898 165.132 188.532  0.00  0.00    +0.113 C 
ATOM     25  C   UNL     1     142.559 166.457 187.817  0.00  0.00    +0.051 C 
ATOM     26  C   UNL     1     143.794 167.082 187.191  0.00  0.00    +0.161 C 
ATOM     27  O   UNL     1     143.943 167.069 185.967  0.00  0.00    -0.292 OA
ATOM     28  C   UNL     1     144.837 167.680 188.073  0.00  0.00    -0.023 C 
ATOM     29  C   UNL     1     146.013 168.081 187.564  0.00  0.00    -0.078 C 
ATOM     30  C   UNL     1     147.161 168.559 188.408  0.00  0.00    -0.008 C 
ATOM     31  C   UNL     1     148.332 167.564 188.418  0.00  0.00    +0.069 C 
ATOM     32  C   UNL     1     149.067 167.509 187.080  0.00  0.00    +0.071 C 
ATOM     33  C   UNL     1     149.834 166.220 187.026  0.00  0.00    +0.310 C 
ATOM     34  O   UNL     1     149.293 165.124 187.073  0.00  0.00    -0.251 OA
ATOM     35  O   UNL     1     151.171 166.440 186.960  0.00  0.00    -0.461 OA
ATOM     36  C   UNL     1     152.044 165.340 187.327  0.00  0.00    +0.110 C 
ATOM     37  H   UNL     1     152.886 166.689 188.789  0.00  0.00    +0.036 HD
ATOM     38  H   UNL     1     154.732 164.393 187.962  0.00  0.00    +0.060 HD
ATOM     39  H   UNL     1     153.085 163.194 189.128  0.00  0.00    +0.033 HD
ATOM     40  H   UNL     1     154.271 163.525 190.363  0.00  0.00    +0.033 HD
ATOM     41  H   UNL     1     151.453 164.145 190.434  0.00  0.00    +0.057 HD
ATOM     42  H   UNL     1     153.569 165.985 191.706  0.00  0.00    +0.067 HD
ATOM     43  H   UNL     1     150.197 167.111 194.953  0.00  0.00    +0.105 HD
ATOM     44  H   UNL     1     145.150 166.439 194.558  0.00  0.00    +0.105 HD
ATOM     45  H   UNL     1     141.491 165.200 191.304  0.00  0.00    +0.105 HD
ATOM     46  H   UNL     1     143.740 164.647 188.020  0.00  0.00    +0.067 HD
ATOM     47  H   UNL     1     141.913 166.207 186.961  0.00  0.00    +0.041 HD
ATOM     48  H   UNL     1     144.648 167.715 189.138  0.00  0.00    +0.065 HD
ATOM     49  H   UNL     1     146.175 168.030 186.489  0.00  0.00    +0.057 HD
ATOM     50  H   UNL     1     147.499 169.539 188.048  0.00  0.00    +0.033 HD
ATOM     51  H   UNL     1     146.831 168.726 189.442  0.00  0.00    +0.033 HD
ATOM     52  H   UNL     1     147.961 166.574 188.709  0.00  0.00    +0.060 HD
ATOM     53  H   UNL     1     148.392 167.497 186.216  0.00  0.00    +0.040 HD
ATOM     54  H   UNL     1     149.750 168.360 186.958  0.00  0.00    +0.040 HD
ATOM     55  H   UNL     1     151.522 164.739 188.073  0.00  0.00    +0.074 HD
BRANCH   4  56
ATOM     56  C   UNL     1     154.052 166.895 187.052  0.00  0.00    -0.057 C 
ATOM     57  H   UNL     1     153.545 166.966 186.086  0.00  0.00    +0.023 HD
ATOM     58  H   UNL     1     155.058 166.510 186.877  0.00  0.00    +0.023 HD
ATOM     59  H   UNL     1     154.144 167.915 187.440  0.00  0.00    +0.023 HD
ENDBRANCH   4  56
BRANCH  25  60
ATOM     60  C   UNL     1     141.747 167.464 188.631  0.00  0.00    -0.053 C 
ATOM     61  H   UNL     1     141.193 168.169 188.003  0.00  0.00    +0.024 HD
ATOM     62  H   UNL     1     142.397 168.033 189.304  0.00  0.00    +0.024 HD
ATOM     63  H   UNL     1     141.006 166.935 189.246  0.00  0.00    +0.024 HD
ENDBRANCH  25  60
BRANCH  31  64
ATOM     64  O   UNL     1     149.269 167.979 189.418  0.00  0.00    -0.391 OA
ATOM     65  H   UNL     1     150.082 168.257 188.945  0.00  0.00    +0.210 HD
ENDBRANCH  31  64
BRANCH  24  66
ATOM     66  O   UNL     1     141.750 164.263 188.462  0.00  0.00    -0.373 OA
BRANCH  66  67
ATOM     67  C   UNL     1     141.321 164.051 187.121  0.00  0.00    +0.037 C 
ATOM     68  H   UNL     1     141.678 164.849 186.464  0.00  0.00    +0.052 HD
ATOM     69  H   UNL     1     141.674 163.080 186.756  0.00  0.00    +0.052 HD
ATOM     70  H   UNL     1     140.228 164.050 187.107  0.00  0.00    +0.052 HD
ENDBRANCH  66  67
ENDBRANCH  24  66
BRANCH   5  71
ATOM     71  O   UNL     1     155.216 165.745 189.449  0.00  0.00    -0.379 OA
BRANCH  71  72
ATOM     72  C   UNL     1     156.328 164.953 189.849  0.00  0.00    +0.037 C 
ATOM     73  H   UNL     1     156.658 165.206 190.861  0.00  0.00    +0.052 HD
ATOM     74  H   UNL     1     157.151 165.150 189.154  0.00  0.00    +0.052 HD
ATOM     75  H   UNL     1     156.075 163.890 189.793  0.00  0.00    +0.052 HD
ENDBRANCH  71  72
ENDBRANCH   5  71
ENDBRANCH   1  36
BRANCH   1  76
ATOM     76  C   UNL     1     152.472 162.991 186.343  0.00  0.00    +0.064 C 
ATOM     77  H   UNL     1     152.716 162.805 187.394  0.00  0.00    +0.060 HD
BRANCH  76  78
ATOM     78  C   UNL     1     151.153 162.250 185.988  0.00  0.00    -0.017 C 
ATOM     79  H   UNL     1     150.569 162.913 185.349  0.00  0.00    +0.032 HD
BRANCH  78  80
ATOM     80  C   UNL     1     151.498 161.000 185.143  0.00  0.00    -0.060 C 
ATOM     81  H   UNL     1     150.892 160.966 184.230  0.00  0.00    +0.023 HD
ATOM     82  H   UNL     1     152.545 161.007 184.827  0.00  0.00    +0.023 HD
ATOM     83  H   UNL     1     151.311 160.082 185.708  0.00  0.00    +0.023 HD
ENDBRANCH  78  80
BRANCH  78  84
ATOM     84  C   UNL     1     150.289 161.764 187.165  0.00  0.00    -0.045 C 
ATOM     85  H   UNL     1     150.134 162.611 187.852  0.00  0.00    +0.027 HD
ATOM     86  H   UNL     1     149.281 161.518 186.793  0.00  0.00    +0.027 HD
BRANCH  84  87
ATOM     87  C   UNL     1     150.772 160.608 188.056  0.00  0.00    -0.015 C 
ATOM     88  H   UNL     1     151.717 160.299 187.595  0.00  0.00    +0.030 HD
ATOM     89  H   UNL     1     151.050 160.988 189.046  0.00  0.00    +0.030 HD
BRANCH  87  90
ATOM     90  C   UNL     1     149.892 159.347 188.234  0.00  0.00    +0.109 C 
ATOM     91  H   UNL     1     150.291 158.796 189.095  0.00  0.00    +0.074 HD
BRANCH  90  92
ATOM     92  C   UNL     1     149.931 158.440 186.951  0.00  0.00    +0.031 C 
ATOM     93  H   UNL     1     150.685 158.864 186.275  0.00  0.00    +0.037 HD
BRANCH  92  94
ATOM     94  C   UNL     1     148.624 158.526 186.140  0.00  0.00    -0.056 C 
ATOM     95  H   UNL     1     147.971 159.314 186.517  0.00  0.00    +0.023 HD
ATOM     96  H   UNL     1     148.082 157.577 186.152  0.00  0.00    +0.023 HD
ATOM     97  H   UNL     1     148.831 158.780 185.093  0.00  0.00    +0.023 HD
ENDBRANCH  92  94
BRANCH  92  98
ATOM     98  C   UNL     1     150.237 156.925 187.187  0.00  0.00    +0.115 C 
ATOM     99  H   UNL     1     149.673 156.339 186.445  0.00  0.00    +0.074 HD
BRANCH  98 100
ATOM    100  C   UNL     1     151.720 156.492 186.980  0.00  0.00    +0.013 C 
ATOM    101  H   UNL     1     151.796 155.824 186.120  0.00  0.00    +0.038 HD
BRANCH 100 102
ATOM    102  C   UNL     1     152.282 155.765 188.210  0.00  0.00    -0.056 C 
ATOM    103  H   UNL     1     151.934 156.225 189.146  0.00  0.00    +0.024 HD
ATOM    104  H   UNL     1     151.975 154.708 188.226  0.00  0.00    +0.024 HD
ATOM    105  H   UNL     1     153.375 155.797 188.227  0.00  0.00    +0.024 HD
ENDBRANCH 100 102
BRANCH 100 106
ATOM    106  C   UNL     1     152.606 157.697 186.707  0.00  0.00    -0.064 C 
ATOM    107  C   UNL     1     153.475 158.192 187.600  0.00  0.00    -0.005 C 
ATOM    108  H   UNL     1     152.484 158.162 185.731  0.00  0.00    +0.059 HD
ATOM    109  H   UNL     1     153.536 157.714 188.577  0.00  0.00    +0.078 HD
BRANCH 107 110
ATOM    110  N   UNL     1     154.314 159.284 187.445  0.00  0.00    -0.284 N 
ATOM    111  C   UNL     1     154.540 160.271 188.405  0.00  0.00    +0.206 C 
ATOM    112  O   UNL     1     154.073 160.370 189.534  0.00  0.00    -0.279 OA
ATOM    113  H   UNL     1     155.239 161.044 188.043  0.00  0.00    +0.126 HD
BRANCH 110 114
ATOM    114  C   UNL     1     155.008 159.402 186.165  0.00  0.00    +0.007 C 
ATOM    115  H   UNL     1     155.334 160.440 186.032  0.00  0.00    +0.043 HD
ATOM    116  H   UNL     1     154.360 159.134 185.323  0.00  0.00    +0.043 HD
ATOM    117  H   UNL     1     155.878 158.739 186.163  0.00  0.00    +0.043 HD
ENDBRANCH 110 114
ENDBRANCH 107 110
ENDBRANCH 100 106
ENDBRANCH  98 100
BRANCH  98 118
ATOM    118  O   UNL     1     149.828 156.542 188.521  0.00  0.00    -0.461 OA
BRANCH 118 119
ATOM    119  C   UNL     1     148.697 155.785 188.612  0.00  0.00    +0.304 C 
ATOM    120  O   UNL     1     147.942 155.735 189.572  0.00  0.00    -0.251 OA
BRANCH 119 121
ATOM    121  C   UNL     1     148.510 154.973 187.366  0.00  0.00    +0.033 C 
ATOM    122  H   UNL     1     148.714 155.597 186.494  0.00  0.00    +0.034 HD
ATOM    123  H   UNL     1     147.493 154.574 187.330  0.00  0.00    +0.034 HD
ATOM    124  H   UNL     1     149.200 154.126 187.379  0.00  0.00    +0.034 HD
ENDBRANCH 119 121
ENDBRANCH 118 119
ENDBRANCH  98 118
ENDBRANCH  92  98
ENDBRANCH  90  92
BRANCH  90 125
ATOM    125  O   UNL     1     148.531 159.756 188.524  0.00  0.00    -0.459 OA
BRANCH 125 126
ATOM    126  C   UNL     1     147.985 159.272 189.691  0.00  0.00    +0.339 C 
ATOM    127  O   UNL     1     148.637 159.010 190.693  0.00  0.00    -0.248 OA
BRANCH 126 128
ATOM    128  C   UNL     1     146.472 159.016 189.580  0.00  0.00    +0.178 C 
ATOM    129  H   UNL     1     146.340 158.282 188.768  0.00  0.00    +0.074 HD
BRANCH 128 130
ATOM    130  C   UNL     1     145.969 158.389 190.883  0.00  0.00    +0.084 C 
ATOM    131  H   UNL     1     146.815 158.100 191.510  0.00  0.00    +0.059 HD
ATOM    132  H   UNL     1     145.400 159.136 191.449  0.00  0.00    +0.059 HD
BRANCH 130 133
ATOM    133  O   UNL     1     145.136 157.261 190.627  0.00  0.00    -0.380 OA
BRANCH 133 134
ATOM    134  C   UNL     1     143.765 157.563 190.844  0.00  0.00    +0.037 C 
ATOM    135  H   UNL     1     143.253 156.695 191.273  0.00  0.00    +0.052 HD
ATOM    136  H   UNL     1     143.701 158.391 191.554  0.00  0.00    +0.052 HD
ATOM    137  H   UNL     1     143.275 157.859 189.911  0.00  0.00    +0.052 HD
ENDBRANCH 133 134
ENDBRANCH 130 133
ENDBRANCH 128 130
BRANCH 128 138
ATOM    138  O   UNL     1     145.667 160.167 189.314  0.00  0.00    -0.366 OA
BRANCH 138 139
ATOM    139  C   UNL     1     144.858 160.004 188.158  0.00  0.00    +0.038 C 
ATOM    140  H   UNL     1     145.033 160.856 187.494  0.00  0.00    +0.052 HD
ATOM    141  H   UNL     1     143.798 159.995 188.431  0.00  0.00    +0.052 HD
ATOM    142  H   UNL     1     145.116 159.086 187.622  0.00  0.00    +0.052 HD
ENDBRANCH 138 139
ENDBRANCH 128 138
ENDBRANCH 126 128
ENDBRANCH 125 126
ENDBRANCH  90 125
ENDBRANCH  87  90
ENDBRANCH  84  87
ENDBRANCH  78  84
ENDBRANCH  76  78
BRANCH  76 143
ATOM    143  O   UNL     1     153.480 162.450 185.466  0.00  0.00    -0.379 OA
BRANCH 143 144
ATOM    144  C   UNL     1     154.711 163.161 185.495  0.00  0.00    +0.037 C 
ATOM    145  H   UNL     1     154.869 163.529 186.515  0.00  0.00    +0.052 HD
ATOM    146  H   UNL     1     154.707 164.018 184.813  0.00  0.00    +0.052 HD
ATOM    147  H   UNL     1     155.540 162.493 185.253  0.00  0.00    +0.052 HD
ENDBRANCH 143 144
ENDBRANCH  76 143
ENDBRANCH   1  76
TORSDOF 35
ENDMDL
MODEL 8
REMARK VINA RESULT:      -5.9      1.548      4.076
REMARK  Name = Mycalolide B_conf3
REMARK  35 active torsions:
REMARK  status: ('A' for Active; 'I' for Inactive)
REMARK    1  A    between atoms: C_1  and  C_2
REMARK    2  A    between atoms: C_3  and  O_72
REMARK    3  A    between atoms: C_22  and  O_70
REMARK    4  A    between atoms: C_23  and  C_69
REMARK    5  A    between atoms: C_29  and  O_68
REMARK    6  A    between atoms: C_34  and  C_35
REMARK    7  A    between atoms: C_35  and  C_36
REMARK    8  A    between atoms: C_36  and  C_37
REMARK    9  A    between atoms: C_36  and  O_66
REMARK   10  A    between atoms: C_37  and  C_38
REMARK   11  A    between atoms: C_37  and  C_39
REMARK   12  A    between atoms: C_39  and  C_40
REMARK   13  A    between atoms: C_40  and  C_41
REMARK   14  A    between atoms: C_41  and  C_42
REMARK   15  A    between atoms: C_41  and  O_57
REMARK   16  A    between atoms: C_42  and  C_43
REMARK   17  A    between atoms: C_42  and  C_44
REMARK   18  A    between atoms: C_44  and  C_45
REMARK   19  A    between atoms: C_44  and  O_53
REMARK   20  A    between atoms: C_45  and  C_46
REMARK   21  A    between atoms: C_45  and  C_47
REMARK   22  A    between atoms: C_48  and  N_49
REMARK   23  A    between atoms: N_49  and  C_50
REMARK   24  A    between atoms: O_53  and  C_54
REMARK   25  A    between atoms: C_54  and  C_56
REMARK   26  A    between atoms: O_57  and  C_58
REMARK   27  A    between atoms: C_58  and  C_60
REMARK   28  A    between atoms: C_60  and  C_61
REMARK   29  A    between atoms: C_60  and  O_64
REMARK   30  A    between atoms: C_61  and  O_62
REMARK   31  A    between atoms: O_62  and  C_63
REMARK   32  A    between atoms: O_64  and  C_65
REMARK   33  A    between atoms: O_66  and  C_67
REMARK   34  A    between atoms: O_70  and  C_71
REMARK   35  A    between atoms: O_72  and  C_73
REMARK                            x       y       z     vdW  Elec       q    Type
REMARK                         _______ _______ _______ _____ _____    ______ ____
ROOT
ATOM      1  C   UNL     1     152.748 164.544 188.073  0.00  0.00    +0.011 C 
ATOM      2  H   UNL     1     152.449 163.683 188.680  0.00  0.00    +0.033 HD
ATOM      3  H   UNL     1     151.937 164.759 187.368  0.00  0.00    +0.033 HD
ENDROOT
BRANCH   1  36
ATOM      4  C   UNL     1     154.356 162.675 187.261  0.00  0.00    +0.020 C 
ATOM      5  C   UNL     1     154.814 162.103 188.634  0.00  0.00    +0.068 C 
ATOM      6  C   UNL     1     155.969 162.877 189.320  0.00  0.00    -0.008 C 
ATOM      7  C   UNL     1     157.082 163.358 188.430  0.00  0.00    -0.077 C 
ATOM      8  C   UNL     1     157.896 162.580 187.698  0.00  0.00    -0.003 C 
ATOM      9  C   UNL     1     158.899 163.180 186.886  0.00  0.00    +0.220 A 
ATOM     10  N   UNL     1     158.873 164.417 186.400  0.00  0.00    -0.205 NA
ATOM     11  C   UNL     1     160.098 164.604 185.813  0.00  0.00    +0.164 A 
ATOM     12  C   UNL     1     160.834 163.456 185.902  0.00  0.00    +0.125 A 
ATOM     13  O   UNL     1     160.075 162.523 186.541  0.00  0.00    -0.443 OA
ATOM     14  C   UNL     1     160.564 165.949 185.190  0.00  0.00    +0.250 A 
ATOM     15  N   UNL     1     159.759 166.990 185.048  0.00  0.00    -0.203 NA
ATOM     16  C   UNL     1     160.575 167.985 184.569  0.00  0.00    +0.164 A 
ATOM     17  C   UNL     1     161.842 167.501 184.391  0.00  0.00    +0.125 A 
ATOM     18  O   UNL     1     161.849 166.189 184.762  0.00  0.00    -0.442 OA
ATOM     19  C   UNL     1     160.113 169.439 184.258  0.00  0.00    +0.249 A 
ATOM     20  N   UNL     1     158.851 169.830 184.322  0.00  0.00    -0.210 NA
ATOM     21  C   UNL     1     158.866 171.141 183.896  0.00  0.00    +0.109 A 
ATOM     22  C   UNL     1     160.165 171.519 183.669  0.00  0.00    +0.118 A 
ATOM     23  O   UNL     1     160.970 170.435 183.848  0.00  0.00    -0.442 OA
ATOM     24  C   UNL     1     157.597 171.930 183.745  0.00  0.00    +0.113 C 
ATOM     25  C   UNL     1     156.962 171.837 182.342  0.00  0.00    +0.051 C 
ATOM     26  C   UNL     1     156.017 170.652 182.237  0.00  0.00    +0.161 C 
ATOM     27  O   UNL     1     154.798 170.833 182.202  0.00  0.00    -0.292 OA
ATOM     28  C   UNL     1     156.577 169.271 182.213  0.00  0.00    -0.023 C 
ATOM     29  C   UNL     1     155.766 168.204 182.297  0.00  0.00    -0.078 C 
ATOM     30  C   UNL     1     156.266 166.792 182.421  0.00  0.00    -0.008 C 
ATOM     31  C   UNL     1     155.993 166.196 183.811  0.00  0.00    +0.069 C 
ATOM     32  C   UNL     1     154.511 165.914 184.049  0.00  0.00    +0.071 C 
ATOM     33  C   UNL     1     154.291 165.811 185.530  0.00  0.00    +0.310 C 
ATOM     34  O   UNL     1     154.508 166.739 186.298  0.00  0.00    -0.251 OA
ATOM     35  O   UNL     1     153.870 164.572 185.884  0.00  0.00    -0.461 OA
ATOM     36  C   UNL     1     154.023 164.192 187.278  0.00  0.00    +0.110 C 
ATOM     37  H   UNL     1     155.176 162.520 186.541  0.00  0.00    +0.036 HD
ATOM     38  H   UNL     1     153.954 162.102 189.315  0.00  0.00    +0.060 HD
ATOM     39  H   UNL     1     155.543 163.755 189.813  0.00  0.00    +0.033 HD
ATOM     40  H   UNL     1     156.413 162.275 190.121  0.00  0.00    +0.033 HD
ATOM     41  H   UNL     1     157.207 164.443 188.388  0.00  0.00    +0.057 HD
ATOM     42  H   UNL     1     157.828 161.501 187.724  0.00  0.00    +0.067 HD
ATOM     43  H   UNL     1     161.817 163.143 185.586  0.00  0.00    +0.105 HD
ATOM     44  H   UNL     1     162.781 167.915 184.045  0.00  0.00    +0.105 HD
ATOM     45  H   UNL     1     160.640 172.435 183.343  0.00  0.00    +0.105 HD
ATOM     46  H   UNL     1     156.894 171.534 184.490  0.00  0.00    +0.067 HD
ATOM     47  H   UNL     1     156.314 172.718 182.220  0.00  0.00    +0.041 HD
ATOM     48  H   UNL     1     157.653 169.155 182.198  0.00  0.00    +0.065 HD
ATOM     49  H   UNL     1     154.688 168.353 182.314  0.00  0.00    +0.057 HD
ATOM     50  H   UNL     1     155.804 166.170 181.645  0.00  0.00    +0.033 HD
ATOM     51  H   UNL     1     157.346 166.750 182.224  0.00  0.00    +0.033 HD
ATOM     52  H   UNL     1     156.398 166.870 184.577  0.00  0.00    +0.060 HD
ATOM     53  H   UNL     1     153.856 166.721 183.700  0.00  0.00    +0.040 HD
ATOM     54  H   UNL     1     154.192 164.987 183.554  0.00  0.00    +0.040 HD
ATOM     55  H   UNL     1     154.896 164.716 187.669  0.00  0.00    +0.074 HD
BRANCH   4  56
ATOM     56  C   UNL     1     153.189 161.850 186.687  0.00  0.00    -0.057 C 
ATOM     57  H   UNL     1     153.353 161.616 185.632  0.00  0.00    +0.023 HD
ATOM     58  H   UNL     1     152.244 162.390 186.770  0.00  0.00    +0.023 HD
ATOM     59  H   UNL     1     153.079 160.896 187.213  0.00  0.00    +0.023 HD
ENDBRANCH   4  56
BRANCH  25  60
ATOM     60  C   UNL     1     157.934 171.911 181.165  0.00  0.00    -0.053 C 
ATOM     61  H   UNL     1     157.744 172.768 180.510  0.00  0.00    +0.024 HD
ATOM     62  H   UNL     1     157.885 170.996 180.564  0.00  0.00    +0.024 HD
ATOM     63  H   UNL     1     158.962 172.015 181.536  0.00  0.00    +0.024 HD
ENDBRANCH  25  60
BRANCH  31  64
ATOM     64  O   UNL     1     156.700 164.956 183.917  0.00  0.00    -0.391 OA
ATOM     65  H   UNL     1     157.635 165.180 184.110  0.00  0.00    +0.210 HD
ENDBRANCH  31  64
BRANCH  24  66
ATOM     66  O   UNL     1     157.855 173.317 184.043  0.00  0.00    -0.373 OA
BRANCH  66  67
ATOM     67  C   UNL     1     156.689 174.122 183.897  0.00  0.00    +0.037 C 
ATOM     68  H   UNL     1     156.664 174.600 182.913  0.00  0.00    +0.052 HD
ATOM     69  H   UNL     1     155.787 173.517 184.042  0.00  0.00    +0.052 HD
ATOM     70  H   UNL     1     156.712 174.901 184.663  0.00  0.00    +0.052 HD
ENDBRANCH  66  67
ENDBRANCH  24  66
BRANCH   5  71
ATOM     71  O   UNL     1     155.224 160.733 188.428  0.00  0.00    -0.379 OA
BRANCH  71  72
ATOM     72  C   UNL     1     155.734 160.129 189.611  0.00  0.00    +0.037 C 
ATOM     73  H   UNL     1     155.768 160.839 190.442  0.00  0.00    +0.052 HD
ATOM     74  H   UNL     1     156.753 159.786 189.403  0.00  0.00    +0.052 HD
ATOM     75  H   UNL     1     155.126 159.260 189.885  0.00  0.00    +0.052 HD
ENDBRANCH  71  72
ENDBRANCH   5  71
ENDBRANCH   1  36
BRANCH   1  76
ATOM     76  C   UNL     1     152.923 165.728 189.038  0.00  0.00    +0.064 C 
ATOM     77  H   UNL     1     153.727 166.381 188.684  0.00  0.00    +0.060 HD
BRANCH  76  78
ATOM     78  C   UNL     1     151.628 166.569 189.215  0.00  0.00    -0.017 C 
ATOM     79  H   UNL     1     151.911 167.620 189.147  0.00  0.00    +0.032 HD
BRANCH  78  80
ATOM     80  C   UNL     1     150.682 166.280 188.024  0.00  0.00    -0.060 C 
ATOM     81  H   UNL     1     150.176 165.315 188.152  0.00  0.00    +0.023 HD
ATOM     82  H   UNL     1     149.898 167.038 187.941  0.00  0.00    +0.023 HD
ATOM     83  H   UNL     1     151.239 166.249 187.082  0.00  0.00    +0.023 HD
ENDBRANCH  78  80
BRANCH  78  84
ATOM     84  C   UNL     1     150.812 166.330 190.497  0.00  0.00    -0.045 C 
ATOM     85  H   UNL     1     149.926 165.730 190.236  0.00  0.00    +0.027 HD
ATOM     86  H   UNL     1     151.394 165.686 191.178  0.00  0.00    +0.027 HD
BRANCH  84  87
ATOM     87  C   UNL     1     150.267 167.520 191.304  0.00  0.00    -0.015 C 
ATOM     88  H   UNL     1     150.680 167.366 192.308  0.00  0.00    +0.030 HD
ATOM     89  H   UNL     1     150.721 168.452 190.950  0.00  0.00    +0.030 HD
BRANCH  87  90
ATOM     90  C   UNL     1     148.740 167.729 191.443  0.00  0.00    +0.109 C 
ATOM     91  H   UNL     1     148.559 168.109 192.456  0.00  0.00    +0.074 HD
BRANCH  90  92
ATOM     92  C   UNL     1     147.960 166.382 191.226  0.00  0.00    +0.031 C 
ATOM     93  H   UNL     1     148.694 165.568 191.270  0.00  0.00    +0.037 HD
BRANCH  92  94
ATOM     94  C   UNL     1     147.376 166.272 189.804  0.00  0.00    -0.056 C 
ATOM     95  H   UNL     1     146.364 166.677 189.756  0.00  0.00    +0.023 HD
ATOM     96  H   UNL     1     147.364 165.236 189.455  0.00  0.00    +0.023 HD
ATOM     97  H   UNL     1     147.971 166.860 189.093  0.00  0.00    +0.023 HD
ENDBRANCH  92  94
BRANCH  92  98
ATOM     98  C   UNL     1     146.799 166.089 192.232  0.00  0.00    +0.115 C 
ATOM     99  H   UNL     1     146.329 165.135 191.949  0.00  0.00    +0.074 HD
BRANCH  98 100
ATOM    100  C   UNL     1     147.223 165.889 193.718  0.00  0.00    +0.013 C 
ATOM    101  H   UNL     1     146.543 165.189 194.208  0.00  0.00    +0.038 HD
BRANCH 100 102
ATOM    102  C   UNL     1     147.207 167.210 194.502  0.00  0.00    -0.056 C 
ATOM    103  H   UNL     1     146.233 167.712 194.427  0.00  0.00    +0.024 HD
ATOM    104  H   UNL     1     147.414 167.044 195.570  0.00  0.00    +0.024 HD
ATOM    105  H   UNL     1     147.957 167.909 194.120  0.00  0.00    +0.024 HD
ENDBRANCH 100 102
BRANCH 100 106
ATOM    106  C   UNL     1     148.626 165.310 193.811  0.00  0.00    -0.064 C 
ATOM    107  C   UNL     1     149.482 165.604 194.800  0.00  0.00    -0.005 C 
ATOM    108  H   UNL     1     148.915 164.640 193.004  0.00  0.00    +0.059 HD
ATOM    109  H   UNL     1     149.159 166.308 195.566  0.00  0.00    +0.078 HD
BRANCH 107 110
ATOM    110  N   UNL     1     150.775 165.134 194.963  0.00  0.00    -0.284 N 
ATOM    111  C   UNL     1     151.169 164.150 195.871  0.00  0.00    +0.206 C 
ATOM    112  O   UNL     1     150.484 163.521 196.671  0.00  0.00    -0.279 OA
ATOM    113  H   UNL     1     152.253 163.955 195.822  0.00  0.00    +0.126 HD
BRANCH 110 114
ATOM    114  C   UNL     1     151.802 165.729 194.111  0.00  0.00    +0.007 C 
ATOM    115  H   UNL     1     151.736 165.284 193.111  0.00  0.00    +0.043 HD
ATOM    116  H   UNL     1     152.809 165.551 194.501  0.00  0.00    +0.043 HD
ATOM    117  H   UNL     1     151.636 166.809 194.045  0.00  0.00    +0.043 HD
ENDBRANCH 110 114
ENDBRANCH 107 110
ENDBRANCH 100 106
ENDBRANCH  98 100
BRANCH  98 118
ATOM    118  O   UNL     1     145.817 167.150 192.173  0.00  0.00    -0.461 OA
BRANCH 118 119
ATOM    119  C   UNL     1     144.518 166.784 192.377  0.00  0.00    +0.304 C 
ATOM    120  O   UNL     1     143.778 167.218 193.246  0.00  0.00    -0.251 OA
BRANCH 119 121
ATOM    121  C   UNL     1     144.114 165.726 191.395  0.00  0.00    +0.033 C 
ATOM    122  H   UNL     1     143.375 165.068 191.856  0.00  0.00    +0.034 HD
ATOM    123  H   UNL     1     144.993 165.159 191.075  0.00  0.00    +0.034 HD
ATOM    124  H   UNL     1     143.682 166.199 190.509  0.00  0.00    +0.034 HD
ENDBRANCH 119 121
ENDBRANCH 118 119
ENDBRANCH  98 118
ENDBRANCH  92  98
ENDBRANCH  90  92
BRANCH  90 125
ATOM    125  O   UNL     1     148.309 168.725 190.481  0.00  0.00    -0.459 OA
BRANCH 125 126
ATOM    126  C   UNL     1     147.739 169.865 190.998  0.00  0.00    +0.339 C 
ATOM    127  O   UNL     1     147.881 170.235 192.157  0.00  0.00    -0.248 OA
BRANCH 126 128
ATOM    128  C   UNL     1     146.834 170.591 189.988  0.00  0.00    +0.178 C 
ATOM    129  H   UNL     1     147.372 170.581 189.026  0.00  0.00    +0.074 HD
BRANCH 128 130
ATOM    130  C   UNL     1     145.532 169.805 189.819  0.00  0.00    +0.084 C 
ATOM    131  H   UNL     1     145.544 168.919 190.458  0.00  0.00    +0.059 HD
ATOM    132  H   UNL     1     144.689 170.421 190.155  0.00  0.00    +0.059 HD
BRANCH 130 133
ATOM    133  O   UNL     1     145.324 169.430 188.460  0.00  0.00    -0.380 OA
BRANCH 133 134
ATOM    134  C   UNL     1     146.444 169.758 187.649  0.00  0.00    +0.037 C 
ATOM    135  H   UNL     1     146.777 168.874 187.095  0.00  0.00    +0.052 HD
ATOM    136  H   UNL     1     146.139 170.525 186.932  0.00  0.00    +0.052 HD
ATOM    137  H   UNL     1     147.268 170.149 188.255  0.00  0.00    +0.052 HD
ENDBRANCH 133 134
ENDBRANCH 130 133
ENDBRANCH 128 130
BRANCH 128 138
ATOM    138  O   UNL     1     146.487 171.937 190.323  0.00  0.00    -0.366 OA
BRANCH 138 139
ATOM    139  C   UNL     1     145.138 172.057 190.749  0.00  0.00    +0.038 C 
ATOM    140  H   UNL     1     145.120 172.650 191.668  0.00  0.00    +0.052 HD
ATOM    141  H   UNL     1     144.717 171.070 190.969  0.00  0.00    +0.052 HD
ATOM    142  H   UNL     1     144.530 172.564 189.995  0.00  0.00    +0.052 HD
ENDBRANCH 138 139
ENDBRANCH 128 138
ENDBRANCH 126 128
ENDBRANCH 125 126
ENDBRANCH  90 125
ENDBRANCH  87  90
ENDBRANCH  84  87
ENDBRANCH  78  84
ENDBRANCH  76  78
BRANCH  76 143
ATOM    143  O   UNL     1     153.222 165.180 190.335  0.00  0.00    -0.379 OA
BRANCH 143 144
ATOM    144  C   UNL     1     154.313 165.814 190.991  0.00  0.00    +0.037 C 
ATOM    145  H   UNL     1     155.188 165.756 190.333  0.00  0.00    +0.052 HD
ATOM    146  H   UNL     1     154.561 165.327 191.941  0.00  0.00    +0.052 HD
ATOM    147  H   UNL     1     154.095 166.870 191.159  0.00  0.00    +0.052 HD
ENDBRANCH 143 144
ENDBRANCH  76 143
ENDBRANCH   1  76
TORSDOF 35
ENDMDL
MODEL 9
REMARK VINA RESULT:      -5.8      1.359      3.479
REMARK  Name = Mycalolide B_conf3
REMARK  35 active torsions:
REMARK  status: ('A' for Active; 'I' for Inactive)
REMARK    1  A    between atoms: C_1  and  C_2
REMARK    2  A    between atoms: C_3  and  O_72
REMARK    3  A    between atoms: C_22  and  O_70
REMARK    4  A    between atoms: C_23  and  C_69
REMARK    5  A    between atoms: C_29  and  O_68
REMARK    6  A    between atoms: C_34  and  C_35
REMARK    7  A    between atoms: C_35  and  C_36
REMARK    8  A    between atoms: C_36  and  C_37
REMARK    9  A    between atoms: C_36  and  O_66
REMARK   10  A    between atoms: C_37  and  C_38
REMARK   11  A    between atoms: C_37  and  C_39
REMARK   12  A    between atoms: C_39  and  C_40
REMARK   13  A    between atoms: C_40  and  C_41
REMARK   14  A    between atoms: C_41  and  C_42
REMARK   15  A    between atoms: C_41  and  O_57
REMARK   16  A    between atoms: C_42  and  C_43
REMARK   17  A    between atoms: C_42  and  C_44
REMARK   18  A    between atoms: C_44  and  C_45
REMARK   19  A    between atoms: C_44  and  O_53
REMARK   20  A    between atoms: C_45  and  C_46
REMARK   21  A    between atoms: C_45  and  C_47
REMARK   22  A    between atoms: C_48  and  N_49
REMARK   23  A    between atoms: N_49  and  C_50
REMARK   24  A    between atoms: O_53  and  C_54
REMARK   25  A    between atoms: C_54  and  C_56
REMARK   26  A    between atoms: O_57  and  C_58
REMARK   27  A    between atoms: C_58  and  C_60
REMARK   28  A    between atoms: C_60  and  C_61
REMARK   29  A    between atoms: C_60  and  O_64
REMARK   30  A    between atoms: C_61  and  O_62
REMARK   31  A    between atoms: O_62  and  C_63
REMARK   32  A    between atoms: O_64  and  C_65
REMARK   33  A    between atoms: O_66  and  C_67
REMARK   34  A    between atoms: O_70  and  C_71
REMARK   35  A    between atoms: O_72  and  C_73
REMARK                            x       y       z     vdW  Elec       q    Type
REMARK                         _______ _______ _______ _____ _____    ______ ____
ROOT
ATOM      1  C   UNL     1     153.944 164.587 188.451  0.00  0.00    +0.011 C 
ATOM      2  H   UNL     1     153.796 163.736 189.124  0.00  0.00    +0.033 HD
ATOM      3  H   UNL     1     153.035 164.705 187.851  0.00  0.00    +0.033 HD
ENDROOT
BRANCH   1  36
ATOM      4  C   UNL     1     155.548 162.800 187.467  0.00  0.00    +0.020 C 
ATOM      5  C   UNL     1     156.201 162.276 188.778  0.00  0.00    +0.068 C 
ATOM      6  C   UNL     1     157.383 163.126 189.313  0.00  0.00    -0.008 C 
ATOM      7  C   UNL     1     158.351 163.655 188.289  0.00  0.00    -0.077 C 
ATOM      8  C   UNL     1     159.114 162.914 187.471  0.00  0.00    -0.003 C 
ATOM      9  C   UNL     1     159.976 163.557 186.538  0.00  0.00    +0.220 A 
ATOM     10  N   UNL     1     159.818 164.783 186.048  0.00  0.00    -0.205 NA
ATOM     11  C   UNL     1     160.951 165.030 185.315  0.00  0.00    +0.164 A 
ATOM     12  C   UNL     1     161.757 163.927 185.323  0.00  0.00    +0.125 A 
ATOM     13  O   UNL     1     161.137 162.963 186.058  0.00  0.00    -0.443 OA
ATOM     14  C   UNL     1     161.258 166.389 184.628  0.00  0.00    +0.250 A 
ATOM     15  N   UNL     1     160.382 167.380 184.575  0.00  0.00    -0.203 NA
ATOM     16  C   UNL     1     161.075 168.412 183.992  0.00  0.00    +0.164 A 
ATOM     17  C   UNL     1     162.337 167.998 183.665  0.00  0.00    +0.125 A 
ATOM     18  O   UNL     1     162.466 166.694 184.044  0.00  0.00    -0.442 OA
ATOM     19  C   UNL     1     160.495 169.833 183.727  0.00  0.00    +0.249 A 
ATOM     20  N   UNL     1     159.229 170.152 183.939  0.00  0.00    -0.210 NA
ATOM     21  C   UNL     1     159.116 171.455 183.504  0.00  0.00    +0.109 A 
ATOM     22  C   UNL     1     160.354 171.902 183.117  0.00  0.00    +0.118 A 
ATOM     23  O   UNL     1     161.237 170.869 183.206  0.00  0.00    -0.442 OA
ATOM     24  C   UNL     1     157.794 172.168 183.500  0.00  0.00    +0.113 C 
ATOM     25  C   UNL     1     157.000 172.016 182.186  0.00  0.00    +0.051 C 
ATOM     26  C   UNL     1     156.121 170.778 182.207  0.00  0.00    +0.161 C 
ATOM     27  O   UNL     1     154.898 170.888 182.319  0.00  0.00    -0.292 OA
ATOM     28  C   UNL     1     156.754 169.431 182.127  0.00  0.00    -0.023 C 
ATOM     29  C   UNL     1     156.022 168.321 182.319  0.00  0.00    -0.078 C 
ATOM     30  C   UNL     1     156.615 166.941 182.394  0.00  0.00    -0.008 C 
ATOM     31  C   UNL     1     156.548 166.353 183.812  0.00  0.00    +0.069 C 
ATOM     32  C   UNL     1     155.125 165.991 184.231  0.00  0.00    +0.071 C 
ATOM     33  C   UNL     1     155.091 165.900 185.729  0.00  0.00    +0.310 C 
ATOM     34  O   UNL     1     155.345 166.850 186.456  0.00  0.00    -0.251 OA
ATOM     35  O   UNL     1     154.789 164.644 186.142  0.00  0.00    -0.461 OA
ATOM     36  C   UNL     1     155.132 164.296 187.510  0.00  0.00    +0.110 C 
ATOM     37  H   UNL     1     156.283 162.680 186.654  0.00  0.00    +0.036 HD
ATOM     38  H   UNL     1     155.431 162.237 189.559  0.00  0.00    +0.060 HD
ATOM     39  H   UNL     1     156.969 163.987 189.846  0.00  0.00    +0.033 HD
ATOM     40  H   UNL     1     157.956 162.564 190.059  0.00  0.00    +0.033 HD
ATOM     41  H   UNL     1     158.406 164.745 188.223  0.00  0.00    +0.057 HD
ATOM     42  H   UNL     1     159.113 161.833 187.515  0.00  0.00    +0.067 HD
ATOM     43  H   UNL     1     162.712 163.665 184.893  0.00  0.00    +0.105 HD
ATOM     44  H   UNL     1     163.202 168.460 183.204  0.00  0.00    +0.105 HD
ATOM     45  H   UNL     1     160.731 172.839 182.727  0.00  0.00    +0.105 HD
ATOM     46  H   UNL     1     157.211 171.744 184.329  0.00  0.00    +0.067 HD
ATOM     47  H   UNL     1     156.292 172.857 182.136  0.00  0.00    +0.041 HD
ATOM     48  H   UNL     1     157.825 169.376 181.983  0.00  0.00    +0.065 HD
ATOM     49  H   UNL     1     154.948 168.408 182.466  0.00  0.00    +0.057 HD
ATOM     50  H   UNL     1     156.100 166.282 181.685  0.00  0.00    +0.033 HD
ATOM     51  H   UNL     1     157.664 166.958 182.067  0.00  0.00    +0.033 HD
ATOM     52  H   UNL     1     157.002 167.061 184.517  0.00  0.00    +0.060 HD
ATOM     53  H   UNL     1     154.386 166.754 183.957  0.00  0.00    +0.040 HD
ATOM     54  H   UNL     1     154.802 165.040 183.787  0.00  0.00    +0.040 HD
ATOM     55  H   UNL     1     156.013 164.875 187.788  0.00  0.00    +0.074 HD
BRANCH   4  56
ATOM     56  C   UNL     1     154.370 161.901 187.047  0.00  0.00    -0.057 C 
ATOM     57  H   UNL     1     153.839 162.324 186.189  0.00  0.00    +0.023 HD
ATOM     58  H   UNL     1     153.654 161.780 187.861  0.00  0.00    +0.023 HD
ATOM     59  H   UNL     1     154.715 160.906 186.750  0.00  0.00    +0.023 HD
ENDBRANCH   4  56
BRANCH  25  60
ATOM     60  C   UNL     1     157.817 172.126 180.899  0.00  0.00    -0.053 C 
ATOM     61  H   UNL     1     157.673 171.271 180.231  0.00  0.00    +0.024 HD
ATOM     62  H   UNL     1     158.886 172.217 181.124  0.00  0.00    +0.024 HD
ATOM     63  H   UNL     1     157.515 173.022 180.339  0.00  0.00    +0.024 HD
ENDBRANCH  25  60
BRANCH  31  64
ATOM     64  O   UNL     1     157.334 165.157 183.843  0.00  0.00    -0.391 OA
ATOM     65  H   UNL     1     156.715 164.417 184.019  0.00  0.00    +0.210 HD
ENDBRANCH  31  64
BRANCH  24  66
ATOM     66  O   UNL     1     158.004 173.572 183.753  0.00  0.00    -0.373 OA
BRANCH  66  67
ATOM     67  C   UNL     1     156.798 174.320 183.651  0.00  0.00    +0.037 C 
ATOM     68  H   UNL     1     155.992 173.710 183.232  0.00  0.00    +0.052 HD
ATOM     69  H   UNL     1     156.503 174.706 184.633  0.00  0.00    +0.052 HD
ATOM     70  H   UNL     1     156.976 175.168 182.985  0.00  0.00    +0.052 HD
ENDBRANCH  66  67
ENDBRANCH  24  66
BRANCH   5  71
ATOM     71  O   UNL     1     156.663 160.930 188.537  0.00  0.00    -0.379 OA
BRANCH  71  72
ATOM     72  C   UNL     1     157.263 160.340 189.684  0.00  0.00    +0.037 C 
ATOM     73  H   UNL     1     157.528 159.294 189.506  0.00  0.00    +0.052 HD
ATOM     74  H   UNL     1     156.538 160.382 190.504  0.00  0.00    +0.052 HD
ATOM     75  H   UNL     1     158.152 160.907 189.980  0.00  0.00    +0.052 HD
ENDBRANCH  71  72
ENDBRANCH   5  71
ENDBRANCH   1  36
BRANCH   1  76
ATOM     76  C   UNL     1     154.142 165.827 189.339  0.00  0.00    +0.064 C 
ATOM     77  H   UNL     1     154.513 166.661 188.736  0.00  0.00    +0.060 HD
BRANCH  76  78
ATOM     78  C   UNL     1     152.844 166.268 190.072  0.00  0.00    -0.017 C 
ATOM     79  H   UNL     1     152.652 167.306 189.797  0.00  0.00    +0.032 HD
BRANCH  78  80
ATOM     80  C   UNL     1     151.660 165.432 189.529  0.00  0.00    -0.060 C 
ATOM     81  H   UNL     1     151.379 165.761 188.522  0.00  0.00    +0.023 HD
ATOM     82  H   UNL     1     151.918 164.372 189.455  0.00  0.00    +0.023 HD
ATOM     83  H   UNL     1     150.782 165.533 190.175  0.00  0.00    +0.023 HD
ENDBRANCH  78  80
BRANCH  78  84
ATOM     84  C   UNL     1     152.826 166.121 191.603  0.00  0.00    -0.045 C 
ATOM     85  H   UNL     1     152.094 165.341 191.867  0.00  0.00    +0.027 HD
ATOM     86  H   UNL     1     153.797 165.719 191.937  0.00  0.00    +0.027 HD
BRANCH  84  87
ATOM     87  C   UNL     1     152.468 167.323 192.494  0.00  0.00    -0.015 C 
ATOM     88  H   UNL     1     152.862 167.045 193.478  0.00  0.00    +0.030 HD
ATOM     89  H   UNL     1     153.051 168.200 192.192  0.00  0.00    +0.030 HD
BRANCH  87  90
ATOM     90  C   UNL     1     150.989 167.743 192.673  0.00  0.00    +0.109 C 
ATOM     91  H   UNL     1     150.936 168.352 193.584  0.00  0.00    +0.074 HD
BRANCH  90  92
ATOM     92  C   UNL     1     150.054 166.487 192.810  0.00  0.00    +0.031 C 
ATOM     93  H   UNL     1     150.665 165.601 192.601  0.00  0.00    +0.037 HD
BRANCH  92  94
ATOM     94  C   UNL     1     148.968 166.450 191.717  0.00  0.00    -0.056 C 
ATOM     95  H   UNL     1     148.830 165.440 191.326  0.00  0.00    +0.023 HD
ATOM     96  H   UNL     1     149.208 167.123 190.891  0.00  0.00    +0.023 HD
ATOM     97  H   UNL     1     147.995 166.752 192.125  0.00  0.00    +0.023 HD
ENDBRANCH  92  94
BRANCH  92  98
ATOM     98  C   UNL     1     149.336 166.310 194.188  0.00  0.00    +0.115 C 
ATOM     99  H   UNL     1     149.895 166.881 194.945  0.00  0.00    +0.074 HD
BRANCH  98 100
ATOM    100  C   UNL     1     147.884 166.869 194.273  0.00  0.00    +0.013 C 
ATOM    101  H   UNL     1     147.867 167.912 193.949  0.00  0.00    +0.038 HD
BRANCH 100 102
ATOM    102  C   UNL     1     147.323 166.797 195.701  0.00  0.00    -0.056 C 
ATOM    103  H   UNL     1     146.959 167.776 196.042  0.00  0.00    +0.024 HD
ATOM    104  H   UNL     1     146.482 166.090 195.766  0.00  0.00    +0.024 HD
ATOM    105  H   UNL     1     148.088 166.475 196.414  0.00  0.00    +0.024 HD
ENDBRANCH 100 102
BRANCH 100 106
ATOM    106  C   UNL     1     146.946 166.089 193.365  0.00  0.00    -0.064 C 
ATOM    107  C   UNL     1     145.705 166.496 193.061  0.00  0.00    -0.005 C 
ATOM    108  H   UNL     1     147.336 165.150 192.978  0.00  0.00    +0.059 HD
ATOM    109  H   UNL     1     145.347 167.426 193.501  0.00  0.00    +0.078 HD
BRANCH 107 110
ATOM    110  N   UNL     1     144.781 165.852 192.254  0.00  0.00    -0.284 N 
ATOM    111  C   UNL     1     143.425 165.693 192.547  0.00  0.00    +0.206 C 
ATOM    112  O   UNL     1     142.799 166.075 193.528  0.00  0.00    -0.279 OA
ATOM    113  H   UNL     1     142.897 165.135 191.756  0.00  0.00    +0.126 HD
BRANCH 110 114
ATOM    114  C   UNL     1     145.280 165.296 190.999  0.00  0.00    +0.007 C 
ATOM    115  H   UNL     1     145.504 166.119 190.310  0.00  0.00    +0.043 HD
ATOM    116  H   UNL     1     144.545 164.639 190.523  0.00  0.00    +0.043 HD
ATOM    117  H   UNL     1     146.190 164.722 191.194  0.00  0.00    +0.043 HD
ENDBRANCH 110 114
ENDBRANCH 107 110
ENDBRANCH 100 106
ENDBRANCH  98 100
BRANCH  98 118
ATOM    118  O   UNL     1     149.312 164.911 194.555  0.00  0.00    -0.461 OA
BRANCH 118 119
ATOM    119  C   UNL     1     150.237 164.512 195.475  0.00  0.00    +0.304 C 
ATOM    120  O   UNL     1     150.675 163.378 195.607  0.00  0.00    -0.251 OA
BRANCH 119 121
ATOM    121  C   UNL     1     150.634 165.662 196.350  0.00  0.00    +0.033 C 
ATOM    122  H   UNL     1     151.695 165.876 196.207  0.00  0.00    +0.034 HD
ATOM    123  H   UNL     1     150.422 165.425 197.396  0.00  0.00    +0.034 HD
ATOM    124  H   UNL     1     150.044 166.542 196.082  0.00  0.00    +0.034 HD
ENDBRANCH 119 121
ENDBRANCH 118 119
ENDBRANCH  98 118
ENDBRANCH  92  98
ENDBRANCH  90  92
BRANCH  90 125
ATOM    125  O   UNL     1     150.586 168.553 191.539  0.00  0.00    -0.459 OA
BRANCH 125 126
ATOM    126  C   UNL     1     150.953 169.878 191.576  0.00  0.00    +0.339 C 
ATOM    127  O   UNL     1     152.084 170.281 191.335  0.00  0.00    -0.248 OA
BRANCH 126 128
ATOM    128  C   UNL     1     149.810 170.801 192.032  0.00  0.00    +0.178 C 
ATOM    129  H   UNL     1     149.620 171.495 191.197  0.00  0.00    +0.074 HD
BRANCH 128 130
ATOM    130  C   UNL     1     148.548 169.967 192.261  0.00  0.00    +0.084 C 
ATOM    131  H   UNL     1     148.761 168.909 192.091  0.00  0.00    +0.059 HD
ATOM    132  H   UNL     1     148.237 170.057 193.309  0.00  0.00    +0.059 HD
BRANCH 130 133
ATOM    133  O   UNL     1     147.481 170.397 191.419  0.00  0.00    -0.380 OA
BRANCH 133 134
ATOM    134  C   UNL     1     147.542 169.779 190.141  0.00  0.00    +0.037 C 
ATOM    135  H   UNL     1     147.159 170.463 189.375  0.00  0.00    +0.052 HD
ATOM    136  H   UNL     1     148.587 169.553 189.915  0.00  0.00    +0.052 HD
ATOM    137  H   UNL     1     146.967 168.847 190.126  0.00  0.00    +0.052 HD
ENDBRANCH 133 134
ENDBRANCH 130 133
ENDBRANCH 128 130
BRANCH 128 138
ATOM    138  O   UNL     1     150.057 171.550 193.224  0.00  0.00    -0.366 OA
BRANCH 138 139
ATOM    139  C   UNL     1     149.057 172.529 193.463  0.00  0.00    +0.038 C 
ATOM    140  H   UNL     1     149.267 173.395 192.829  0.00  0.00    +0.052 HD
ATOM    141  H   UNL     1     149.082 172.855 194.509  0.00  0.00    +0.052 HD
ATOM    142  H   UNL     1     148.063 172.147 193.213  0.00  0.00    +0.052 HD
ENDBRANCH 138 139
ENDBRANCH 128 138
ENDBRANCH 126 128
ENDBRANCH 125 126
ENDBRANCH  90 125
ENDBRANCH  87  90
ENDBRANCH  84  87
ENDBRANCH  78  84
ENDBRANCH  76  78
BRANCH  76 143
ATOM    143  O   UNL     1     155.079 165.466 190.372  0.00  0.00    -0.379 OA
BRANCH 143 144
ATOM    144  C   UNL     1     156.253 166.268 190.391  0.00  0.00    +0.037 C 
ATOM    145  H   UNL     1     156.613 166.372 189.361  0.00  0.00    +0.052 HD
ATOM    146  H   UNL     1     157.049 165.817 190.993  0.00  0.00    +0.052 HD
ATOM    147  H   UNL     1     156.023 167.268 190.763  0.00  0.00    +0.052 HD
ENDBRANCH 143 144
ENDBRANCH  76 143
ENDBRANCH   1  76
TORSDOF 35
ENDMDL
MODEL 10
REMARK VINA RESULT:      -5.8      3.046     12.455
REMARK  Name = Mycalolide B_conf3
REMARK  35 active torsions:
REMARK  status: ('A' for Active; 'I' for Inactive)
REMARK    1  A    between atoms: C_1  and  C_2
REMARK    2  A    between atoms: C_3  and  O_72
REMARK    3  A    between atoms: C_22  and  O_70
REMARK    4  A    between atoms: C_23  and  C_69
REMARK    5  A    between atoms: C_29  and  O_68
REMARK    6  A    between atoms: C_34  and  C_35
REMARK    7  A    between atoms: C_35  and  C_36
REMARK    8  A    between atoms: C_36  and  C_37
REMARK    9  A    between atoms: C_36  and  O_66
REMARK   10  A    between atoms: C_37  and  C_38
REMARK   11  A    between atoms: C_37  and  C_39
REMARK   12  A    between atoms: C_39  and  C_40
REMARK   13  A    between atoms: C_40  and  C_41
REMARK   14  A    between atoms: C_41  and  C_42
REMARK   15  A    between atoms: C_41  and  O_57
REMARK   16  A    between atoms: C_42  and  C_43
REMARK   17  A    between atoms: C_42  and  C_44
REMARK   18  A    between atoms: C_44  and  C_45
REMARK   19  A    between atoms: C_44  and  O_53
REMARK   20  A    between atoms: C_45  and  C_46
REMARK   21  A    between atoms: C_45  and  C_47
REMARK   22  A    between atoms: C_48  and  N_49
REMARK   23  A    between atoms: N_49  and  C_50
REMARK   24  A    between atoms: O_53  and  C_54
REMARK   25  A    between atoms: C_54  and  C_56
REMARK   26  A    between atoms: O_57  and  C_58
REMARK   27  A    between atoms: C_58  and  C_60
REMARK   28  A    between atoms: C_60  and  C_61
REMARK   29  A    between atoms: C_60  and  O_64
REMARK   30  A    between atoms: C_61  and  O_62
REMARK   31  A    between atoms: O_62  and  C_63
REMARK   32  A    between atoms: O_64  and  C_65
REMARK   33  A    between atoms: O_66  and  C_67
REMARK   34  A    between atoms: O_70  and  C_71
REMARK   35  A    between atoms: O_72  and  C_73
REMARK                            x       y       z     vdW  Elec       q    Type
REMARK                         _______ _______ _______ _____ _____    ______ ____
ROOT
ATOM      1  C   UNL     1     158.163 166.304 185.136  0.00  0.00    +0.011 C 
ATOM      2  H   UNL     1     158.970 165.803 184.591  0.00  0.00    +0.033 HD
ATOM      3  H   UNL     1     158.483 166.427 186.177  0.00  0.00    +0.033 HD
ENDROOT
BRANCH   1  36
ATOM      4  C   UNL     1     156.924 164.325 184.002  0.00  0.00    +0.020 C 
ATOM      5  C   UNL     1     156.822 164.872 182.549  0.00  0.00    +0.068 C 
ATOM      6  C   UNL     1     155.638 165.838 182.288  0.00  0.00    -0.008 C 
ATOM      7  C   UNL     1     154.322 165.480 182.925  0.00  0.00    -0.077 C 
ATOM      8  C   UNL     1     153.608 164.370 182.685  0.00  0.00    -0.003 C 
ATOM      9  C   UNL     1     152.383 164.158 183.378  0.00  0.00    +0.220 A 
ATOM     10  N   UNL     1     152.051 164.683 184.553  0.00  0.00    -0.205 NA
ATOM     11  C   UNL     1     150.741 164.329 184.753  0.00  0.00    +0.164 A 
ATOM     12  C   UNL     1     150.311 163.544 183.721  0.00  0.00    +0.125 A 
ATOM     13  O   UNL     1     151.351 163.386 182.856  0.00  0.00    -0.443 OA
ATOM     14  C   UNL     1     149.890 164.805 185.963  0.00  0.00    +0.250 A 
ATOM     15  N   UNL     1     150.404 165.480 186.980  0.00  0.00    -0.203 NA
ATOM     16  C   UNL     1     149.319 165.792 187.760  0.00  0.00    +0.164 A 
ATOM     17  C   UNL     1     148.185 165.255 187.215  0.00  0.00    +0.125 A 
ATOM     18  O   UNL     1     148.535 164.597 186.073  0.00  0.00    -0.442 OA
ATOM     19  C   UNL     1     149.381 166.619 189.078  0.00  0.00    +0.249 A 
ATOM     20  N   UNL     1     150.514 167.009 189.637  0.00  0.00    -0.210 NA
ATOM     21  C   UNL     1     150.135 167.627 190.810  0.00  0.00    +0.109 A 
ATOM     22  C   UNL     1     148.765 167.658 190.871  0.00  0.00    +0.118 A 
ATOM     23  O   UNL     1     148.267 166.979 189.801  0.00  0.00    -0.442 OA
ATOM     24  C   UNL     1     151.151 168.145 191.787  0.00  0.00    +0.113 C 
ATOM     25  C   UNL     1     151.571 167.119 192.861  0.00  0.00    +0.051 C 
ATOM     26  C   UNL     1     152.736 166.266 192.388  0.00  0.00    +0.161 C 
ATOM     27  O   UNL     1     153.861 166.436 192.862  0.00  0.00    -0.292 OA
ATOM     28  C   UNL     1     152.511 165.247 191.323  0.00  0.00    -0.023 C 
ATOM     29  C   UNL     1     153.549 164.604 190.765  0.00  0.00    -0.078 C 
ATOM     30  C   UNL     1     153.411 163.672 189.593  0.00  0.00    -0.008 C 
ATOM     31  C   UNL     1     154.020 164.256 188.308  0.00  0.00    +0.069 C 
ATOM     32  C   UNL     1     155.546 164.310 188.353  0.00  0.00    +0.071 C 
ATOM     33  C   UNL     1     156.005 165.302 187.324  0.00  0.00    +0.310 C 
ATOM     34  O   UNL     1     155.699 166.486 187.363  0.00  0.00    -0.251 OA
ATOM     35  O   UNL     1     156.748 164.707 186.359  0.00  0.00    -0.461 OA
ATOM     36  C   UNL     1     156.898 165.420 185.103  0.00  0.00    +0.110 C 
ATOM     37  H   UNL     1     156.062 163.659 184.172  0.00  0.00    +0.036 HD
ATOM     38  H   UNL     1     157.753 165.403 182.311  0.00  0.00    +0.060 HD
ATOM     39  H   UNL     1     155.920 166.828 182.655  0.00  0.00    +0.033 HD
ATOM     40  H   UNL     1     155.470 165.959 181.211  0.00  0.00    +0.033 HD
ATOM     41  H   UNL     1     153.947 166.205 183.651  0.00  0.00    +0.057 HD
ATOM     42  H   UNL     1     153.926 163.634 181.958  0.00  0.00    +0.067 HD
ATOM     43  H   UNL     1     149.390 163.045 183.463  0.00  0.00    +0.105 HD
ATOM     44  H   UNL     1     147.134 165.248 187.479  0.00  0.00    +0.105 HD
ATOM     45  H   UNL     1     148.049 168.043 191.586  0.00  0.00    +0.105 HD
ATOM     46  H   UNL     1     152.030 168.435 191.196  0.00  0.00    +0.067 HD
ATOM     47  H   UNL     1     151.974 167.688 193.713  0.00  0.00    +0.041 HD
ATOM     48  H   UNL     1     151.501 165.095 190.966  0.00  0.00    +0.065 HD
ATOM     49  H   UNL     1     154.553 164.781 191.143  0.00  0.00    +0.057 HD
ATOM     50  H   UNL     1     153.881 162.710 189.832  0.00  0.00    +0.033 HD
ATOM     51  H   UNL     1     152.353 163.442 189.410  0.00  0.00    +0.033 HD
ATOM     52  H   UNL     1     153.592 165.250 188.126  0.00  0.00    +0.060 HD
ATOM     53  H   UNL     1     155.938 164.666 189.314  0.00  0.00    +0.040 HD
ATOM     54  H   UNL     1     155.991 163.326 188.155  0.00  0.00    +0.040 HD
ATOM     55  H   UNL     1     155.997 166.017 184.952  0.00  0.00    +0.074 HD
BRANCH   4  56
ATOM     56  C   UNL     1     158.149 163.404 184.155  0.00  0.00    -0.057 C 
ATOM     57  H   UNL     1     158.968 163.921 184.664  0.00  0.00    +0.023 HD
ATOM     58  H   UNL     1     158.516 163.067 183.184  0.00  0.00    +0.023 HD
ATOM     59  H   UNL     1     157.910 162.518 184.751  0.00  0.00    +0.023 HD
ENDBRANCH   4  56
BRANCH  25  60
ATOM     60  C   UNL     1     150.442 166.280 193.458  0.00  0.00    -0.053 C 
ATOM     61  H   UNL     1     149.479 166.801 193.454  0.00  0.00    +0.024 HD
ATOM     62  H   UNL     1     150.677 165.991 194.489  0.00  0.00    +0.024 HD
ATOM     63  H   UNL     1     150.309 165.361 192.873  0.00  0.00    +0.024 HD
ENDBRANCH  25  60
BRANCH  31  64
ATOM     64  O   UNL     1     153.641 163.421 187.209  0.00  0.00    -0.391 OA
ATOM     65  H   UNL     1     153.782 163.947 186.393  0.00  0.00    +0.210 HD
ENDBRANCH  31  64
BRANCH  24  66
ATOM     66  O   UNL     1     150.630 169.316 192.447  0.00  0.00    -0.373 OA
BRANCH  66  67
ATOM     67  C   UNL     1     150.979 170.515 191.764  0.00  0.00    +0.037 C 
ATOM     68  H   UNL     1     151.919 170.395 191.217  0.00  0.00    +0.052 HD
ATOM     69  H   UNL     1     150.179 170.808 191.075  0.00  0.00    +0.052 HD
ATOM     70  H   UNL     1     151.106 171.308 192.506  0.00  0.00    +0.052 HD
ENDBRANCH  66  67
ENDBRANCH  24  66
BRANCH   5  71
ATOM     71  O   UNL     1     156.711 163.741 181.657  0.00  0.00    -0.379 OA
BRANCH  71  72
ATOM     72  C   UNL     1     156.849 164.106 180.288  0.00  0.00    +0.037 C 
ATOM     73  H   UNL     1     156.730 163.241 179.629  0.00  0.00    +0.052 HD
ATOM     74  H   UNL     1     157.854 164.517 180.147  0.00  0.00    +0.052 HD
ATOM     75  H   UNL     1     156.119 164.879 180.027  0.00  0.00    +0.052 HD
ENDBRANCH  71  72
ENDBRANCH   5  71
ENDBRANCH   1  36
BRANCH   1  76
ATOM     76  C   UNL     1     157.977 167.684 184.485  0.00  0.00    +0.064 C 
ATOM     77  H   UNL     1     157.011 167.726 183.973  0.00  0.00    +0.060 HD
BRANCH  76  78
ATOM     78  C   UNL     1     158.066 168.857 185.500  0.00  0.00    -0.017 C 
ATOM     79  H   UNL     1     157.663 168.498 186.448  0.00  0.00    +0.032 HD
BRANCH  78  80
ATOM     80  C   UNL     1     159.558 169.190 185.742  0.00  0.00    -0.060 C 
ATOM     81  H   UNL     1     159.934 168.673 186.633  0.00  0.00    +0.023 HD
ATOM     82  H   UNL     1     160.182 168.869 184.904  0.00  0.00    +0.023 HD
ATOM     83  H   UNL     1     159.699 170.265 185.890  0.00  0.00    +0.023 HD
ENDBRANCH  78  80
BRANCH  78  84
ATOM     84  C   UNL     1     157.376 170.174 185.105  0.00  0.00    -0.045 C 
ATOM     85  H   UNL     1     156.663 170.442 185.900  0.00  0.00    +0.027 HD
ATOM     86  H   UNL     1     158.122 170.986 185.112  0.00  0.00    +0.027 HD
BRANCH  84  87
ATOM     87  C   UNL     1     156.572 170.267 183.798  0.00  0.00    -0.015 C 
ATOM     88  H   UNL     1     157.051 169.531 183.143  0.00  0.00    +0.030 HD
ATOM     89  H   UNL     1     155.556 169.887 183.954  0.00  0.00    +0.030 HD
BRANCH  87  90
ATOM     90  C   UNL     1     156.491 171.608 183.030  0.00  0.00    +0.109 C 
ATOM     91  H   UNL     1     156.896 171.429 182.026  0.00  0.00    +0.074 HD
BRANCH  90  92
ATOM     92  C   UNL     1     157.323 172.729 183.754  0.00  0.00    +0.031 C 
ATOM     93  H   UNL     1     157.497 172.392 184.783  0.00  0.00    +0.037 HD
BRANCH  92  94
ATOM     94  C   UNL     1     156.517 174.030 183.925  0.00  0.00    -0.056 C 
ATOM     95  H   UNL     1     156.593 174.666 183.042  0.00  0.00    +0.023 HD
ATOM     96  H   UNL     1     156.848 174.594 184.801  0.00  0.00    +0.023 HD
ATOM     97  H   UNL     1     155.448 173.813 184.049  0.00  0.00    +0.023 HD
ENDBRANCH  92  94
BRANCH  92  98
ATOM     98  C   UNL     1     158.688 173.107 183.093  0.00  0.00    +0.115 C 
ATOM     99  H   UNL     1     158.897 174.165 183.311  0.00  0.00    +0.074 HD
BRANCH  98 100
ATOM    100  C   UNL     1     159.937 172.345 183.631  0.00  0.00    +0.013 C 
ATOM    101  H   UNL     1     159.736 171.963 184.634  0.00  0.00    +0.038 HD
BRANCH 100 102
ATOM    102  C   UNL     1     161.177 173.248 183.696  0.00  0.00    -0.056 C 
ATOM    103  H   UNL     1     161.672 173.185 184.675  0.00  0.00    +0.024 HD
ATOM    104  H   UNL     1     161.917 172.968 182.931  0.00  0.00    +0.024 HD
ATOM    105  H   UNL     1     160.914 174.298 183.539  0.00  0.00    +0.024 HD
ENDBRANCH 100 102
BRANCH 100 106
ATOM    106  C   UNL     1     160.273 171.156 182.744  0.00  0.00    -0.064 C 
ATOM    107  C   UNL     1     161.480 170.573 182.719  0.00  0.00    -0.005 C 
ATOM    108  H   UNL     1     159.469 170.804 182.101  0.00  0.00    +0.059 HD
ATOM    109  H   UNL     1     162.263 170.984 183.355  0.00  0.00    +0.078 HD
BRANCH 107 110
ATOM    110  N   UNL     1     161.880 169.497 181.943  0.00  0.00    -0.284 N 
ATOM    111  C   UNL     1     162.398 168.297 182.432  0.00  0.00    +0.206 C 
ATOM    112  O   UNL     1     162.594 167.958 183.594  0.00  0.00    -0.279 OA
ATOM    113  H   UNL     1     162.655 167.597 181.618  0.00  0.00    +0.126 HD
BRANCH 110 114
ATOM    114  C   UNL     1     161.745 169.645 180.496  0.00  0.00    +0.007 C 
ATOM    115  H   UNL     1     160.681 169.718 180.243  0.00  0.00    +0.043 HD
ATOM    116  H   UNL     1     162.169 168.791 179.957  0.00  0.00    +0.043 HD
ATOM    117  H   UNL     1     162.263 170.554 180.176  0.00  0.00    +0.043 HD
ENDBRANCH 110 114
ENDBRANCH 107 110
ENDBRANCH 100 106
ENDBRANCH  98 100
BRANCH  98 118
ATOM    118  O   UNL     1     158.613 172.913 181.661  0.00  0.00    -0.461 OA
BRANCH 118 119
ATOM    119  C   UNL     1     158.733 174.033 180.892  0.00  0.00    +0.304 C 
ATOM    120  O   UNL     1     158.743 175.186 181.299  0.00  0.00    -0.251 OA
BRANCH 119 121
ATOM    121  C   UNL     1     158.818 173.665 179.442  0.00  0.00    +0.033 C 
ATOM    122  H   UNL     1     159.793 173.962 179.050  0.00  0.00    +0.034 HD
ATOM    123  H   UNL     1     158.012 174.151 178.886  0.00  0.00    +0.034 HD
ATOM    124  H   UNL     1     158.694 172.585 179.334  0.00  0.00    +0.034 HD
ENDBRANCH 119 121
ENDBRANCH 118 119
ENDBRANCH  98 118
ENDBRANCH  92  98
ENDBRANCH  90  92
BRANCH  90 125
ATOM    125  O   UNL     1     155.100 172.005 182.914  0.00  0.00    -0.459 OA
BRANCH 125 126
ATOM    126  C   UNL     1     154.482 171.718 181.720  0.00  0.00    +0.339 C 
ATOM    127  O   UNL     1     154.280 170.582 181.310  0.00  0.00    -0.248 OA
BRANCH 126 128
ATOM    128  C   UNL     1     154.140 172.978 180.907  0.00  0.00    +0.178 C 
ATOM    129  H   UNL     1     153.575 172.635 180.025  0.00  0.00    +0.074 HD
BRANCH 128 130
ATOM    130  C   UNL     1     153.231 173.885 181.740  0.00  0.00    +0.084 C 
ATOM    131  H   UNL     1     153.503 173.820 182.795  0.00  0.00    +0.059 HD
ATOM    132  H   UNL     1     153.386 174.929 181.441  0.00  0.00    +0.059 HD
BRANCH 130 133
ATOM    133  O   UNL     1     151.858 173.547 181.562  0.00  0.00    -0.380 OA
BRANCH 133 134
ATOM    134  C   UNL     1     151.004 174.638 181.877  0.00  0.00    +0.037 C 
ATOM    135  H   UNL     1     151.582 175.444 182.340  0.00  0.00    +0.052 HD
ATOM    136  H   UNL     1     150.565 175.013 180.948  0.00  0.00    +0.052 HD
ATOM    137  H   UNL     1     150.197 174.326 182.548  0.00  0.00    +0.052 HD
ENDBRANCH 133 134
ENDBRANCH 130 133
ENDBRANCH 128 130
BRANCH 128 138
ATOM    138  O   UNL     1     155.257 173.761 180.478  0.00  0.00    -0.366 OA
BRANCH 138 139
ATOM    139  C   UNL     1     155.059 175.150 180.696  0.00  0.00    +0.038 C 
ATOM    140  H   UNL     1     155.458 175.402 181.683  0.00  0.00    +0.052 HD
ATOM    141  H   UNL     1     153.990 175.390 180.686  0.00  0.00    +0.052 HD
ATOM    142  H   UNL     1     155.584 175.746 179.945  0.00  0.00    +0.052 HD
ENDBRANCH 138 139
ENDBRANCH 128 138
ENDBRANCH 126 128
ENDBRANCH 125 126
ENDBRANCH  90 125
ENDBRANCH  87  90
ENDBRANCH  84  87
ENDBRANCH  78  84
ENDBRANCH  76  78
BRANCH  76 143
ATOM    143  O   UNL     1     159.068 167.871 183.564  0.00  0.00    -0.379 OA
BRANCH 143 144
ATOM    144  C   UNL     1     158.680 167.846 182.196  0.00  0.00    +0.037 C 
ATOM    145  H   UNL     1     157.724 167.315 182.122  0.00  0.00    +0.052 HD
ATOM    146  H   UNL     1     159.414 167.327 181.570  0.00  0.00    +0.052 HD
ATOM    147  H   UNL     1     158.524 168.861 181.826  0.00  0.00    +0.052 HD
ENDBRANCH 143 144
ENDBRANCH  76 143
ENDBRANCH   1  76
TORSDOF 35
ENDMDL
