MODEL 1
REMARK VINA RESULT:      -6.7      0.000      0.000
REMARK  Name = Phalloidin_conf3
REMARK  12 active torsions:
REMARK  status: ('A' for Active; 'I' for Inactive)
REMARK    1  A    between atoms: CB_1  and  CA_2
REMARK    2  A    between atoms: CG_24  and  OD_30
REMARK    3  A    between atoms: CA_34  and  CB_53
REMARK    4  A    between atoms: CA_38  and  CB_52
REMARK    5  A    between atoms: C_42  and  C_46
REMARK    6  A    between atoms: C_46  and  C_47
REMARK    7  A    between atoms: C_47  and  C_48
REMARK    8  A    between atoms: C_47  and  C_49
REMARK    9  A    between atoms: C_47  and  O_51
REMARK   10  A    between atoms: C_49  and  O_50
REMARK   11  A    between atoms: CB_53  and  CG2_54
REMARK   12  A    between atoms: CB_53  and  OG1_55
REMARK                            x       y       z     vdW  Elec       q    Type
REMARK                         _______ _______ _______ _____ _____    ______ ____
ROOT
ATOM      1  CA  ALA A   7     143.583 166.967 190.768  0.00  0.00    +0.097 C 
ATOM      2  C   ALA A   7     143.384 168.450 191.168  0.00  0.00    +0.234 C 
ATOM      3  O   ALA A   7     143.053 168.780 192.307  0.00  0.00    -0.274 OA
ATOM      4  N   UNK A   1     143.703 169.363 190.190  0.00  0.00    -0.302 N 
ATOM      5  C   UNK A   1     143.692 170.814 190.394  0.00  0.00    +0.103 C 
ATOM      6  C   UNK A   1     144.881 171.491 189.690  0.00  0.00    +0.002 C 
ATOM      7  C   UNK A   1     146.235 171.068 190.190  0.00  0.00    -0.006 A 
ATOM      8  C   UNK A   5     146.998 169.981 189.810  0.00  0.00    +0.078 A 
ATOM      9  N   UNK A   5     148.154 169.979 190.541  0.00  0.00    -0.349 N 
ATOM     10  C   UNK A   5     148.175 171.047 191.404  0.00  0.00    +0.048 A 
ATOM     11  C   UNK A   5     149.142 171.434 192.338  0.00  0.00    -0.038 A 
ATOM     12  C   UNK A   5     148.890 172.582 193.094  0.00  0.00    -0.060 A 
ATOM     13  C   UNK A   5     147.714 173.309 192.920  0.00  0.00    -0.061 A 
ATOM     14  C   UNK A   5     146.756 172.909 191.982  0.00  0.00    -0.052 A 
ATOM     15  C   UNK A   5     146.987 171.752 191.207  0.00  0.00    +0.004 A 
ATOM     16  S   UNK A   5     146.735 168.656 188.735  0.00  0.00    -0.105 S 
ATOM     17  C   UNK A   5     146.929 169.389 187.072  0.00  0.00    +0.027 C 
ATOM     18  C   UNK A   5     145.669 169.452 186.177  0.00  0.00    +0.109 C 
ATOM     19  C   UNK A   5     144.471 168.633 186.687  0.00  0.00    +0.237 C 
ATOM     20  O   UNK A   5     143.525 169.202 187.251  0.00  0.00    -0.274 OA
ATOM     21  N   HYP A   6     144.482 167.260 186.585  0.00  0.00    -0.286 N 
ATOM     22  CD  HYP A   6     145.437 166.434 185.867  0.00  0.00    +0.042 C 
ATOM     23  CG  HYP A   6     144.676 165.154 185.533  0.00  0.00    +0.073 C 
ATOM     24  CB  HYP A   6     143.658 165.045 186.665  0.00  0.00    +0.002 C 
ATOM     25  CA  HYP A   6     143.281 166.493 186.949  0.00  0.00    +0.105 C 
ATOM     26  C   HYP A   6     142.835 166.654 188.414  0.00  0.00    +0.234 C 
ATOM     27  O   HYP A   6     141.649 166.580 188.725  0.00  0.00    -0.274 OA
ATOM     28  N   ALA A   7     143.847 166.789 189.337  0.00  0.00    -0.303 N 
ATOM     29  N   UNK A   5     145.186 170.827 186.018  0.00  0.00    -0.302 N 
ATOM     30  C   THR A   4     145.825 171.741 185.214  0.00  0.00    +0.237 C 
ATOM     31  O   THR A   4     146.839 171.439 184.587  0.00  0.00    -0.274 OA
ATOM     32  CA  THR A   4     145.304 173.188 185.328  0.00  0.00    +0.125 C 
ATOM     33  N   THR A   4     143.870 173.257 185.623  0.00  0.00    -0.300 N 
ATOM     34  C   ALA A   3     143.342 174.334 186.317  0.00  0.00    +0.234 C 
ATOM     35  O   ALA A   3     144.054 175.216 186.794  0.00  0.00    -0.274 OA
ATOM     36  CA  ALA A   3     141.806 174.328 186.441  0.00  0.00    +0.097 C 
ATOM     37  N   ALA A   3     141.410 173.287 187.372  0.00  0.00    -0.303 N 
ATOM     38  C   UNK A   2     141.093 172.013 186.968  0.00  0.00    +0.234 C 
ATOM     39  O   UNK A   2     141.242 171.635 185.800  0.00  0.00    -0.274 OA
ATOM     40  C   UNK A   2     140.591 171.073 188.091  0.00  0.00    +0.102 C 
ATOM     41  N   UNK A   2     141.738 170.657 188.904  0.00  0.00    -0.302 N 
ATOM     42  C   UNK A   1     142.414 171.452 189.806  0.00  0.00    +0.234 C 
ATOM     43  O   UNK A   1     142.123 172.634 189.984  0.00  0.00    -0.274 OA
ATOM     44  HA  ALA A   7     142.648 166.449 191.012  0.00  0.00    +0.059 HD
ATOM     45  H   UNK A   1     143.979 169.015 189.280  0.00  0.00    +0.150 HD
ATOM     46  H   UNK A   1     143.712 171.025 191.471  0.00  0.00    +0.060 HD
ATOM     47  H   UNK A   1     144.829 171.316 188.612  0.00  0.00    +0.034 HD
ATOM     48  H   UNK A   1     144.799 172.578 189.810  0.00  0.00    +0.034 HD
ATOM     49  H   UNK A   5     148.875 169.276 190.472  0.00  0.00    +0.166 HD
ATOM     50  H   UNK A   5     150.062 170.874 192.475  0.00  0.00    +0.064 HD
ATOM     51  H   UNK A   5     149.625 172.921 193.822  0.00  0.00    +0.062 HD
ATOM     52  H   UNK A   5     147.537 174.206 193.514  0.00  0.00    +0.062 HD
ATOM     53  H   UNK A   5     145.860 173.507 191.856  0.00  0.00    +0.062 HD
ATOM     54  H   UNK A   5     147.655 168.737 186.573  0.00  0.00    +0.040 HD
ATOM     55  H   UNK A   5     147.416 170.364 187.158  0.00  0.00    +0.040 HD
ATOM     56  H   UNK A   5     145.929 169.109 185.168  0.00  0.00    +0.060 HD
ATOM     57  HD1 HYP A   6     145.794 166.933 184.963  0.00  0.00    +0.049 HD
ATOM     58  HD2 HYP A   6     146.300 166.238 186.511  0.00  0.00    +0.049 HD
ATOM     59  HG  HYP A   6     144.155 165.241 184.569  0.00  0.00    +0.061 HD
ATOM     60  HB1 HYP A   6     142.790 164.439 186.373  0.00  0.00    +0.031 HD
ATOM     61  HB2 HYP A   6     144.102 164.549 187.538  0.00  0.00    +0.031 HD
ATOM     62  HA  HYP A   6     142.468 166.834 186.296  0.00  0.00    +0.060 HD
ATOM     63  H   ALA A   7     144.796 166.887 188.995  0.00  0.00    +0.149 HD
ATOM     64  H   UNK A   5     144.336 171.102 186.508  0.00  0.00    +0.150 HD
ATOM     65  HA  THR A   4     145.835 173.599 186.200  0.00  0.00    +0.062 HD
ATOM     66  H   THR A   4     143.219 172.552 185.266  0.00  0.00    +0.150 HD
ATOM     67  HA  ALA A   3     141.395 174.099 185.447  0.00  0.00    +0.059 HD
ATOM     68  H   ALA A   3     141.510 173.460 188.379  0.00  0.00    +0.149 HD
ATOM     69  H   UNK A   2     140.265 170.150 187.601  0.00  0.00    +0.060 HD
ATOM     70  H   UNK A   2     142.045 169.694 188.807  0.00  0.00    +0.150 HD
ENDROOT
BRANCH   1  71
ATOM     71  CB  ALA A   7     144.729 166.373 191.584  0.00  0.00    -0.038 C 
ATOM     72  HB1 ALA A   7     144.413 166.162 192.611  0.00  0.00    +0.025 HD
ATOM     73  HB2 ALA A   7     145.578 167.065 191.632  0.00  0.00    +0.025 HD
ATOM     74  HB3 ALA A   7     145.080 165.430 191.148  0.00  0.00    +0.025 HD
ENDBRANCH   1  71
BRANCH  36  75
ATOM     75  CB  ALA A   3     141.267 175.681 186.886  0.00  0.00    -0.038 C 
ATOM     76  HB1 ALA A   3     140.246 175.582 187.271  0.00  0.00    +0.025 HD
ATOM     77  HB2 ALA A   3     141.875 176.121 187.684  0.00  0.00    +0.025 HD
ATOM     78  HB3 ALA A   3     141.250 176.383 186.045  0.00  0.00    +0.025 HD
ENDBRANCH  36  75
BRANCH  40  79
ATOM     79  C   UNK A   2     139.420 171.617 188.929  0.00  0.00    +0.005 C 
ATOM     80  H   UNK A   2     139.814 172.391 189.599  0.00  0.00    +0.032 HD
ATOM     81  H   UNK A   2     138.698 172.119 188.270  0.00  0.00    +0.032 HD
BRANCH  79  82
ATOM     82  C   UNK A   2     138.654 170.562 189.764  0.00  0.00    +0.088 C 
BRANCH  82  83
ATOM     83  C   UNK A   2     137.248 170.392 189.166  0.00  0.00    -0.034 C 
ATOM     84  H   UNK A   2     136.935 171.318 188.669  0.00  0.00    +0.026 HD
ATOM     85  H   UNK A   2     137.236 169.608 188.397  0.00  0.00    +0.026 HD
ATOM     86  H   UNK A   2     136.501 170.139 189.927  0.00  0.00    +0.026 HD
ENDBRANCH  82  83
BRANCH  82  87
ATOM     87  C   UNK A   2     138.545 170.927 191.260  0.00  0.00    +0.073 C 
ATOM     88  H   UNK A   2     137.550 171.333 191.479  0.00  0.00    +0.059 HD
ATOM     89  H   UNK A   2     138.664 170.042 191.894  0.00  0.00    +0.059 HD
BRANCH  87  90
ATOM     90  O   UNK A   2     139.516 171.894 191.628  0.00  0.00    -0.392 OA
ATOM     91  H   UNK A   2     140.386 171.534 191.385  0.00  0.00    +0.210 HD
ENDBRANCH  87  90
ENDBRANCH  82  87
BRANCH  82  92
ATOM     92  O   UNK A   2     139.329 169.302 189.640  0.00  0.00    -0.387 OA
ATOM     93  H   UNK A   2     138.670 168.595 189.756  0.00  0.00    +0.210 HD
ENDBRANCH  82  92
ENDBRANCH  79  82
ENDBRANCH  40  79
BRANCH  23  94
ATOM     94  OD  HYP A   6     145.516 164.014 185.522  0.00  0.00    -0.390 OA
ATOM     95  HD  HYP A   6     144.991 163.239 185.247  0.00  0.00    +0.210 HD
ENDBRANCH  23  94
BRANCH  32  96
ATOM     96  CB  THR A   4     145.706 174.037 184.097  0.00  0.00    +0.079 C 
ATOM     97  HB  THR A   4     145.437 175.082 184.286  0.00  0.00    +0.061 HD
BRANCH  96  98
ATOM     98  CG2 THR A   4     145.025 173.607 182.797  0.00  0.00    -0.037 C 
ATOM     99 HG21 THR A   4     145.742 173.183 182.084  0.00  0.00    +0.026 HD
ATOM    100 HG22 THR A   4     144.235 172.870 182.975  0.00  0.00    +0.026 HD
ATOM    101 HG23 THR A   4     144.585 174.478 182.299  0.00  0.00    +0.026 HD
ENDBRANCH  96  98
BRANCH  96 102
ATOM    102  OG1 THR A   4     147.122 174.030 183.887  0.00  0.00    -0.390 OA
ATOM    103  HG1 THR A   4     147.408 173.094 183.831  0.00  0.00    +0.210 HD
ENDBRANCH  96 102
ENDBRANCH  32  96
TORSDOF 12
ENDMDL
MODEL 2
REMARK VINA RESULT:      -6.5     18.375     21.540
REMARK  Name = Phalloidin_conf3
REMARK  12 active torsions:
REMARK  status: ('A' for Active; 'I' for Inactive)
REMARK    1  A    between atoms: CB_1  and  CA_2
REMARK    2  A    between atoms: CG_24  and  OD_30
REMARK    3  A    between atoms: CA_34  and  CB_53
REMARK    4  A    between atoms: CA_38  and  CB_52
REMARK    5  A    between atoms: C_42  and  C_46
REMARK    6  A    between atoms: C_46  and  C_47
REMARK    7  A    between atoms: C_47  and  C_48
REMARK    8  A    between atoms: C_47  and  C_49
REMARK    9  A    between atoms: C_47  and  O_51
REMARK   10  A    between atoms: C_49  and  O_50
REMARK   11  A    between atoms: CB_53  and  CG2_54
REMARK   12  A    between atoms: CB_53  and  OG1_55
REMARK                            x       y       z     vdW  Elec       q    Type
REMARK                         _______ _______ _______ _____ _____    ______ ____
ROOT
ATOM      1  CA  ALA A   7     134.548 151.416 196.558  0.00  0.00    +0.097 C 
ATOM      2  C   ALA A   7     133.214 151.834 197.224  0.00  0.00    +0.234 C 
ATOM      3  O   ALA A   7     132.281 151.043 197.371  0.00  0.00    -0.274 OA
ATOM      4  N   UNK A   1     133.192 153.114 197.727  0.00  0.00    -0.302 N 
ATOM      5  C   UNK A   1     132.073 153.672 198.491  0.00  0.00    +0.103 C 
ATOM      6  C   UNK A   1     132.566 154.536 199.664  0.00  0.00    +0.002 C 
ATOM      7  C   UNK A   1     133.373 153.799 200.696  0.00  0.00    -0.006 A 
ATOM      8  C   UNK A   5     134.727 153.524 200.703  0.00  0.00    +0.078 A 
ATOM      9  N   UNK A   5     135.025 152.814 201.834  0.00  0.00    -0.349 N 
ATOM     10  C   UNK A   5     133.891 152.608 202.581  0.00  0.00    +0.048 A 
ATOM     11  C   UNK A   5     133.720 151.933 203.794  0.00  0.00    -0.038 A 
ATOM     12  C   UNK A   5     132.430 151.879 204.329  0.00  0.00    -0.060 A 
ATOM     13  C   UNK A   5     131.357 152.478 203.672  0.00  0.00    -0.061 A 
ATOM     14  C   UNK A   5     131.544 153.149 202.459  0.00  0.00    -0.052 A 
ATOM     15  C   UNK A   5     132.838 153.216 201.897  0.00  0.00    +0.004 A 
ATOM     16  S   UNK A   5     136.006 153.799 199.577  0.00  0.00    -0.105 S 
ATOM     17  C   UNK A   5     136.356 155.586 199.730  0.00  0.00    +0.027 C 
ATOM     18  C   UNK A   5     136.033 156.475 198.507  0.00  0.00    +0.109 C 
ATOM     19  C   UNK A   5     135.724 155.707 197.211  0.00  0.00    +0.237 C 
ATOM     20  O   UNK A   5     134.550 155.575 196.832  0.00  0.00    -0.274 OA
ATOM     21  N   HYP A   6     136.742 155.101 196.510  0.00  0.00    -0.286 N 
ATOM     22  CD  HYP A   6     138.171 155.236 196.731  0.00  0.00    +0.042 C 
ATOM     23  CG  HYP A   6     138.809 154.930 195.379  0.00  0.00    +0.073 C 
ATOM     24  CB  HYP A   6     137.814 153.971 194.730  0.00  0.00    +0.002 C 
ATOM     25  CA  HYP A   6     136.460 154.484 195.204  0.00  0.00    +0.105 C 
ATOM     26  C   HYP A   6     135.435 153.335 195.243  0.00  0.00    +0.234 C 
ATOM     27  O   HYP A   6     134.699 153.112 194.286  0.00  0.00    -0.274 OA
ATOM     28  N   ALA A   7     135.470 152.539 196.365  0.00  0.00    -0.303 N 
ATOM     29  N   UNK A   5     134.875 157.340 198.755  0.00  0.00    -0.302 N 
ATOM     30  C   THR A   4     134.947 158.449 199.565  0.00  0.00    +0.237 C 
ATOM     31  O   THR A   4     135.999 158.765 200.120  0.00  0.00    -0.274 OA
ATOM     32  CA  THR A   4     133.594 159.117 199.880  0.00  0.00    +0.125 C 
ATOM     33  N   THR A   4     132.630 158.998 198.783  0.00  0.00    -0.300 N 
ATOM     34  C   ALA A   3     131.267 158.981 199.038  0.00  0.00    +0.234 C 
ATOM     35  O   ALA A   3     130.818 158.966 200.182  0.00  0.00    -0.274 OA
ATOM     36  CA  ALA A   3     130.378 158.977 197.780  0.00  0.00    +0.097 C 
ATOM     37  N   ALA A   3     130.469 157.678 197.138  0.00  0.00    -0.303 N 
ATOM     38  C   UNK A   2     131.377 157.405 196.144  0.00  0.00    +0.234 C 
ATOM     39  O   UNK A   2     132.256 158.209 195.815  0.00  0.00    -0.274 OA
ATOM     40  C   UNK A   2     131.252 155.999 195.508  0.00  0.00    +0.102 C 
ATOM     41  N   UNK A   2     131.798 155.011 196.442  0.00  0.00    -0.302 N 
ATOM     42  C   UNK A   1     131.196 154.588 197.609  0.00  0.00    +0.234 C 
ATOM     43  O   UNK A   1     130.125 155.052 197.998  0.00  0.00    -0.274 OA
ATOM     44  HA  ALA A   7     134.292 151.010 195.572  0.00  0.00    +0.059 HD
ATOM     45  H   UNK A   1     134.003 153.702 197.577  0.00  0.00    +0.150 HD
ATOM     46  H   UNK A   1     131.444 152.850 198.857  0.00  0.00    +0.060 HD
ATOM     47  H   UNK A   1     133.153 155.380 199.289  0.00  0.00    +0.034 HD
ATOM     48  H   UNK A   1     131.702 154.987 200.167  0.00  0.00    +0.034 HD
ATOM     49  H   UNK A   5     135.943 152.468 202.068  0.00  0.00    +0.166 HD
ATOM     50  H   UNK A   5     134.553 151.468 204.314  0.00  0.00    +0.064 HD
ATOM     51  H   UNK A   5     132.260 151.373 205.278  0.00  0.00    +0.062 HD
ATOM     52  H   UNK A   5     130.358 152.431 204.107  0.00  0.00    +0.062 HD
ATOM     53  H   UNK A   5     130.693 153.622 201.981  0.00  0.00    +0.062 HD
ATOM     54  H   UNK A   5     137.438 155.636 199.897  0.00  0.00    +0.040 HD
ATOM     55  H   UNK A   5     135.897 155.970 200.645  0.00  0.00    +0.040 HD
ATOM     56  H   UNK A   5     136.877 157.152 198.323  0.00  0.00    +0.060 HD
ATOM     57  HD1 HYP A   6     138.427 156.241 197.076  0.00  0.00    +0.049 HD
ATOM     58  HD2 HYP A   6     138.484 154.523 197.500  0.00  0.00    +0.049 HD
ATOM     59  HG  HYP A   6     138.903 155.839 194.769  0.00  0.00    +0.061 HD
ATOM     60  HB1 HYP A   6     137.900 153.977 193.636  0.00  0.00    +0.031 HD
ATOM     61  HB2 HYP A   6     138.006 152.939 195.050  0.00  0.00    +0.031 HD
ATOM     62  HA  HYP A   6     136.075 155.274 194.548  0.00  0.00    +0.060 HD
ATOM     63  H   ALA A   7     136.075 152.817 197.130  0.00  0.00    +0.149 HD
ATOM     64  H   UNK A   5     133.995 157.116 198.294  0.00  0.00    +0.150 HD
ATOM     65  HA  THR A   4     133.197 158.537 200.727  0.00  0.00    +0.062 HD
ATOM     66  H   THR A   4     132.933 158.994 197.806  0.00  0.00    +0.150 HD
ATOM     67  HA  ALA A   3     130.768 159.745 197.097  0.00  0.00    +0.059 HD
ATOM     68  H   ALA A   3     129.942 156.893 197.536  0.00  0.00    +0.149 HD
ATOM     69  H   UNK A   2     131.947 155.978 194.663  0.00  0.00    +0.060 HD
ATOM     70  H   UNK A   2     132.687 154.586 196.194  0.00  0.00    +0.150 HD
ENDROOT
BRANCH   1  71
ATOM     71  CB  ALA A   7     135.218 150.334 197.402  0.00  0.00    -0.038 C 
ATOM     72  HB1 ALA A   7     135.257 149.381 196.863  0.00  0.00    +0.025 HD
ATOM     73  HB2 ALA A   7     134.668 150.167 198.336  0.00  0.00    +0.025 HD
ATOM     74  HB3 ALA A   7     136.248 150.610 197.657  0.00  0.00    +0.025 HD
ENDBRANCH   1  71
BRANCH  36  75
ATOM     75  CB  ALA A   3     128.929 159.314 198.108  0.00  0.00    -0.038 C 
ATOM     76  HB1 ALA A   3     128.878 160.152 198.812  0.00  0.00    +0.025 HD
ATOM     77  HB2 ALA A   3     128.365 159.603 197.215  0.00  0.00    +0.025 HD
ATOM     78  HB3 ALA A   3     128.428 158.452 198.563  0.00  0.00    +0.025 HD
ENDBRANCH  36  75
BRANCH  40  79
ATOM     79  C   UNK A   2     129.849 155.634 194.992  0.00  0.00    +0.005 C 
ATOM     80  H   UNK A   2     129.199 155.474 195.861  0.00  0.00    +0.032 HD
ATOM     81  H   UNK A   2     129.425 156.487 194.443  0.00  0.00    +0.032 HD
BRANCH  79  82
ATOM     82  C   UNK A   2     129.782 154.391 194.070  0.00  0.00    +0.088 C 
BRANCH  82  83
ATOM     83  C   UNK A   2     128.890 154.725 192.864  0.00  0.00    -0.034 C 
ATOM     84  H   UNK A   2     128.426 153.812 192.473  0.00  0.00    +0.026 HD
ATOM     85  H   UNK A   2     128.065 155.392 193.152  0.00  0.00    +0.026 HD
ATOM     86  H   UNK A   2     129.450 155.203 192.052  0.00  0.00    +0.026 HD
ENDBRANCH  82  83
BRANCH  82  87
ATOM     87  C   UNK A   2     129.248 153.130 194.782  0.00  0.00    +0.073 C 
ATOM     88  H   UNK A   2     128.585 153.413 195.608  0.00  0.00    +0.059 HD
ATOM     89  H   UNK A   2     128.649 152.515 194.102  0.00  0.00    +0.059 HD
BRANCH  87  90
ATOM     90  O   UNK A   2     130.307 152.345 195.305  0.00  0.00    -0.392 OA
ATOM     91  H   UNK A   2     130.287 151.490 194.844  0.00  0.00    +0.210 HD
ENDBRANCH  87  90
ENDBRANCH  82  87
BRANCH  82  92
ATOM     92  O   UNK A   2     131.100 154.121 193.570  0.00  0.00    -0.387 OA
ATOM     93  H   UNK A   2     131.701 154.047 194.331  0.00  0.00    +0.210 HD
ENDBRANCH  82  92
ENDBRANCH  79  82
ENDBRANCH  40  79
BRANCH  23  94
ATOM     94  OD  HYP A   6     140.073 154.306 195.508  0.00  0.00    -0.390 OA
ATOM     95  HD  HYP A   6     140.011 153.607 196.186  0.00  0.00    +0.210 HD
ENDBRANCH  23  94
BRANCH  32  96
ATOM     96  CB  THR A   4     133.778 160.577 200.362  0.00  0.00    +0.079 C 
ATOM     97  HB  THR A   4     134.746 160.947 200.004  0.00  0.00    +0.061 HD
BRANCH  96  98
ATOM     98  CG2 THR A   4     133.752 160.736 201.883  0.00  0.00    -0.037 C 
ATOM     99 HG21 THR A   4     134.500 161.460 202.228  0.00  0.00    +0.026 HD
ATOM    100 HG22 THR A   4     132.768 161.056 202.243  0.00  0.00    +0.026 HD
ATOM    101 HG23 THR A   4     134.008 159.785 202.364  0.00  0.00    +0.026 HD
ENDBRANCH  96  98
BRANCH  96 102
ATOM    102  OG1 THR A   4     132.793 161.450 199.800  0.00  0.00    -0.390 OA
ATOM    103  HG1 THR A   4     132.106 161.598 200.482  0.00  0.00    +0.210 HD
ENDBRANCH  96 102
ENDBRANCH  32  96
TORSDOF 12
ENDMDL
MODEL 3
REMARK VINA RESULT:      -5.6     10.443     14.438
REMARK  Name = Phalloidin_conf3
REMARK  12 active torsions:
REMARK  status: ('A' for Active; 'I' for Inactive)
REMARK    1  A    between atoms: CB_1  and  CA_2
REMARK    2  A    between atoms: CG_24  and  OD_30
REMARK    3  A    between atoms: CA_34  and  CB_53
REMARK    4  A    between atoms: CA_38  and  CB_52
REMARK    5  A    between atoms: C_42  and  C_46
REMARK    6  A    between atoms: C_46  and  C_47
REMARK    7  A    between atoms: C_47  and  C_48
REMARK    8  A    between atoms: C_47  and  C_49
REMARK    9  A    between atoms: C_47  and  O_51
REMARK   10  A    between atoms: C_49  and  O_50
REMARK   11  A    between atoms: CB_53  and  CG2_54
REMARK   12  A    between atoms: CB_53  and  OG1_55
REMARK                            x       y       z     vdW  Elec       q    Type
REMARK                         _______ _______ _______ _____ _____    ______ ____
ROOT
ATOM      1  CA  ALA A   7     158.480 163.382 183.645  0.00  0.00    +0.097 C 
ATOM      2  C   ALA A   7     158.534 164.496 184.719  0.00  0.00    +0.234 C 
ATOM      3  O   ALA A   7     159.582 165.075 185.008  0.00  0.00    -0.274 OA
ATOM      4  N   UNK A   1     157.315 164.856 185.244  0.00  0.00    -0.302 N 
ATOM      5  C   UNK A   1     157.127 165.961 186.189  0.00  0.00    +0.103 C 
ATOM      6  C   UNK A   1     155.846 166.755 185.880  0.00  0.00    +0.002 C 
ATOM      7  C   UNK A   1     155.829 167.427 184.535  0.00  0.00    -0.006 A 
ATOM      8  C   UNK A   5     155.457 166.905 183.311  0.00  0.00    +0.078 A 
ATOM      9  N   UNK A   5     155.616 167.870 182.355  0.00  0.00    -0.349 N 
ATOM     10  C   UNK A   5     156.089 169.029 182.921  0.00  0.00    +0.048 A 
ATOM     11  C   UNK A   5     156.405 170.258 182.332  0.00  0.00    -0.038 A 
ATOM     12  C   UNK A   5     156.877 171.274 183.167  0.00  0.00    -0.060 A 
ATOM     13  C   UNK A   5     157.027 171.063 184.536  0.00  0.00    -0.061 A 
ATOM     14  C   UNK A   5     156.708 169.828 185.111  0.00  0.00    -0.052 A 
ATOM     15  C   UNK A   5     156.230 168.785 184.288  0.00  0.00    +0.004 A 
ATOM     16  S   UNK A   5     154.965 165.337 182.782  0.00  0.00    -0.105 S 
ATOM     17  C   UNK A   5     153.246 165.185 183.382  0.00  0.00    +0.027 C 
ATOM     18  C   UNK A   5     152.971 164.130 184.479  0.00  0.00    +0.109 C 
ATOM     19  C   UNK A   5     154.123 163.141 184.729  0.00  0.00    +0.237 C 
ATOM     20  O   UNK A   5     154.863 163.286 185.713  0.00  0.00    -0.274 OA
ATOM     21  N   HYP A   6     154.379 162.139 183.821  0.00  0.00    -0.286 N 
ATOM     22  CD  HYP A   6     153.566 161.748 182.682  0.00  0.00    +0.042 C 
ATOM     23  CG  HYP A   6     153.916 160.283 182.434  0.00  0.00    +0.073 C 
ATOM     24  CB  HYP A   6     155.356 160.177 182.932  0.00  0.00    +0.002 C 
ATOM     25  CA  HYP A   6     155.391 161.118 184.130  0.00  0.00    +0.105 C 
ATOM     26  C   HYP A   6     156.815 161.666 184.340  0.00  0.00    +0.234 C 
ATOM     27  O   HYP A   6     157.597 161.113 185.107  0.00  0.00    -0.274 OA
ATOM     28  N   ALA A   7     157.166 162.738 183.552  0.00  0.00    -0.303 N 
ATOM     29  N   UNK A   5     152.682 164.756 185.773  0.00  0.00    -0.302 N 
ATOM     30  C   THR A   4     151.482 165.372 186.040  0.00  0.00    +0.237 C 
ATOM     31  O   THR A   4     150.590 165.422 185.193  0.00  0.00    -0.274 OA
ATOM     32  CA  THR A   4     151.429 166.154 187.367  0.00  0.00    +0.125 C 
ATOM     33  N   THR A   4     152.264 165.559 188.414  0.00  0.00    -0.300 N 
ATOM     34  C   ALA A   3     152.815 166.347 189.412  0.00  0.00    +0.234 C 
ATOM     35  O   ALA A   3     152.711 167.572 189.408  0.00  0.00    -0.274 OA
ATOM     36  CA  ALA A   3     153.563 165.565 190.509  0.00  0.00    +0.097 C 
ATOM     37  N   ALA A   3     154.806 165.051 189.962  0.00  0.00    -0.303 N 
ATOM     38  C   UNK A   2     154.909 163.801 189.405  0.00  0.00    +0.234 C 
ATOM     39  O   UNK A   2     153.924 163.076 189.222  0.00  0.00    -0.274 OA
ATOM     40  C   UNK A   2     156.338 163.389 188.973  0.00  0.00    +0.102 C 
ATOM     41  N   UNK A   2     156.677 164.098 187.736  0.00  0.00    -0.302 N 
ATOM     42  C   UNK A   1     156.982 165.439 187.636  0.00  0.00    +0.234 C 
ATOM     43  O   UNK A   1     156.957 166.191 188.609  0.00  0.00    -0.274 OA
ATOM     44  HA  ALA A   7     159.213 162.623 183.944  0.00  0.00    +0.059 HD
ATOM     45  H   UNK A   1     156.494 164.341 184.949  0.00  0.00    +0.150 HD
ATOM     46  H   UNK A   1     158.005 166.617 186.151  0.00  0.00    +0.060 HD
ATOM     47  H   UNK A   1     154.971 166.106 185.965  0.00  0.00    +0.034 HD
ATOM     48  H   UNK A   1     155.709 167.527 186.647  0.00  0.00    +0.034 HD
ATOM     49  H   UNK A   5     155.436 167.739 181.371  0.00  0.00    +0.166 HD
ATOM     50  H   UNK A   5     156.285 170.430 181.266  0.00  0.00    +0.064 HD
ATOM     51  H   UNK A   5     157.121 172.248 182.746  0.00  0.00    +0.062 HD
ATOM     52  H   UNK A   5     157.391 171.870 185.173  0.00  0.00    +0.062 HD
ATOM     53  H   UNK A   5     156.818 169.701 186.182  0.00  0.00    +0.062 HD
ATOM     54  H   UNK A   5     152.675 164.893 182.493  0.00  0.00    +0.040 HD
ATOM     55  H   UNK A   5     152.870 166.172 183.664  0.00  0.00    +0.040 HD
ATOM     56  H   UNK A   5     152.070 163.564 184.214  0.00  0.00    +0.060 HD
ATOM     57  HD1 HYP A   6     152.501 161.874 182.892  0.00  0.00    +0.049 HD
ATOM     58  HD2 HYP A   6     153.820 162.378 181.825  0.00  0.00    +0.049 HD
ATOM     59  HG  HYP A   6     153.269 159.615 183.019  0.00  0.00    +0.061 HD
ATOM     60  HB1 HYP A   6     155.615 159.147 183.205  0.00  0.00    +0.031 HD
ATOM     61  HB2 HYP A   6     156.060 160.475 182.145  0.00  0.00    +0.031 HD
ATOM     62  HA  HYP A   6     155.071 160.612 185.050  0.00  0.00    +0.060 HD
ATOM     63  H   ALA A   7     156.448 163.164 182.977  0.00  0.00    +0.149 HD
ATOM     64  H   UNK A   5     153.393 164.714 186.502  0.00  0.00    +0.150 HD
ATOM     65  HA  THR A   4     151.865 167.134 187.121  0.00  0.00    +0.062 HD
ATOM     66  H   THR A   4     152.403 164.547 188.473  0.00  0.00    +0.150 HD
ATOM     67  HA  ALA A   3     152.924 164.721 190.807  0.00  0.00    +0.059 HD
ATOM     68  H   ALA A   3     155.599 165.693 189.852  0.00  0.00    +0.149 HD
ATOM     69  H   UNK A   2     156.280 162.339 188.670  0.00  0.00    +0.060 HD
ATOM     70  H   UNK A   2     156.711 163.546 186.884  0.00  0.00    +0.150 HD
ENDROOT
BRANCH   1  71
ATOM     71  CB  ALA A   7     158.868 163.966 182.289  0.00  0.00    -0.038 C 
ATOM     72  HB1 ALA A   7     159.684 163.395 181.833  0.00  0.00    +0.025 HD
ATOM     73  HB2 ALA A   7     159.206 165.004 182.390  0.00  0.00    +0.025 HD
ATOM     74  HB3 ALA A   7     158.023 163.948 181.591  0.00  0.00    +0.025 HD
ENDBRANCH   1  71
BRANCH  36  75
ATOM     75  CB  ALA A   3     153.831 166.425 191.737  0.00  0.00    -0.038 C 
ATOM     76  HB1 ALA A   3     153.370 167.413 191.624  0.00  0.00    +0.025 HD
ATOM     77  HB2 ALA A   3     153.420 165.976 192.648  0.00  0.00    +0.025 HD
ATOM     78  HB3 ALA A   3     154.908 166.563 191.882  0.00  0.00    +0.025 HD
ENDBRANCH  36  75
BRANCH  40  79
ATOM     79  C   UNK A   2     157.417 163.521 190.062  0.00  0.00    +0.005 C 
ATOM     80  H   UNK A   2     157.782 164.556 190.054  0.00  0.00    +0.032 HD
ATOM     81  H   UNK A   2     156.963 163.363 191.051  0.00  0.00    +0.032 HD
BRANCH  79  82
ATOM     82  C   UNK A   2     158.620 162.556 189.927  0.00  0.00    +0.088 C 
BRANCH  82  83
ATOM     83  C   UNK A   2     159.451 162.626 191.218  0.00  0.00    -0.034 C 
ATOM     84  H   UNK A   2     159.721 163.666 191.437  0.00  0.00    +0.026 HD
ATOM     85  H   UNK A   2     158.874 162.268 192.082  0.00  0.00    +0.026 HD
ATOM     86  H   UNK A   2     160.372 162.036 191.152  0.00  0.00    +0.026 HD
ENDBRANCH  82  83
BRANCH  82  87
ATOM     87  C   UNK A   2     159.518 162.865 188.710  0.00  0.00    +0.073 C 
ATOM     88  H   UNK A   2     159.490 163.937 188.480  0.00  0.00    +0.059 HD
ATOM     89  H   UNK A   2     160.566 162.622 188.918  0.00  0.00    +0.059 HD
BRANCH  87  90
ATOM     90  O   UNK A   2     159.096 162.148 187.561  0.00  0.00    -0.392 OA
ATOM     91  H   UNK A   2     158.124 162.178 187.545  0.00  0.00    +0.210 HD
ENDBRANCH  87  90
ENDBRANCH  82  87
BRANCH  82  92
ATOM     92  O   UNK A   2     158.121 161.216 189.809  0.00  0.00    -0.387 OA
ATOM     93  H   UNK A   2     157.563 161.033 190.585  0.00  0.00    +0.210 HD
ENDBRANCH  82  92
ENDBRANCH  79  82
ENDBRANCH  40  79
BRANCH  23  94
ATOM     94  OD  HYP A   6     153.849 159.937 181.063  0.00  0.00    -0.390 OA
ATOM     95  HD  HYP A   6     154.444 159.181 180.899  0.00  0.00    +0.210 HD
ENDBRANCH  23  94
BRANCH  32  96
ATOM     96  CB  THR A   4     149.970 166.397 187.827  0.00  0.00    +0.079 C 
ATOM     97  HB  THR A   4     149.983 167.044 188.712  0.00  0.00    +0.061 HD
BRANCH  96  98
ATOM     98  CG2 THR A   4     149.214 165.119 188.194  0.00  0.00    -0.037 C 
ATOM     99 HG21 THR A   4     149.630 164.242 187.685  0.00  0.00    +0.026 HD
ATOM    100 HG22 THR A   4     149.226 164.934 189.272  0.00  0.00    +0.026 HD
ATOM    101 HG23 THR A   4     148.171 165.194 187.863  0.00  0.00    +0.026 HD
ENDBRANCH  96  98
BRANCH  96 102
ATOM    102  OG1 THR A   4     149.212 167.101 186.838  0.00  0.00    -0.390 OA
ATOM    103  HG1 THR A   4     149.772 167.181 186.038  0.00  0.00    +0.210 HD
ENDBRANCH  96 102
ENDBRANCH  32  96
TORSDOF 12
ENDMDL
MODEL 4
REMARK VINA RESULT:      -5.5      3.668      7.703
REMARK  Name = Phalloidin_conf3
REMARK  12 active torsions:
REMARK  status: ('A' for Active; 'I' for Inactive)
REMARK    1  A    between atoms: CB_1  and  CA_2
REMARK    2  A    between atoms: CG_24  and  OD_30
REMARK    3  A    between atoms: CA_34  and  CB_53
REMARK    4  A    between atoms: CA_38  and  CB_52
REMARK    5  A    between atoms: C_42  and  C_46
REMARK    6  A    between atoms: C_46  and  C_47
REMARK    7  A    between atoms: C_47  and  C_48
REMARK    8  A    between atoms: C_47  and  C_49
REMARK    9  A    between atoms: C_47  and  O_51
REMARK   10  A    between atoms: C_49  and  O_50
REMARK   11  A    between atoms: CB_53  and  CG2_54
REMARK   12  A    between atoms: CB_53  and  OG1_55
REMARK                            x       y       z     vdW  Elec       q    Type
REMARK                         _______ _______ _______ _____ _____    ______ ____
ROOT
ATOM      1  CA  ALA A   7     142.898 167.820 191.498  0.00  0.00    +0.097 C 
ATOM      2  C   ALA A   7     142.857 167.748 189.951  0.00  0.00    +0.234 C 
ATOM      3  O   ALA A   7     141.852 168.057 189.310  0.00  0.00    -0.274 OA
ATOM      4  N   UNK A   1     144.050 167.416 189.353  0.00  0.00    -0.302 N 
ATOM      5  C   UNK A   1     144.260 167.400 187.903  0.00  0.00    +0.103 C 
ATOM      6  C   UNK A   1     145.641 167.964 187.527  0.00  0.00    +0.002 C 
ATOM      7  C   UNK A   1     145.860 169.402 187.905  0.00  0.00    -0.006 A 
ATOM      8  C   UNK A   5     146.292 169.925 189.109  0.00  0.00    +0.078 A 
ATOM      9  N   UNK A   5     146.330 171.289 189.008  0.00  0.00    -0.349 N 
ATOM     10  C   UNK A   5     145.928 171.686 187.755  0.00  0.00    +0.048 A 
ATOM     11  C   UNK A   5     145.802 172.968 187.211  0.00  0.00    -0.038 A 
ATOM     12  C   UNK A   5     145.360 173.071 185.889  0.00  0.00    -0.060 A 
ATOM     13  C   UNK A   5     145.056 171.932 185.146  0.00  0.00    -0.061 A 
ATOM     14  C   UNK A   5     145.186 170.656 185.704  0.00  0.00    -0.052 A 
ATOM     15  C   UNK A   5     145.629 170.526 187.038  0.00  0.00    +0.004 A 
ATOM     16  S   UNK A   5     146.666 169.233 190.645  0.00  0.00    -0.105 S 
ATOM     17  C   UNK A   5     148.293 168.441 190.391  0.00  0.00    +0.027 C 
ATOM     18  C   UNK A   5     148.347 166.898 190.470  0.00  0.00    +0.109 C 
ATOM     19  C   UNK A   5     147.080 166.233 191.033  0.00  0.00    +0.237 C 
ATOM     20  O   UNK A   5     146.267 165.697 190.266  0.00  0.00    -0.274 OA
ATOM     21  N   HYP A   6     146.809 166.298 192.381  0.00  0.00    -0.286 N 
ATOM     22  CD  HYP A   6     147.684 166.779 193.437  0.00  0.00    +0.042 C 
ATOM     23  CG  HYP A   6     147.207 166.063 194.698  0.00  0.00    +0.073 C 
ATOM     24  CB  HYP A   6     145.723 165.828 194.429  0.00  0.00    +0.002 C 
ATOM     25  CA  HYP A   6     145.670 165.548 192.932  0.00  0.00    +0.105 C 
ATOM     26  C   HYP A   6     144.298 165.949 192.359  0.00  0.00    +0.234 C 
ATOM     27  O   HYP A   6     143.391 165.129 192.260  0.00  0.00    -0.274 OA
ATOM     28  N   ALA A   7     144.140 167.284 192.064  0.00  0.00    -0.303 N 
ATOM     29  N   UNK A   5     148.573 166.295 189.152  0.00  0.00    -0.302 N 
ATOM     30  C   THR A   4     149.800 166.325 188.531  0.00  0.00    +0.237 C 
ATOM     31  O   THR A   4     150.770 166.863 189.064  0.00  0.00    -0.274 OA
ATOM     32  CA  THR A   4     149.805 165.833 187.070  0.00  0.00    +0.125 C 
ATOM     33  N   THR A   4     148.814 164.783 186.818  0.00  0.00    -0.300 N 
ATOM     34  C   ALA A   3     148.254 164.628 185.559  0.00  0.00    +0.234 C 
ATOM     35  O   ALA A   3     148.486 165.411 184.641  0.00  0.00    -0.274 OA
ATOM     36  CA  ALA A   3     147.325 163.407 185.417  0.00  0.00    +0.097 C 
ATOM     37  N   ALA A   3     146.094 163.659 186.144  0.00  0.00    -0.303 N 
ATOM     38  C   UNK A   2     145.915 163.279 187.451  0.00  0.00    +0.234 C 
ATOM     39  O   UNK A   2     146.832 162.805 188.132  0.00  0.00    -0.274 OA
ATOM     40  C   UNK A   2     144.500 163.538 188.023  0.00  0.00    +0.102 C 
ATOM     41  N   UNK A   2     144.359 164.970 188.297  0.00  0.00    -0.302 N 
ATOM     42  C   UNK A   1     144.208 165.959 187.347  0.00  0.00    +0.234 C 
ATOM     43  O   UNK A   1     144.217 165.716 186.141  0.00  0.00    -0.274 OA
ATOM     44  HA  ALA A   7     142.064 167.208 191.862  0.00  0.00    +0.059 HD
ATOM     45  H   UNK A   1     144.837 167.185 189.948  0.00  0.00    +0.150 HD
ATOM     46  H   UNK A   1     143.463 167.979 187.420  0.00  0.00    +0.060 HD
ATOM     47  H   UNK A   1     146.431 167.354 187.974  0.00  0.00    +0.034 HD
ATOM     48  H   UNK A   1     145.784 167.872 186.444  0.00  0.00    +0.034 HD
ATOM     49  H   UNK A   5     146.589 171.913 189.756  0.00  0.00    +0.166 HD
ATOM     50  H   UNK A   5     146.042 173.859 187.784  0.00  0.00    +0.064 HD
ATOM     51  H   UNK A   5     145.262 174.052 185.429  0.00  0.00    +0.062 HD
ATOM     52  H   UNK A   5     144.718 172.032 184.114  0.00  0.00    +0.062 HD
ATOM     53  H   UNK A   5     144.959 169.788 185.094  0.00  0.00    +0.062 HD
ATOM     54  H   UNK A   5     148.914 168.834 191.205  0.00  0.00    +0.040 HD
ATOM     55  H   UNK A   5     148.742 168.818 189.468  0.00  0.00    +0.040 HD
ATOM     56  H   UNK A   5     149.206 166.600 191.084  0.00  0.00    +0.060 HD
ATOM     57  HD1 HYP A   6     148.731 166.552 193.220  0.00  0.00    +0.049 HD
ATOM     58  HD2 HYP A   6     147.582 167.865 193.521  0.00  0.00    +0.049 HD
ATOM     59  HG  HYP A   6     147.721 165.101 194.827  0.00  0.00    +0.061 HD
ATOM     60  HB1 HYP A   6     145.331 164.992 195.022  0.00  0.00    +0.031 HD
ATOM     61  HB2 HYP A   6     145.134 166.710 194.711  0.00  0.00    +0.031 HD
ATOM     62  HA  HYP A   6     145.844 164.487 192.713  0.00  0.00    +0.060 HD
ATOM     63  H   ALA A   7     144.951 167.888 192.132  0.00  0.00    +0.149 HD
ATOM     64  H   UNK A   5     147.794 165.825 188.694  0.00  0.00    +0.150 HD
ATOM     65  HA  THR A   4     149.500 166.716 186.487  0.00  0.00    +0.062 HD
ATOM     66  H   THR A   4     148.565 164.103 187.540  0.00  0.00    +0.150 HD
ATOM     67  HA  ALA A   3     147.840 162.545 185.866  0.00  0.00    +0.059 HD
ATOM     68  H   ALA A   3     145.387 164.271 185.720  0.00  0.00    +0.149 HD
ATOM     69  H   UNK A   2     144.477 163.075 189.015  0.00  0.00    +0.060 HD
ATOM     70  H   UNK A   2     144.350 165.253 189.272  0.00  0.00    +0.150 HD
ENDROOT
BRANCH   1  71
ATOM     71  CB  ALA A   7     142.707 169.268 191.943  0.00  0.00    -0.038 C 
ATOM     72  HB1 ALA A   7     141.765 169.676 191.562  0.00  0.00    +0.025 HD
ATOM     73  HB2 ALA A   7     143.519 169.903 191.571  0.00  0.00    +0.025 HD
ATOM     74  HB3 ALA A   7     142.683 169.348 193.036  0.00  0.00    +0.025 HD
ENDBRANCH   1  71
BRANCH  36  75
ATOM     75  CB  ALA A   3     147.031 163.085 183.957  0.00  0.00    -0.038 C 
ATOM     76  HB1 ALA A   3     146.321 163.807 183.538  0.00  0.00    +0.025 HD
ATOM     77  HB2 ALA A   3     147.936 163.121 183.340  0.00  0.00    +0.025 HD
ATOM     78  HB3 ALA A   3     146.596 162.083 183.865  0.00  0.00    +0.025 HD
ENDBRANCH  36  75
BRANCH  40  79
ATOM     79  C   UNK A   2     143.339 162.963 187.191  0.00  0.00    +0.005 C 
ATOM     80  H   UNK A   2     143.035 163.725 186.463  0.00  0.00    +0.032 HD
ATOM     81  H   UNK A   2     143.697 162.103 186.606  0.00  0.00    +0.032 HD
BRANCH  79  82
ATOM     82  C   UNK A   2     142.101 162.509 188.002  0.00  0.00    +0.088 C 
BRANCH  82  83
ATOM     83  C   UNK A   2     140.988 163.553 187.818  0.00  0.00    -0.034 C 
ATOM     84  H   UNK A   2     140.006 163.067 187.849  0.00  0.00    +0.026 HD
ATOM     85  H   UNK A   2     140.995 164.290 188.633  0.00  0.00    +0.026 HD
ATOM     86  H   UNK A   2     141.076 164.093 186.868  0.00  0.00    +0.026 HD
ENDBRANCH  82  83
BRANCH  82  87
ATOM     87  C   UNK A   2     142.392 162.315 189.506  0.00  0.00    +0.073 C 
ATOM     88  H   UNK A   2     143.437 162.019 189.654  0.00  0.00    +0.059 HD
ATOM     89  H   UNK A   2     142.255 163.250 190.060  0.00  0.00    +0.059 HD
BRANCH  87  90
ATOM     90  O   UNK A   2     141.558 161.316 190.068  0.00  0.00    -0.392 OA
ATOM     91  H   UNK A   2     141.077 160.897 189.334  0.00  0.00    +0.210 HD
ENDBRANCH  87  90
ENDBRANCH  82  87
BRANCH  82  92
ATOM     92  O   UNK A   2     141.624 161.271 187.456  0.00  0.00    -0.387 OA
ATOM     93  H   UNK A   2     142.395 160.759 187.155  0.00  0.00    +0.210 HD
ENDBRANCH  82  92
ENDBRANCH  79  82
ENDBRANCH  40  79
BRANCH  23  94
ATOM     94  OD  HYP A   6     147.371 166.854 195.861  0.00  0.00    -0.390 OA
ATOM     95  HD  HYP A   6     146.861 167.679 195.755  0.00  0.00    +0.210 HD
ENDBRANCH  23  94
BRANCH  32  96
ATOM     96  CB  THR A   4     151.229 165.440 186.607  0.00  0.00    +0.079 C 
ATOM     97  HB  THR A   4     151.206 165.231 185.531  0.00  0.00    +0.061 HD
BRANCH  96  98
ATOM     98  CG2 THR A   4     151.791 164.203 187.310  0.00  0.00    -0.037 C 
ATOM     99 HG21 THR A   4     152.511 163.669 186.678  0.00  0.00    +0.026 HD
ATOM    100 HG22 THR A   4     152.280 164.458 188.256  0.00  0.00    +0.026 HD
ATOM    101 HG23 THR A   4     150.983 163.490 187.515  0.00  0.00    +0.026 HD
ENDBRANCH  96  98
BRANCH  96 102
ATOM    102  OG1 THR A   4     152.159 166.515 186.777  0.00  0.00    -0.390 OA
ATOM    103  HG1 THR A   4     152.028 166.880 187.676  0.00  0.00    +0.210 HD
ENDBRANCH  96 102
ENDBRANCH  32  96
TORSDOF 12
ENDMDL
MODEL 5
REMARK VINA RESULT:      -5.5      2.192      7.528
REMARK  Name = Phalloidin_conf3
REMARK  12 active torsions:
REMARK  status: ('A' for Active; 'I' for Inactive)
REMARK    1  A    between atoms: CB_1  and  CA_2
REMARK    2  A    between atoms: CG_24  and  OD_30
REMARK    3  A    between atoms: CA_34  and  CB_53
REMARK    4  A    between atoms: CA_38  and  CB_52
REMARK    5  A    between atoms: C_42  and  C_46
REMARK    6  A    between atoms: C_46  and  C_47
REMARK    7  A    between atoms: C_47  and  C_48
REMARK    8  A    between atoms: C_47  and  C_49
REMARK    9  A    between atoms: C_47  and  O_51
REMARK   10  A    between atoms: C_49  and  O_50
REMARK   11  A    between atoms: CB_53  and  CG2_54
REMARK   12  A    between atoms: CB_53  and  OG1_55
REMARK                            x       y       z     vdW  Elec       q    Type
REMARK                         _______ _______ _______ _____ _____    ______ ____
ROOT
ATOM      1  CA  ALA A   7     143.717 174.176 186.434  0.00  0.00    +0.097 C 
ATOM      2  C   ALA A   7     145.059 173.422 186.602  0.00  0.00    +0.234 C 
ATOM      3  O   ALA A   7     146.141 173.947 186.337  0.00  0.00    -0.274 OA
ATOM      4  N   UNK A   1     144.956 172.171 187.164  0.00  0.00    -0.302 N 
ATOM      5  C   UNK A   1     146.108 171.335 187.513  0.00  0.00    +0.103 C 
ATOM      6  C   UNK A   1     145.892 170.606 188.850  0.00  0.00    +0.002 C 
ATOM      7  C   UNK A   1     145.729 171.508 190.042  0.00  0.00    -0.006 A 
ATOM      8  C   UNK A   5     144.584 172.118 190.517  0.00  0.00    +0.078 A 
ATOM      9  N   UNK A   5     144.907 172.863 191.618  0.00  0.00    -0.349 N 
ATOM     10  C   UNK A   5     146.251 172.762 191.885  0.00  0.00    +0.048 A 
ATOM     11  C   UNK A   5     147.017 173.353 192.895  0.00  0.00    -0.038 A 
ATOM     12  C   UNK A   5     148.385 173.068 192.920  0.00  0.00    -0.060 A 
ATOM     13  C   UNK A   5     148.958 172.227 191.969  0.00  0.00    -0.061 A 
ATOM     14  C   UNK A   5     148.179 171.644 190.965  0.00  0.00    -0.052 A 
ATOM     15  C   UNK A   5     146.795 171.917 190.917  0.00  0.00    +0.004 A 
ATOM     16  S   UNK A   5     142.953 172.194 189.957  0.00  0.00    -0.105 S 
ATOM     17  C   UNK A   5     142.264 170.553 190.368  0.00  0.00    +0.027 C 
ATOM     18  C   UNK A   5     141.885 169.630 189.187  0.00  0.00    +0.109 C 
ATOM     19  C   UNK A   5     141.868 170.315 187.810  0.00  0.00    +0.237 C 
ATOM     20  O   UNK A   5     142.812 170.150 187.023  0.00  0.00    -0.274 OA
ATOM     21  N   HYP A   6     140.841 171.170 187.479  0.00  0.00    -0.286 N 
ATOM     22  CD  HYP A   6     139.610 171.399 188.213  0.00  0.00    +0.042 C 
ATOM     23  CG  HYP A   6     138.610 171.878 187.163  0.00  0.00    +0.073 C 
ATOM     24  CB  HYP A   6     139.493 172.562 186.124  0.00  0.00    +0.002 C 
ATOM     25  CA  HYP A   6     140.759 171.715 186.115  0.00  0.00    +0.105 C 
ATOM     26  C   HYP A   6     141.971 172.565 185.688  0.00  0.00    +0.234 C 
ATOM     27  O   HYP A   6     142.329 172.608 184.515  0.00  0.00    -0.274 OA
ATOM     28  N   ALA A   7     142.547 173.326 186.679  0.00  0.00    -0.303 N 
ATOM     29  N   UNK A   5     142.807 168.496 189.068  0.00  0.00    -0.302 N 
ATOM     30  C   THR A   4     142.775 167.429 189.935  0.00  0.00    +0.237 C 
ATOM     31  O   THR A   4     141.960 167.382 190.857  0.00  0.00    -0.274 OA
ATOM     32  CA  THR A   4     143.944 166.434 189.791  0.00  0.00    +0.125 C 
ATOM     33  N   THR A   4     144.431 166.321 188.413  0.00  0.00    -0.300 N 
ATOM     34  C   ALA A   3     145.751 165.988 188.156  0.00  0.00    +0.234 C 
ATOM     35  O   ALA A   3     146.582 165.870 189.054  0.00  0.00    -0.274 OA
ATOM     36  CA  ALA A   3     146.083 165.785 186.665  0.00  0.00    +0.097 C 
ATOM     37  N   ALA A   3     146.077 167.074 185.997  0.00  0.00    -0.303 N 
ATOM     38  C   UNK A   2     144.961 167.584 185.381  0.00  0.00    +0.234 C 
ATOM     39  O   UNK A   2     143.856 167.035 185.459  0.00  0.00    -0.274 OA
ATOM     40  C   UNK A   2     145.177 168.922 184.633  0.00  0.00    +0.102 C 
ATOM     41  N   UNK A   2     145.272 170.002 185.618  0.00  0.00    -0.302 N 
ATOM     42  C   UNK A   1     146.346 170.240 186.450  0.00  0.00    +0.234 C 
ATOM     43  O   UNK A   1     147.339 169.513 186.461  0.00  0.00    -0.274 OA
ATOM     44  HA  ALA A   7     143.679 174.519 185.393  0.00  0.00    +0.059 HD
ATOM     45  H   UNK A   1     144.031 171.810 187.366  0.00  0.00    +0.150 HD
ATOM     46  H   UNK A   1     147.006 171.964 187.559  0.00  0.00    +0.060 HD
ATOM     47  H   UNK A   1     145.023 169.945 188.782  0.00  0.00    +0.034 HD
ATOM     48  H   UNK A   1     146.744 169.943 189.040  0.00  0.00    +0.034 HD
ATOM     49  H   UNK A   5     144.254 173.427 192.140  0.00  0.00    +0.166 HD
ATOM     50  H   UNK A   5     146.575 174.006 193.642  0.00  0.00    +0.064 HD
ATOM     51  H   UNK A   5     149.011 173.500 193.699  0.00  0.00    +0.062 HD
ATOM     52  H   UNK A   5     150.027 172.012 192.008  0.00  0.00    +0.062 HD
ATOM     53  H   UNK A   5     148.651 170.979 190.250  0.00  0.00    +0.062 HD
ATOM     54  H   UNK A   5     141.344 170.777 190.920  0.00  0.00    +0.040 HD
ATOM     55  H   UNK A   5     142.922 170.050 191.083  0.00  0.00    +0.040 HD
ATOM     56  H   UNK A   5     140.897 169.192 189.377  0.00  0.00    +0.060 HD
ATOM     57  HD1 HYP A   6     139.265 170.487 188.706  0.00  0.00    +0.049 HD
ATOM     58  HD2 HYP A   6     139.786 172.157 188.983  0.00  0.00    +0.049 HD
ATOM     59  HG  HYP A   6     138.079 171.032 186.705  0.00  0.00    +0.061 HD
ATOM     60  HB1 HYP A   6     139.009 172.596 185.140  0.00  0.00    +0.031 HD
ATOM     61  HB2 HYP A   6     139.689 173.604 186.407  0.00  0.00    +0.031 HD
ATOM     62  HA  HYP A   6     140.671 170.863 185.430  0.00  0.00    +0.060 HD
ATOM     63  H   ALA A   7     142.221 173.199 187.630  0.00  0.00    +0.149 HD
ATOM     64  H   UNK A   5     143.480 168.496 188.303  0.00  0.00    +0.150 HD
ATOM     65  HA  THR A   4     144.754 166.881 190.387  0.00  0.00    +0.062 HD
ATOM     66  H   THR A   4     143.797 166.417 187.616  0.00  0.00    +0.150 HD
ATOM     67  HA  ALA A   3     145.294 165.152 186.233  0.00  0.00    +0.059 HD
ATOM     68  H   ALA A   3     146.887 167.694 186.113  0.00  0.00    +0.149 HD
ATOM     69  H   UNK A   2     144.245 169.132 184.098  0.00  0.00    +0.060 HD
ATOM     70  H   UNK A   2     144.485 170.642 185.676  0.00  0.00    +0.150 HD
ENDROOT
BRANCH   1  71
ATOM     71  CB  ALA A   7     143.690 175.379 187.373  0.00  0.00    -0.038 C 
ATOM     72  HB1 ALA A   7     143.540 176.310 186.817  0.00  0.00    +0.025 HD
ATOM     73  HB2 ALA A   7     144.634 175.468 187.924  0.00  0.00    +0.025 HD
ATOM     74  HB3 ALA A   7     142.875 175.296 188.102  0.00  0.00    +0.025 HD
ENDBRANCH   1  71
BRANCH  36  75
ATOM     75  CB  ALA A   3     147.422 165.085 186.472  0.00  0.00    -0.038 C 
ATOM     76  HB1 ALA A   3     147.946 164.983 187.429  0.00  0.00    +0.025 HD
ATOM     77  HB2 ALA A   3     147.301 164.079 186.057  0.00  0.00    +0.025 HD
ATOM     78  HB3 ALA A   3     148.061 165.660 185.791  0.00  0.00    +0.025 HD
ENDBRANCH  36  75
BRANCH  40  79
ATOM     79  C   UNK A   2     146.332 168.927 183.615  0.00  0.00    +0.005 C 
ATOM     80  H   UNK A   2     147.272 169.034 184.171  0.00  0.00    +0.032 HD
ATOM     81  H   UNK A   2     146.382 167.951 183.111  0.00  0.00    +0.032 HD
BRANCH  79  82
ATOM     82  C   UNK A   2     146.255 170.026 182.527  0.00  0.00    +0.088 C 
BRANCH  82  83
ATOM     83  C   UNK A   2     147.137 171.206 182.963  0.00  0.00    -0.034 C 
ATOM     84  H   UNK A   2     147.113 171.997 182.203  0.00  0.00    +0.026 HD
ATOM     85  H   UNK A   2     146.765 171.659 183.893  0.00  0.00    +0.026 HD
ATOM     86  H   UNK A   2     148.181 170.910 183.119  0.00  0.00    +0.026 HD
ENDBRANCH  82  83
BRANCH  82  87
ATOM     87  C   UNK A   2     144.817 170.519 182.257  0.00  0.00    +0.073 C 
ATOM     88  H   UNK A   2     144.669 170.681 181.182  0.00  0.00    +0.059 HD
ATOM     89  H   UNK A   2     144.078 169.772 182.562  0.00  0.00    +0.059 HD
BRANCH  87  90
ATOM     90  O   UNK A   2     144.554 171.736 182.935  0.00  0.00    -0.392 OA
ATOM     91  H   UNK A   2     143.819 171.570 183.550  0.00  0.00    +0.210 HD
ENDBRANCH  87  90
ENDBRANCH  82  87
BRANCH  82  92
ATOM     92  O   UNK A   2     146.805 169.503 181.309  0.00  0.00    -0.387 OA
ATOM     93  H   UNK A   2     146.939 170.247 180.696  0.00  0.00    +0.210 HD
ENDBRANCH  82  92
ENDBRANCH  79  82
ENDBRANCH  40  79
BRANCH  23  94
ATOM     94  OD  HYP A   6     137.675 172.801 187.691  0.00  0.00    -0.390 OA
ATOM     95  HD  HYP A   6     137.335 173.355 186.963  0.00  0.00    +0.210 HD
ENDBRANCH  23  94
BRANCH  32  96
ATOM     96  CB  THR A   4     143.604 165.062 190.423  0.00  0.00    +0.079 C 
ATOM     97  HB  THR A   4     144.537 164.514 190.599  0.00  0.00    +0.061 HD
BRANCH  96  98
ATOM     98  CG2 THR A   4     142.704 164.183 189.554  0.00  0.00    -0.037 C 
ATOM     99 HG21 THR A   4     141.668 164.182 189.914  0.00  0.00    +0.026 HD
ATOM    100 HG22 THR A   4     142.708 164.505 188.507  0.00  0.00    +0.026 HD
ATOM    101 HG23 THR A   4     143.040 163.141 189.600  0.00  0.00    +0.026 HD
ENDBRANCH  96  98
BRANCH  96 102
ATOM    102  OG1 THR A   4     142.989 165.206 191.707  0.00  0.00    -0.390 OA
ATOM    103  HG1 THR A   4     142.108 165.612 191.569  0.00  0.00    +0.210 HD
ENDBRANCH  96 102
ENDBRANCH  32  96
TORSDOF 12
ENDMDL
MODEL 6
REMARK VINA RESULT:      -5.4     16.449     20.720
REMARK  Name = Phalloidin_conf3
REMARK  12 active torsions:
REMARK  status: ('A' for Active; 'I' for Inactive)
REMARK    1  A    between atoms: CB_1  and  CA_2
REMARK    2  A    between atoms: CG_24  and  OD_30
REMARK    3  A    between atoms: CA_34  and  CB_53
REMARK    4  A    between atoms: CA_38  and  CB_52
REMARK    5  A    between atoms: C_42  and  C_46
REMARK    6  A    between atoms: C_46  and  C_47
REMARK    7  A    between atoms: C_47  and  C_48
REMARK    8  A    between atoms: C_47  and  C_49
REMARK    9  A    between atoms: C_47  and  O_51
REMARK   10  A    between atoms: C_49  and  O_50
REMARK   11  A    between atoms: CB_53  and  CG2_54
REMARK   12  A    between atoms: CB_53  and  OG1_55
REMARK                            x       y       z     vdW  Elec       q    Type
REMARK                         _______ _______ _______ _____ _____    ______ ____
ROOT
ATOM      1  CA  ALA A   7     129.051 157.986 194.822  0.00  0.00    +0.097 C 
ATOM      2  C   ALA A   7     129.339 157.110 196.066  0.00  0.00    +0.234 C 
ATOM      3  O   ALA A   7     128.456 156.805 196.868  0.00  0.00    -0.274 OA
ATOM      4  N   UNK A   1     130.621 156.619 196.146  0.00  0.00    -0.302 N 
ATOM      5  C   UNK A   1     131.073 155.682 197.179  0.00  0.00    +0.103 C 
ATOM      6  C   UNK A   1     132.015 154.613 196.597  0.00  0.00    +0.002 C 
ATOM      7  C   UNK A   1     131.394 153.725 195.554  0.00  0.00    -0.006 A 
ATOM      8  C   UNK A   5     131.268 153.942 194.196  0.00  0.00    +0.078 A 
ATOM      9  N   UNK A   5     130.622 152.873 193.638  0.00  0.00    -0.349 N 
ATOM     10  C   UNK A   5     130.313 151.945 194.604  0.00  0.00    +0.048 A 
ATOM     11  C   UNK A   5     129.653 150.717 194.497  0.00  0.00    -0.038 A 
ATOM     12  C   UNK A   5     129.474 149.974 195.667  0.00  0.00    -0.060 A 
ATOM     13  C   UNK A   5     129.937 150.447 196.893  0.00  0.00    -0.061 A 
ATOM     14  C   UNK A   5     130.595 151.678 196.984  0.00  0.00    -0.052 A 
ATOM     15  C   UNK A   5     130.787 152.448 195.816  0.00  0.00    +0.004 A 
ATOM     16  S   UNK A   5     131.652 155.267 193.158  0.00  0.00    -0.105 S 
ATOM     17  C   UNK A   5     133.469 155.186 192.989  0.00  0.00    +0.027 C 
ATOM     18  C   UNK A   5     134.288 156.344 193.605  0.00  0.00    +0.109 C 
ATOM     19  C   UNK A   5     133.459 157.566 194.037  0.00  0.00    +0.237 C 
ATOM     20  O   UNK A   5     133.192 157.742 195.235  0.00  0.00    -0.274 OA
ATOM     21  N   HYP A   6     132.950 158.423 193.088  0.00  0.00    -0.286 N 
ATOM     22  CD  HYP A   6     133.244 158.443 191.666  0.00  0.00    +0.042 C 
ATOM     23  CG  HYP A   6     132.976 159.882 191.230  0.00  0.00    +0.073 C 
ATOM     24  CB  HYP A   6     131.899 160.349 192.206  0.00  0.00    +0.002 C 
ATOM     25  CA  HYP A   6     132.274 159.659 193.511  0.00  0.00    +0.105 C 
ATOM     26  C   HYP A   6     131.023 159.442 194.382  0.00  0.00    +0.234 C 
ATOM     27  O   HYP A   6     130.698 160.262 195.236  0.00  0.00    -0.274 OA
ATOM     28  N   ALA A   7     130.263 158.337 194.074  0.00  0.00    -0.303 N 
ATOM     29  N   UNK A   5     135.028 155.912 194.794  0.00  0.00    -0.302 N 
ATOM     30  C   THR A   4     136.158 155.132 194.713  0.00  0.00    +0.237 C 
ATOM     31  O   THR A   4     136.600 154.763 193.626  0.00  0.00    -0.274 OA
ATOM     32  CA  THR A   4     136.683 154.600 196.061  0.00  0.00    +0.125 C 
ATOM     33  N   THR A   4     136.434 155.520 197.174  0.00  0.00    -0.300 N 
ATOM     34  C   ALA A   3     136.276 155.041 198.466  0.00  0.00    +0.234 C 
ATOM     35  O   ALA A   3     136.241 153.838 198.716  0.00  0.00    -0.274 OA
ATOM     36  CA  ALA A   3     136.145 156.134 199.544  0.00  0.00    +0.097 C 
ATOM     37  N   ALA A   3     134.848 156.774 199.417  0.00  0.00    -0.303 N 
ATOM     38  C   UNK A   2     134.651 157.903 198.661  0.00  0.00    +0.234 C 
ATOM     39  O   UNK A   2     135.537 158.379 197.942  0.00  0.00    -0.274 OA
ATOM     40  C   UNK A   2     133.224 158.501 198.733  0.00  0.00    +0.102 C 
ATOM     41  N   UNK A   2     132.324 157.665 197.934  0.00  0.00    -0.302 N 
ATOM     42  C   UNK A   1     131.868 156.412 198.285  0.00  0.00    +0.234 C 
ATOM     43  O   UNK A   1     132.222 155.852 199.322  0.00  0.00    -0.274 OA
ATOM     44  HA  ALA A   7     128.596 158.913 195.191  0.00  0.00    +0.059 HD
ATOM     45  H   UNK A   1     131.290 156.905 195.441  0.00  0.00    +0.150 HD
ATOM     46  H   UNK A   1     130.198 155.212 197.644  0.00  0.00    +0.060 HD
ATOM     47  H   UNK A   1     132.907 155.086 196.178  0.00  0.00    +0.034 HD
ATOM     48  H   UNK A   1     132.381 153.976 197.411  0.00  0.00    +0.034 HD
ATOM     49  H   UNK A   5     130.383 152.793 192.662  0.00  0.00    +0.166 HD
ATOM     50  H   UNK A   5     129.294 150.340 193.544  0.00  0.00    +0.064 HD
ATOM     51  H   UNK A   5     128.976 149.007 195.621  0.00  0.00    +0.062 HD
ATOM     52  H   UNK A   5     129.793 149.851 197.795  0.00  0.00    +0.062 HD
ATOM     53  H   UNK A   5     130.960 152.011 197.949  0.00  0.00    +0.062 HD
ATOM     54  H   UNK A   5     133.640 155.202 191.906  0.00  0.00    +0.040 HD
ATOM     55  H   UNK A   5     133.824 154.210 193.330  0.00  0.00    +0.040 HD
ATOM     56  H   UNK A   5     135.048 156.670 192.884  0.00  0.00    +0.060 HD
ATOM     57  HD1 HYP A   6     134.279 158.153 191.469  0.00  0.00    +0.049 HD
ATOM     58  HD2 HYP A   6     132.588 157.733 191.153  0.00  0.00    +0.049 HD
ATOM     59  HG  HYP A   6     133.874 160.504 191.338  0.00  0.00    +0.061 HD
ATOM     60  HB1 HYP A   6     131.887 161.442 192.303  0.00  0.00    +0.031 HD
ATOM     61  HB2 HYP A   6     130.902 160.060 191.850  0.00  0.00    +0.031 HD
ATOM     62  HA  HYP A   6     133.002 160.247 194.084  0.00  0.00    +0.060 HD
ATOM     63  H   ALA A   7     130.623 157.686 193.386  0.00  0.00    +0.149 HD
ATOM     64  H   UNK A   5     134.699 156.218 195.709  0.00  0.00    +0.150 HD
ATOM     65  HA  THR A   4     136.085 153.695 196.247  0.00  0.00    +0.062 HD
ATOM     66  H   THR A   4     136.439 156.534 197.038  0.00  0.00    +0.150 HD
ATOM     67  HA  ALA A   3     136.934 156.877 199.359  0.00  0.00    +0.059 HD
ATOM     68  H   ALA A   3     134.020 156.288 199.781  0.00  0.00    +0.149 HD
ATOM     69  H   UNK A   2     133.258 159.450 198.189  0.00  0.00    +0.060 HD
ATOM     70  H   UNK A   2     131.992 158.055 197.057  0.00  0.00    +0.150 HD
ENDROOT
BRANCH   1  71
ATOM     71  CB  ALA A   7     128.069 157.259 193.906  0.00  0.00    -0.038 C 
ATOM     72  HB1 ALA A   7     127.217 157.899 193.656  0.00  0.00    +0.025 HD
ATOM     73  HB2 ALA A   7     127.678 156.355 194.388  0.00  0.00    +0.025 HD
ATOM     74  HB3 ALA A   7     128.548 156.964 192.964  0.00  0.00    +0.025 HD
ENDBRANCH   1  71
BRANCH  36  75
ATOM     75  CB  ALA A   3     136.332 155.571 200.947  0.00  0.00    -0.038 C 
ATOM     76  HB1 ALA A   3     135.377 155.217 201.351  0.00  0.00    +0.025 HD
ATOM     77  HB2 ALA A   3     137.025 154.724 200.959  0.00  0.00    +0.025 HD
ATOM     78  HB3 ALA A   3     136.725 156.342 201.620  0.00  0.00    +0.025 HD
ENDBRANCH  36  75
BRANCH  40  79
ATOM     79  C   UNK A   2     132.697 158.774 200.153  0.00  0.00    +0.005 C 
ATOM     80  H   UNK A   2     131.620 158.563 200.160  0.00  0.00    +0.032 HD
ATOM     81  H   UNK A   2     133.154 158.065 200.858  0.00  0.00    +0.032 HD
BRANCH  79  82
ATOM     82  C   UNK A   2     132.939 160.206 200.688  0.00  0.00    +0.088 C 
BRANCH  82  83
ATOM     83  C   UNK A   2     131.844 161.128 200.129  0.00  0.00    -0.034 C 
ATOM     84  H   UNK A   2     132.074 162.174 200.364  0.00  0.00    +0.026 HD
ATOM     85  H   UNK A   2     131.790 161.062 199.033  0.00  0.00    +0.026 HD
ATOM     86  H   UNK A   2     130.854 160.893 200.536  0.00  0.00    +0.026 HD
ENDBRANCH  82  83
BRANCH  82  87
ATOM     87  C   UNK A   2     134.331 160.768 200.325  0.00  0.00    +0.073 C 
ATOM     88  H   UNK A   2     135.059 160.508 201.103  0.00  0.00    +0.059 HD
ATOM     89  H   UNK A   2     134.704 160.329 199.393  0.00  0.00    +0.059 HD
BRANCH  87  90
ATOM     90  O   UNK A   2     134.299 162.179 200.192  0.00  0.00    -0.392 OA
ATOM     91  H   UNK A   2     134.915 162.415 199.477  0.00  0.00    +0.210 HD
ENDBRANCH  87  90
ENDBRANCH  82  87
BRANCH  82  92
ATOM     92  O   UNK A   2     132.801 160.191 202.116  0.00  0.00    -0.387 OA
ATOM     93  H   UNK A   2     131.868 160.014 202.326  0.00  0.00    +0.210 HD
ENDBRANCH  82  92
ENDBRANCH  79  82
ENDBRANCH  40  79
BRANCH  23  94
ATOM     94  OD  HYP A   6     132.495 159.961 189.901  0.00  0.00    -0.390 OA
ATOM     95  HD  HYP A   6     133.255 159.930 189.289  0.00  0.00    +0.210 HD
ENDBRANCH  23  94
BRANCH  32  96
ATOM     96  CB  THR A   4     138.166 154.164 195.963  0.00  0.00    +0.079 C 
ATOM     97  HB  THR A   4     138.460 153.694 196.909  0.00  0.00    +0.061 HD
BRANCH  96  98
ATOM     98  CG2 THR A   4     139.135 155.316 195.693  0.00  0.00    -0.037 C 
ATOM     99 HG21 THR A   4     138.970 155.762 194.705  0.00  0.00    +0.026 HD
ATOM    100 HG22 THR A   4     139.053 156.104 196.448  0.00  0.00    +0.026 HD
ATOM    101 HG23 THR A   4     140.167 154.944 195.687  0.00  0.00    +0.026 HD
ENDBRANCH  96  98
BRANCH  96 102
ATOM    102  OG1 THR A   4     138.360 153.167 194.954  0.00  0.00    -0.390 OA
ATOM    103  HG1 THR A   4     137.551 152.616 194.924  0.00  0.00    +0.210 HD
ENDBRANCH  96 102
ENDBRANCH  32  96
TORSDOF 12
ENDMDL
MODEL 7
REMARK VINA RESULT:      -5.4      2.908      7.891
REMARK  Name = Phalloidin_conf3
REMARK  12 active torsions:
REMARK  status: ('A' for Active; 'I' for Inactive)
REMARK    1  A    between atoms: CB_1  and  CA_2
REMARK    2  A    between atoms: CG_24  and  OD_30
REMARK    3  A    between atoms: CA_34  and  CB_53
REMARK    4  A    between atoms: CA_38  and  CB_52
REMARK    5  A    between atoms: C_42  and  C_46
REMARK    6  A    between atoms: C_46  and  C_47
REMARK    7  A    between atoms: C_47  and  C_48
REMARK    8  A    between atoms: C_47  and  C_49
REMARK    9  A    between atoms: C_47  and  O_51
REMARK   10  A    between atoms: C_49  and  O_50
REMARK   11  A    between atoms: CB_53  and  CG2_54
REMARK   12  A    between atoms: CB_53  and  OG1_55
REMARK                            x       y       z     vdW  Elec       q    Type
REMARK                         _______ _______ _______ _____ _____    ______ ____
ROOT
ATOM      1  CA  ALA A   7     146.884 167.746 183.925  0.00  0.00    +0.097 C 
ATOM      2  C   ALA A   7     145.511 168.401 184.213  0.00  0.00    +0.234 C 
ATOM      3  O   ALA A   7     144.842 168.932 183.327  0.00  0.00    -0.274 OA
ATOM      4  N   UNK A   1     145.056 168.251 185.503  0.00  0.00    -0.302 N 
ATOM      5  C   UNK A   1     143.736 168.695 185.959  0.00  0.00    +0.103 C 
ATOM      6  C   UNK A   1     143.102 167.678 186.925  0.00  0.00    +0.002 C 
ATOM      7  C   UNK A   1     142.839 166.322 186.330  0.00  0.00    -0.006 A 
ATOM      8  C   UNK A   5     143.697 165.246 186.215  0.00  0.00    +0.078 A 
ATOM      9  N   UNK A   5     143.037 164.222 185.593  0.00  0.00    -0.349 N 
ATOM     10  C   UNK A   5     141.750 164.598 185.289  0.00  0.00    +0.048 A 
ATOM     11  C   UNK A   5     140.729 163.887 184.651  0.00  0.00    -0.038 A 
ATOM     12  C   UNK A   5     139.503 164.535 184.472  0.00  0.00    -0.060 A 
ATOM     13  C   UNK A   5     139.314 165.843 184.913  0.00  0.00    -0.061 A 
ATOM     14  C   UNK A   5     140.346 166.541 185.549  0.00  0.00    -0.052 A 
ATOM     15  C   UNK A   5     141.594 165.909 185.742  0.00  0.00    +0.004 A 
ATOM     16  S   UNK A   5     145.365 165.004 186.588  0.00  0.00    -0.105 S 
ATOM     17  C   UNK A   5     145.395 164.849 188.408  0.00  0.00    +0.027 C 
ATOM     18  C   UNK A   5     146.105 165.970 189.201  0.00  0.00    +0.109 C 
ATOM     19  C   UNK A   5     146.946 166.934 188.347  0.00  0.00    +0.237 C 
ATOM     20  O   UNK A   5     146.506 168.058 188.064  0.00  0.00    -0.274 OA
ATOM     21  N   HYP A   6     148.156 166.523 187.834  0.00  0.00    -0.286 N 
ATOM     22  CD  HYP A   6     148.878 165.302 188.143  0.00  0.00    +0.042 C 
ATOM     23  CG  HYP A   6     150.342 165.628 187.855  0.00  0.00    +0.073 C 
ATOM     24  CB  HYP A   6     150.257 166.688 186.761  0.00  0.00    +0.002 C 
ATOM     25  CA  HYP A   6     149.016 167.489 187.133  0.00  0.00    +0.105 C 
ATOM     26  C   HYP A   6     148.386 168.118 185.876  0.00  0.00    +0.234 C 
ATOM     27  O   HYP A   6     148.674 169.259 185.529  0.00  0.00    -0.274 OA
ATOM     28  N   ALA A   7     147.570 167.291 185.138  0.00  0.00    -0.303 N 
ATOM     29  N   UNK A   5     145.149 166.804 189.935  0.00  0.00    -0.302 N 
ATOM     30  C   THR A   4     144.521 166.369 191.079  0.00  0.00    +0.237 C 
ATOM     31  O   THR A   4     144.741 165.248 191.538  0.00  0.00    -0.274 OA
ATOM     32  CA  THR A   4     143.397 167.288 191.598  0.00  0.00    +0.125 C 
ATOM     33  N   THR A   4     143.646 168.705 191.321  0.00  0.00    -0.300 N 
ATOM     34  C   ALA A   3     142.590 169.589 191.157  0.00  0.00    +0.234 C 
ATOM     35  O   ALA A   3     141.421 169.212 191.139  0.00  0.00    -0.274 OA
ATOM     36  CA  ALA A   3     143.007 171.064 190.997  0.00  0.00    +0.097 C 
ATOM     37  N   ALA A   3     143.614 171.246 189.691  0.00  0.00    -0.303 N 
ATOM     38  C   UNK A   2     144.968 171.143 189.483  0.00  0.00    +0.234 C 
ATOM     39  O   UNK A   2     145.745 170.768 190.368  0.00  0.00    -0.274 OA
ATOM     40  C   UNK A   2     145.439 171.475 188.046  0.00  0.00    +0.102 C 
ATOM     41  N   UNK A   2     145.099 170.352 187.168  0.00  0.00    -0.302 N 
ATOM     42  C   UNK A   1     143.831 170.030 186.729  0.00  0.00    +0.234 C 
ATOM     43  O   UNK A   1     142.836 170.662 187.082  0.00  0.00    -0.274 OA
ATOM     44  HA  ALA A   7     147.504 168.517 183.450  0.00  0.00    +0.059 HD
ATOM     45  H   UNK A   1     145.659 167.791 186.174  0.00  0.00    +0.150 HD
ATOM     46  H   UNK A   1     143.089 168.851 185.087  0.00  0.00    +0.060 HD
ATOM     47  H   UNK A   1     143.728 167.562 187.813  0.00  0.00    +0.034 HD
ATOM     48  H   UNK A   1     142.149 168.078 187.293  0.00  0.00    +0.034 HD
ATOM     49  H   UNK A   5     143.447 163.329 185.366  0.00  0.00    +0.166 HD
ATOM     50  H   UNK A   5     140.869 162.866 184.309  0.00  0.00    +0.064 HD
ATOM     51  H   UNK A   5     138.681 164.009 183.990  0.00  0.00    +0.062 HD
ATOM     52  H   UNK A   5     138.349 166.330 184.770  0.00  0.00    +0.062 HD
ATOM     53  H   UNK A   5     140.162 167.551 185.899  0.00  0.00    +0.062 HD
ATOM     54  H   UNK A   5     145.945 163.918 188.590  0.00  0.00    +0.040 HD
ATOM     55  H   UNK A   5     144.381 164.670 188.776  0.00  0.00    +0.040 HD
ATOM     56  H   UNK A   5     146.751 165.517 189.963  0.00  0.00    +0.060 HD
ATOM     57  HD1 HYP A   6     148.732 165.006 189.184  0.00  0.00    +0.049 HD
ATOM     58  HD2 HYP A   6     148.508 164.493 187.504  0.00  0.00    +0.049 HD
ATOM     59  HG  HYP A   6     150.838 166.045 188.743  0.00  0.00    +0.061 HD
ATOM     60  HB1 HYP A   6     151.159 167.311 186.730  0.00  0.00    +0.031 HD
ATOM     61  HB2 HYP A   6     150.171 166.219 185.773  0.00  0.00    +0.031 HD
ATOM     62  HA  HYP A   6     149.250 168.290 187.845  0.00  0.00    +0.060 HD
ATOM     63  H   ALA A   7     147.346 166.378 185.517  0.00  0.00    +0.149 HD
ATOM     64  H   UNK A   5     144.961 167.745 189.591  0.00  0.00    +0.150 HD
ATOM     65  HA  THR A   4     142.514 166.992 191.013  0.00  0.00    +0.062 HD
ATOM     66  H   THR A   4     144.595 169.087 191.311  0.00  0.00    +0.150 HD
ATOM     67  HA  ALA A   3     143.752 171.284 191.775  0.00  0.00    +0.059 HD
ATOM     68  H   ALA A   3     143.005 171.308 188.868  0.00  0.00    +0.149 HD
ATOM     69  H   UNK A   2     146.533 171.471 188.070  0.00  0.00    +0.060 HD
ATOM     70  H   UNK A   2     145.868 169.776 186.839  0.00  0.00    +0.150 HD
ENDROOT
BRANCH   1  71
ATOM     71  CB  ALA A   7     146.695 166.574 182.965  0.00  0.00    -0.038 C 
ATOM     72  HB1 ALA A   7     146.421 165.662 183.506  0.00  0.00    +0.025 HD
ATOM     73  HB2 ALA A   7     147.618 166.367 182.410  0.00  0.00    +0.025 HD
ATOM     74  HB3 ALA A   7     145.899 166.778 182.240  0.00  0.00    +0.025 HD
ENDBRANCH   1  71
BRANCH  36  75
ATOM     75  CB  ALA A   3     141.827 172.010 191.178  0.00  0.00    -0.038 C 
ATOM     76  HB1 ALA A   3     140.944 171.462 191.528  0.00  0.00    +0.025 HD
ATOM     77  HB2 ALA A   3     142.039 172.792 191.914  0.00  0.00    +0.025 HD
ATOM     78  HB3 ALA A   3     141.575 172.495 190.228  0.00  0.00    +0.025 HD
ENDBRANCH  36  75
BRANCH  40  79
ATOM     79  C   UNK A   2     144.971 172.835 187.499  0.00  0.00    +0.005 C 
ATOM     80  H   UNK A   2     143.875 172.814 187.432  0.00  0.00    +0.032 HD
ATOM     81  H   UNK A   2     145.220 173.627 188.220  0.00  0.00    +0.032 HD
BRANCH  79  82
ATOM     82  C   UNK A   2     145.558 173.236 186.123  0.00  0.00    +0.088 C 
BRANCH  82  83
ATOM     83  C   UNK A   2     146.105 174.669 186.225  0.00  0.00    -0.034 C 
ATOM     84  H   UNK A   2     146.171 175.120 185.228  0.00  0.00    +0.026 HD
ATOM     85  H   UNK A   2     145.432 175.311 186.811  0.00  0.00    +0.026 HD
ATOM     86  H   UNK A   2     147.099 174.703 186.686  0.00  0.00    +0.026 HD
ENDBRANCH  82  83
BRANCH  82  87
ATOM     87  C   UNK A   2     144.533 173.149 184.972  0.00  0.00    +0.073 C 
ATOM     88  H   UNK A   2     143.512 173.205 185.368  0.00  0.00    +0.059 HD
ATOM     89  H   UNK A   2     144.643 173.990 184.279  0.00  0.00    +0.059 HD
BRANCH  87  90
ATOM     90  O   UNK A   2     144.669 171.935 184.251  0.00  0.00    -0.392 OA
ATOM     91  H   UNK A   2     145.473 171.496 184.577  0.00  0.00    +0.210 HD
ENDBRANCH  87  90
ENDBRANCH  82  87
BRANCH  82  92
ATOM     92  O   UNK A   2     146.665 172.372 185.829  0.00  0.00    -0.387 OA
ATOM     93  H   UNK A   2     146.943 172.542 184.912  0.00  0.00    +0.210 HD
ENDBRANCH  82  92
ENDBRANCH  79  82
ENDBRANCH  40  79
BRANCH  23  94
ATOM     94  OD  HYP A   6     151.063 164.503 187.388  0.00  0.00    -0.390 OA
ATOM     95  HD  HYP A   6     151.416 164.014 188.155  0.00  0.00    +0.210 HD
ENDBRANCH  23  94
BRANCH  32  96
ATOM     96  CB  THR A   4     143.081 167.013 193.089  0.00  0.00    +0.079 C 
ATOM     97  HB  THR A   4     143.904 166.433 193.523  0.00  0.00    +0.061 HD
BRANCH  96  98
ATOM     98  CG2 THR A   4     141.787 166.229 193.315  0.00  0.00    -0.037 C 
ATOM     99 HG21 THR A   4     141.147 166.239 192.425  0.00  0.00    +0.026 HD
ATOM    100 HG22 THR A   4     141.984 165.188 193.591  0.00  0.00    +0.026 HD
ATOM    101 HG23 THR A   4     141.200 166.698 194.114  0.00  0.00    +0.026 HD
ENDBRANCH  96  98
BRANCH  96 102
ATOM    102  OG1 THR A   4     143.013 168.224 193.849  0.00  0.00    -0.390 OA
ATOM    103  HG1 THR A   4     142.914 167.976 194.792  0.00  0.00    +0.210 HD
ENDBRANCH  96 102
ENDBRANCH  32  96
TORSDOF 12
ENDMDL
MODEL 8
REMARK VINA RESULT:      -5.4      2.613      7.564
REMARK  Name = Phalloidin_conf3
REMARK  12 active torsions:
REMARK  status: ('A' for Active; 'I' for Inactive)
REMARK    1  A    between atoms: CB_1  and  CA_2
REMARK    2  A    between atoms: CG_24  and  OD_30
REMARK    3  A    between atoms: CA_34  and  CB_53
REMARK    4  A    between atoms: CA_38  and  CB_52
REMARK    5  A    between atoms: C_42  and  C_46
REMARK    6  A    between atoms: C_46  and  C_47
REMARK    7  A    between atoms: C_47  and  C_48
REMARK    8  A    between atoms: C_47  and  C_49
REMARK    9  A    between atoms: C_47  and  O_51
REMARK   10  A    between atoms: C_49  and  O_50
REMARK   11  A    between atoms: CB_53  and  CG2_54
REMARK   12  A    between atoms: CB_53  and  OG1_55
REMARK                            x       y       z     vdW  Elec       q    Type
REMARK                         _______ _______ _______ _____ _____    ______ ____
ROOT
ATOM      1  CA  ALA A   7     140.344 170.935 186.970  0.00  0.00    +0.097 C 
ATOM      2  C   ALA A   7     141.392 170.140 186.151  0.00  0.00    +0.234 C 
ATOM      3  O   ALA A   7     141.201 169.826 184.976  0.00  0.00    -0.274 OA
ATOM      4  N   UNK A   1     142.582 169.907 186.801  0.00  0.00    -0.302 N 
ATOM      5  C   UNK A   1     143.744 169.273 186.173  0.00  0.00    +0.103 C 
ATOM      6  C   UNK A   1     145.057 169.949 186.606  0.00  0.00    +0.002 C 
ATOM      7  C   UNK A   1     145.182 171.395 186.214  0.00  0.00    -0.006 A 
ATOM      8  C   UNK A   5     144.721 172.516 186.878  0.00  0.00    +0.078 A 
ATOM      9  N   UNK A   5     145.045 173.625 186.147  0.00  0.00    -0.349 N 
ATOM     10  C   UNK A   5     145.715 173.263 185.003  0.00  0.00    +0.048 A 
ATOM     11  C   UNK A   5     146.224 174.053 183.967  0.00  0.00    -0.038 A 
ATOM     12  C   UNK A   5     146.866 173.401 182.911  0.00  0.00    -0.060 A 
ATOM     13  C   UNK A   5     146.989 172.013 182.896  0.00  0.00    -0.061 A 
ATOM     14  C   UNK A   5     146.474 171.237 183.939  0.00  0.00    -0.052 A 
ATOM     15  C   UNK A   5     145.820 171.872 185.017  0.00  0.00    +0.004 A 
ATOM     16  S   UNK A   5     143.783 172.754 188.308  0.00  0.00    -0.105 S 
ATOM     17  C   UNK A   5     144.953 172.414 189.669  0.00  0.00    +0.027 C 
ATOM     18  C   UNK A   5     144.678 171.168 190.542  0.00  0.00    +0.109 C 
ATOM     19  C   UNK A   5     143.295 170.526 190.337  0.00  0.00    +0.237 C 
ATOM     20  O   UNK A   5     143.184 169.494 189.659  0.00  0.00    -0.274 OA
ATOM     21  N   HYP A   6     142.171 171.137 190.845  0.00  0.00    -0.286 N 
ATOM     22  CD  HYP A   6     142.113 172.273 191.747  0.00  0.00    +0.042 C 
ATOM     23  CG  HYP A   6     140.776 172.131 192.472  0.00  0.00    +0.073 C 
ATOM     24  CB  HYP A   6     139.902 171.402 191.455  0.00  0.00    +0.002 C 
ATOM     25  CA  HYP A   6     140.871 170.453 190.763  0.00  0.00    +0.105 C 
ATOM     26  C   HYP A   6     140.394 170.147 189.331  0.00  0.00    +0.234 C 
ATOM     27  O   HYP A   6     139.700 169.163 189.093  0.00  0.00    -0.274 OA
ATOM     28  N   ALA A   7     140.714 171.088 188.380  0.00  0.00    -0.303 N 
ATOM     29  N   UNK A   5     145.661 170.107 190.298  0.00  0.00    -0.302 N 
ATOM     30  C   THR A   4     146.950 170.177 190.772  0.00  0.00    +0.237 C 
ATOM     31  O   THR A   4     147.335 171.143 191.429  0.00  0.00    -0.274 OA
ATOM     32  CA  THR A   4     147.900 169.082 190.246  0.00  0.00    +0.125 C 
ATOM     33  N   THR A   4     147.218 167.811 189.989  0.00  0.00    -0.300 N 
ATOM     34  C   ALA A   3     147.691 166.938 189.021  0.00  0.00    +0.234 C 
ATOM     35  O   ALA A   3     148.628 167.231 188.281  0.00  0.00    -0.274 OA
ATOM     36  CA  ALA A   3     146.946 165.591 188.951  0.00  0.00    +0.097 C 
ATOM     37  N   ALA A   3     145.626 165.807 188.387  0.00  0.00    -0.303 N 
ATOM     38  C   UNK A   2     144.519 166.049 189.162  0.00  0.00    +0.234 C 
ATOM     39  O   UNK A   2     144.594 166.220 190.385  0.00  0.00    -0.274 OA
ATOM     40  C   UNK A   2     143.182 166.148 188.387  0.00  0.00    +0.102 C 
ATOM     41  N   UNK A   2     143.131 167.442 187.702  0.00  0.00    -0.302 N 
ATOM     42  C   UNK A   1     143.859 167.788 186.583  0.00  0.00    +0.234 C 
ATOM     43  O   UNK A   1     144.674 167.023 186.069  0.00  0.00    -0.274 OA
ATOM     44  HA  ALA A   7     139.410 170.362 186.921  0.00  0.00    +0.059 HD
ATOM     45  H   UNK A   1     142.668 170.207 187.765  0.00  0.00    +0.150 HD
ATOM     46  H   UNK A   1     143.631 169.317 185.083  0.00  0.00    +0.060 HD
ATOM     47  H   UNK A   1     145.187 169.861 187.688  0.00  0.00    +0.034 HD
ATOM     48  H   UNK A   1     145.902 169.405 186.169  0.00  0.00    +0.034 HD
ATOM     49  H   UNK A   5     144.802 174.570 186.400  0.00  0.00    +0.166 HD
ATOM     50  H   UNK A   5     146.136 175.135 183.975  0.00  0.00    +0.064 HD
ATOM     51  H   UNK A   5     147.286 173.984 182.093  0.00  0.00    +0.062 HD
ATOM     52  H   UNK A   5     147.499 171.522 182.066  0.00  0.00    +0.062 HD
ATOM     53  H   UNK A   5     146.602 170.160 183.908  0.00  0.00    +0.062 HD
ATOM     54  H   UNK A   5     144.876 173.294 190.318  0.00  0.00    +0.040 HD
ATOM     55  H   UNK A   5     145.975 172.421 189.281  0.00  0.00    +0.040 HD
ATOM     56  H   UNK A   5     144.789 171.439 191.599  0.00  0.00    +0.060 HD
ATOM     57  HD1 HYP A   6     142.950 172.267 192.449  0.00  0.00    +0.049 HD
ATOM     58  HD2 HYP A   6     142.163 173.198 191.165  0.00  0.00    +0.049 HD
ATOM     59  HG  HYP A   6     140.880 171.522 193.381  0.00  0.00    +0.061 HD
ATOM     60  HB1 HYP A   6     139.074 170.869 191.941  0.00  0.00    +0.031 HD
ATOM     61  HB2 HYP A   6     139.443 172.114 190.758  0.00  0.00    +0.031 HD
ATOM     62  HA  HYP A   6     140.968 169.505 191.309  0.00  0.00    +0.060 HD
ATOM     63  H   ALA A   7     141.328 171.850 188.648  0.00  0.00    +0.149 HD
ATOM     64  H   UNK A   5     145.367 169.284 189.774  0.00  0.00    +0.150 HD
ATOM     65  HA  THR A   4     148.247 169.468 189.276  0.00  0.00    +0.062 HD
ATOM     66  H   THR A   4     146.424 167.507 190.559  0.00  0.00    +0.150 HD
ATOM     67  HA  ALA A   3     146.841 165.217 189.980  0.00  0.00    +0.059 HD
ATOM     68  H   ALA A   3     145.537 165.931 187.372  0.00  0.00    +0.149 HD
ATOM     69  H   UNK A   2     142.391 166.216 189.141  0.00  0.00    +0.060 HD
ATOM     70  H   UNK A   2     142.486 168.134 188.072  0.00  0.00    +0.150 HD
ENDROOT
BRANCH   1  71
ATOM     71  CB  ALA A   7     140.140 172.308 186.334  0.00  0.00    -0.038 C 
ATOM     72  HB1 ALA A   7     139.326 172.852 186.824  0.00  0.00    +0.025 HD
ATOM     73  HB2 ALA A   7     139.886 172.215 185.271  0.00  0.00    +0.025 HD
ATOM     74  HB3 ALA A   7     141.044 172.923 186.417  0.00  0.00    +0.025 HD
ENDBRANCH   1  71
BRANCH  36  75
ATOM     75  CB  ALA A   3     147.716 164.558 188.139  0.00  0.00    -0.038 C 
ATOM     76  HB1 ALA A   3     147.958 163.685 188.755  0.00  0.00    +0.025 HD
ATOM     77  HB2 ALA A   3     147.139 164.201 187.279  0.00  0.00    +0.025 HD
ATOM     78  HB3 ALA A   3     148.654 164.986 187.766  0.00  0.00    +0.025 HD
ENDBRANCH  36  75
BRANCH  40  79
ATOM     79  C   UNK A   2     142.870 164.959 187.462  0.00  0.00    +0.005 C 
ATOM     80  H   UNK A   2     142.236 165.324 186.643  0.00  0.00    +0.032 HD
ATOM     81  H   UNK A   2     143.799 164.602 186.995  0.00  0.00    +0.032 HD
BRANCH  79  82
ATOM     82  C   UNK A   2     142.179 163.751 188.141  0.00  0.00    +0.088 C 
BRANCH  82  83
ATOM     83  C   UNK A   2     143.200 162.608 188.259  0.00  0.00    -0.034 C 
ATOM     84  H   UNK A   2     142.723 161.649 188.023  0.00  0.00    +0.026 HD
ATOM     85  H   UNK A   2     144.020 162.731 187.538  0.00  0.00    +0.026 HD
ATOM     86  H   UNK A   2     143.634 162.540 189.263  0.00  0.00    +0.026 HD
ENDBRANCH  82  83
BRANCH  82  87
ATOM     87  C   UNK A   2     140.927 163.258 187.385  0.00  0.00    +0.073 C 
ATOM     88  H   UNK A   2     140.567 164.035 186.700  0.00  0.00    +0.059 HD
ATOM     89  H   UNK A   2     141.156 162.384 186.766  0.00  0.00    +0.059 HD
BRANCH  87  90
ATOM     90  O   UNK A   2     139.879 162.928 188.282  0.00  0.00    -0.392 OA
ATOM     91  H   UNK A   2     139.643 161.999 188.119  0.00  0.00    +0.210 HD
ENDBRANCH  87  90
ENDBRANCH  82  87
BRANCH  82  92
ATOM     92  O   UNK A   2     141.801 164.130 189.472  0.00  0.00    -0.387 OA
ATOM     93  H   UNK A   2     141.615 163.317 189.974  0.00  0.00    +0.210 HD
ENDBRANCH  82  92
ENDBRANCH  79  82
ENDBRANCH  40  79
BRANCH  23  94
ATOM     94  OD  HYP A   6     140.204 173.384 192.797  0.00  0.00    -0.390 OA
ATOM     95  HD  HYP A   6     139.586 173.264 193.543  0.00  0.00    +0.210 HD
ENDBRANCH  23  94
BRANCH  32  96
ATOM     96  CB  THR A   4     149.144 168.924 191.155  0.00  0.00    +0.079 C 
ATOM     97  HB  THR A   4     149.847 168.235 190.673  0.00  0.00    +0.061 HD
BRANCH  96  98
ATOM     98  CG2 THR A   4     148.830 168.372 192.546  0.00  0.00    -0.037 C 
ATOM     99 HG21 THR A   4     149.493 167.540 192.812  0.00  0.00    +0.026 HD
ATOM    100 HG22 THR A   4     148.913 169.143 193.319  0.00  0.00    +0.026 HD
ATOM    101 HG23 THR A   4     147.812 167.964 192.567  0.00  0.00    +0.026 HD
ENDBRANCH  96  98
BRANCH  96 102
ATOM    102  OG1 THR A   4     149.849 170.160 191.309  0.00  0.00    -0.390 OA
ATOM    103  HG1 THR A   4     150.802 169.948 191.391  0.00  0.00    +0.210 HD
ENDBRANCH  96 102
ENDBRANCH  32  96
TORSDOF 12
ENDMDL
MODEL 9
REMARK VINA RESULT:      -5.4      2.823      6.824
REMARK  Name = Phalloidin_conf3
REMARK  12 active torsions:
REMARK  status: ('A' for Active; 'I' for Inactive)
REMARK    1  A    between atoms: CB_1  and  CA_2
REMARK    2  A    between atoms: CG_24  and  OD_30
REMARK    3  A    between atoms: CA_34  and  CB_53
REMARK    4  A    between atoms: CA_38  and  CB_52
REMARK    5  A    between atoms: C_42  and  C_46
REMARK    6  A    between atoms: C_46  and  C_47
REMARK    7  A    between atoms: C_47  and  C_48
REMARK    8  A    between atoms: C_47  and  C_49
REMARK    9  A    between atoms: C_47  and  O_51
REMARK   10  A    between atoms: C_49  and  O_50
REMARK   11  A    between atoms: CB_53  and  CG2_54
REMARK   12  A    between atoms: CB_53  and  OG1_55
REMARK                            x       y       z     vdW  Elec       q    Type
REMARK                         _______ _______ _______ _____ _____    ______ ____
ROOT
ATOM      1  CA  ALA A   7     143.759 166.862 192.397  0.00  0.00    +0.097 C 
ATOM      2  C   ALA A   7     142.742 166.517 191.281  0.00  0.00    +0.234 C 
ATOM      3  O   ALA A   7     141.722 165.866 191.507  0.00  0.00    -0.274 OA
ATOM      4  N   UNK A   1     143.014 167.077 190.055  0.00  0.00    -0.302 N 
ATOM      5  C   UNK A   1     142.126 166.970 188.894  0.00  0.00    +0.103 C 
ATOM      6  C   UNK A   1     142.062 168.292 188.109  0.00  0.00    +0.002 C 
ATOM      7  C   UNK A   1     141.506 169.458 188.880  0.00  0.00    -0.006 A 
ATOM      8  C   UNK A   5     142.163 170.326 189.730  0.00  0.00    +0.078 A 
ATOM      9  N   UNK A   5     141.259 171.226 190.224  0.00  0.00    -0.349 N 
ATOM     10  C   UNK A   5     140.007 170.970 189.718  0.00  0.00    +0.048 A 
ATOM     11  C   UNK A   5     138.790 171.620 189.950  0.00  0.00    -0.038 A 
ATOM     12  C   UNK A   5     137.659 171.131 189.290  0.00  0.00    -0.060 A 
ATOM     13  C   UNK A   5     137.747 170.035 188.435  0.00  0.00    -0.061 A 
ATOM     14  C   UNK A   5     138.971 169.396 188.213  0.00  0.00    -0.052 A 
ATOM     15  C   UNK A   5     140.128 169.870 188.869  0.00  0.00    +0.004 A 
ATOM     16  S   UNK A   5     143.780 170.417 190.326  0.00  0.00    -0.105 S 
ATOM     17  C   UNK A   5     144.741 171.057 188.910  0.00  0.00    +0.027 C 
ATOM     18  C   UNK A   5     145.778 170.104 188.272  0.00  0.00    +0.109 C 
ATOM     19  C   UNK A   5     146.076 168.832 189.085  0.00  0.00    +0.237 C 
ATOM     20  O   UNK A   5     145.572 167.750 188.751  0.00  0.00    -0.274 OA
ATOM     21  N   HYP A   6     146.841 168.909 190.227  0.00  0.00    -0.286 N 
ATOM     22  CD  HYP A   6     147.597 170.051 190.710  0.00  0.00    +0.042 C 
ATOM     23  CG  HYP A   6     148.709 169.451 191.567  0.00  0.00    +0.073 C 
ATOM     24  CB  HYP A   6     148.091 168.156 192.087  0.00  0.00    +0.002 C 
ATOM     25  CA  HYP A   6     147.233 167.675 190.924  0.00  0.00    +0.105 C 
ATOM     26  C   HYP A   6     146.057 166.825 191.440  0.00  0.00    +0.234 C 
ATOM     27  O   HYP A   6     146.146 165.603 191.513  0.00  0.00    -0.274 OA
ATOM     28  N   ALA A   7     144.963 167.528 191.891  0.00  0.00    -0.303 N 
ATOM     29  N   UNK A   5     145.351 169.649 186.945  0.00  0.00    -0.302 N 
ATOM     30  C   THR A   4     145.395 170.466 185.840  0.00  0.00    +0.237 C 
ATOM     31  O   THR A   4     145.800 171.625 185.920  0.00  0.00    -0.274 OA
ATOM     32  CA  THR A   4     144.716 169.896 184.578  0.00  0.00    +0.125 C 
ATOM     33  N   THR A   4     144.811 168.436 184.489  0.00  0.00    -0.300 N 
ATOM     34  C   ALA A   3     143.838 167.703 183.828  0.00  0.00    +0.234 C 
ATOM     35  O   ALA A   3     142.820 168.225 183.380  0.00  0.00    -0.274 OA
ATOM     36  CA  ALA A   3     144.138 166.196 183.710  0.00  0.00    +0.097 C 
ATOM     37  N   ALA A   3     143.989 165.579 185.015  0.00  0.00    -0.303 N 
ATOM     38  C   UNK A   2     145.040 165.425 185.886  0.00  0.00    +0.234 C 
ATOM     39  O   UNK A   2     146.156 165.911 185.666  0.00  0.00    -0.274 OA
ATOM     40  C   UNK A   2     144.709 164.649 187.185  0.00  0.00    +0.102 C 
ATOM     41  N   UNK A   2     143.946 165.527 188.075  0.00  0.00    -0.302 N 
ATOM     42  C   UNK A   1     142.628 165.896 187.904  0.00  0.00    +0.234 C 
ATOM     43  O   UNK A   1     141.968 165.535 186.930  0.00  0.00    -0.274 OA
ATOM     44  HA  ALA A   7     144.059 165.911 192.852  0.00  0.00    +0.059 HD
ATOM     45  H   UNK A   1     143.868 167.611 189.949  0.00  0.00    +0.150 HD
ATOM     46  H   UNK A   1     141.125 166.676 189.235  0.00  0.00    +0.060 HD
ATOM     47  H   UNK A   1     143.054 168.554 187.733  0.00  0.00    +0.034 HD
ATOM     48  H   UNK A   1     141.442 168.149 187.215  0.00  0.00    +0.034 HD
ATOM     49  H   UNK A   5     141.477 171.954 190.886  0.00  0.00    +0.166 HD
ATOM     50  H   UNK A   5     138.715 172.478 190.612  0.00  0.00    +0.064 HD
ATOM     51  H   UNK A   5     136.697 171.619 189.437  0.00  0.00    +0.062 HD
ATOM     52  H   UNK A   5     136.855 169.672 187.924  0.00  0.00    +0.062 HD
ATOM     53  H   UNK A   5     139.012 168.557 187.527  0.00  0.00    +0.062 HD
ATOM     54  H   UNK A   5     145.289 171.913 189.321  0.00  0.00    +0.040 HD
ATOM     55  H   UNK A   5     144.058 171.473 188.165  0.00  0.00    +0.040 HD
ATOM     56  H   UNK A   5     146.716 170.649 188.112  0.00  0.00    +0.060 HD
ATOM     57  HD1 HYP A   6     148.003 170.638 189.883  0.00  0.00    +0.049 HD
ATOM     58  HD2 HYP A   6     146.937 170.699 191.295  0.00  0.00    +0.049 HD
ATOM     59  HG  HYP A   6     149.598 169.225 190.963  0.00  0.00    +0.061 HD
ATOM     60  HB1 HYP A   6     148.860 167.425 192.368  0.00  0.00    +0.031 HD
ATOM     61  HB2 HYP A   6     147.501 168.345 192.993  0.00  0.00    +0.031 HD
ATOM     62  HA  HYP A   6     147.816 167.073 190.215  0.00  0.00    +0.060 HD
ATOM     63  H   ALA A   7     144.951 168.532 191.754  0.00  0.00    +0.149 HD
ATOM     64  H   UNK A   5     145.030 168.688 186.842  0.00  0.00    +0.150 HD
ATOM     65  HA  THR A   4     143.651 170.145 184.708  0.00  0.00    +0.062 HD
ATOM     66  H   THR A   4     145.626 167.933 184.850  0.00  0.00    +0.150 HD
ATOM     67  HA  ALA A   3     145.182 166.092 183.378  0.00  0.00    +0.059 HD
ATOM     68  H   ALA A   3     143.044 165.383 185.364  0.00  0.00    +0.149 HD
ATOM     69  H   UNK A   2     145.659 164.502 187.708  0.00  0.00    +0.060 HD
ATOM     70  H   UNK A   2     144.425 165.874 188.900  0.00  0.00    +0.150 HD
ENDROOT
BRANCH   1  71
ATOM     71  CB  ALA A   7     143.082 167.743 193.445  0.00  0.00    -0.038 C 
ATOM     72  HB1 ALA A   7     143.553 168.730 193.493  0.00  0.00    +0.025 HD
ATOM     73  HB2 ALA A   7     143.151 167.292 194.442  0.00  0.00    +0.025 HD
ATOM     74  HB3 ALA A   7     142.022 167.895 193.211  0.00  0.00    +0.025 HD
ENDBRANCH   1  71
BRANCH  36  75
ATOM     75  CB  ALA A   3     143.237 165.516 182.687  0.00  0.00    -0.038 C 
ATOM     76  HB1 ALA A   3     142.823 166.252 181.989  0.00  0.00    +0.025 HD
ATOM     77  HB2 ALA A   3     143.780 164.773 182.095  0.00  0.00    +0.025 HD
ATOM     78  HB3 ALA A   3     142.403 165.011 183.188  0.00  0.00    +0.025 HD
ENDBRANCH  36  75
BRANCH  40  79
ATOM     79  C   UNK A   2     144.050 163.273 186.978  0.00  0.00    +0.005 C 
ATOM     80  H   UNK A   2     143.034 163.439 186.599  0.00  0.00    +0.032 HD
ATOM     81  H   UNK A   2     144.586 162.723 186.191  0.00  0.00    +0.032 HD
BRANCH  79  82
ATOM     82  C   UNK A   2     143.986 162.372 188.235  0.00  0.00    +0.088 C 
BRANCH  82  83
ATOM     83  C   UNK A   2     144.424 160.952 187.841  0.00  0.00    -0.034 C 
ATOM     84  H   UNK A   2     144.999 160.980 186.908  0.00  0.00    +0.026 HD
ATOM     85  H   UNK A   2     145.087 160.516 188.601  0.00  0.00    +0.026 HD
ATOM     86  H   UNK A   2     143.572 160.278 187.702  0.00  0.00    +0.026 HD
ENDBRANCH  82  83
BRANCH  82  87
ATOM     87  C   UNK A   2     142.586 162.326 188.884  0.00  0.00    +0.073 C 
ATOM     88  H   UNK A   2     141.814 162.537 188.134  0.00  0.00    +0.059 HD
ATOM     89  H   UNK A   2     142.365 161.329 189.281  0.00  0.00    +0.059 HD
BRANCH  87  90
ATOM     90  O   UNK A   2     142.469 163.277 189.929  0.00  0.00    -0.392 OA
ATOM     91  H   UNK A   2     143.352 163.377 190.326  0.00  0.00    +0.210 HD
ENDBRANCH  87  90
ENDBRANCH  82  87
BRANCH  82  92
ATOM     92  O   UNK A   2     144.930 162.862 189.199  0.00  0.00    -0.387 OA
ATOM     93  H   UNK A   2     144.548 162.736 190.085  0.00  0.00    +0.210 HD
ENDBRANCH  82  92
ENDBRANCH  79  82
ENDBRANCH  40  79
BRANCH  23  94
ATOM     94  OD  HYP A   6     149.066 170.290 192.650  0.00  0.00    -0.390 OA
ATOM     95  HD  HYP A   6     149.916 170.724 192.445  0.00  0.00    +0.210 HD
ENDBRANCH  23  94
BRANCH  32  96
ATOM     96  CB  THR A   4     145.207 170.609 183.295  0.00  0.00    +0.079 C 
ATOM     97  HB  THR A   4     144.605 170.265 182.447  0.00  0.00    +0.061 HD
BRANCH  96  98
ATOM     98  CG2 THR A   4     146.676 170.345 182.962  0.00  0.00    -0.037 C 
ATOM     99 HG21 THR A   4     147.074 169.495 183.528  0.00  0.00    +0.026 HD
ATOM    100 HG22 THR A   4     146.824 170.152 181.894  0.00  0.00    +0.026 HD
ATOM    101 HG23 THR A   4     147.287 171.210 183.248  0.00  0.00    +0.026 HD
ENDBRANCH  96  98
BRANCH  96 102
ATOM    102  OG1 THR A   4     145.009 172.025 183.366  0.00  0.00    -0.390 OA
ATOM    103  HG1 THR A   4     145.492 172.352 184.153  0.00  0.00    +0.210 HD
ENDBRANCH  96 102
ENDBRANCH  32  96
TORSDOF 12
ENDMDL
MODEL 10
REMARK VINA RESULT:      -5.4      2.548      7.032
REMARK  Name = Phalloidin_conf3
REMARK  12 active torsions:
REMARK  status: ('A' for Active; 'I' for Inactive)
REMARK    1  A    between atoms: CB_1  and  CA_2
REMARK    2  A    between atoms: CG_24  and  OD_30
REMARK    3  A    between atoms: CA_34  and  CB_53
REMARK    4  A    between atoms: CA_38  and  CB_52
REMARK    5  A    between atoms: C_42  and  C_46
REMARK    6  A    between atoms: C_46  and  C_47
REMARK    7  A    between atoms: C_47  and  C_48
REMARK    8  A    between atoms: C_47  and  C_49
REMARK    9  A    between atoms: C_47  and  O_51
REMARK   10  A    between atoms: C_49  and  O_50
REMARK   11  A    between atoms: CB_53  and  CG2_54
REMARK   12  A    between atoms: CB_53  and  OG1_55
REMARK                            x       y       z     vdW  Elec       q    Type
REMARK                         _______ _______ _______ _____ _____    ______ ____
ROOT
ATOM      1  CA  ALA A   7     145.011 167.043 191.354  0.00  0.00    +0.097 C 
ATOM      2  C   ALA A   7     144.317 166.755 189.999  0.00  0.00    +0.234 C 
ATOM      3  O   ALA A   7     143.603 165.767 189.828  0.00  0.00    -0.274 OA
ATOM      4  N   UNK A   1     144.476 167.734 189.046  0.00  0.00    -0.302 N 
ATOM      5  C   UNK A   1     143.815 167.715 187.739  0.00  0.00    +0.103 C 
ATOM      6  C   UNK A   1     143.332 169.118 187.331  0.00  0.00    +0.002 C 
ATOM      7  C   UNK A   1     142.302 169.722 188.245  0.00  0.00    -0.006 A 
ATOM      8  C   UNK A   5     142.493 170.440 189.410  0.00  0.00    +0.078 A 
ATOM      9  N   UNK A   5     141.271 170.780 189.921  0.00  0.00    -0.349 N 
ATOM     10  C   UNK A   5     140.266 170.300 189.116  0.00  0.00    +0.048 A 
ATOM     11  C   UNK A   5     138.877 170.399 189.250  0.00  0.00    -0.038 A 
ATOM     12  C   UNK A   5     138.087 169.801 188.264  0.00  0.00    -0.060 A 
ATOM     13  C   UNK A   5     138.670 169.131 187.190  0.00  0.00    -0.061 A 
ATOM     14  C   UNK A   5     140.060 169.040 187.071  0.00  0.00    -0.052 A 
ATOM     15  C   UNK A   5     140.880 169.635 188.055  0.00  0.00    +0.004 A 
ATOM     16  S   UNK A   5     143.887 170.866 190.334  0.00  0.00    -0.105 S 
ATOM     17  C   UNK A   5     144.668 172.206 189.368  0.00  0.00    +0.027 C 
ATOM     18  C   UNK A   5     146.047 171.908 188.735  0.00  0.00    +0.109 C 
ATOM     19  C   UNK A   5     146.723 170.618 189.231  0.00  0.00    +0.237 C 
ATOM     20  O   UNK A   5     146.704 169.597 188.528  0.00  0.00    -0.274 OA
ATOM     21  N   HYP A   6     147.284 170.575 190.488  0.00  0.00    -0.286 N 
ATOM     22  CD  HYP A   6     147.499 171.685 191.399  0.00  0.00    +0.042 C 
ATOM     23  CG  HYP A   6     148.664 171.248 192.283  0.00  0.00    +0.073 C 
ATOM     24  CB  HYP A   6     148.536 169.727 192.306  0.00  0.00    +0.002 C 
ATOM     25  CA  HYP A   6     148.045 169.387 190.905  0.00  0.00    +0.105 C 
ATOM     26  C   HYP A   6     147.234 168.078 190.923  0.00  0.00    +0.234 C 
ATOM     27  O   HYP A   6     147.772 166.999 190.691  0.00  0.00    -0.274 OA
ATOM     28  N   ALA A   7     145.917 168.195 191.302  0.00  0.00    -0.303 N 
ATOM     29  N   UNK A   5     145.959 171.786 187.276  0.00  0.00    -0.302 N 
ATOM     30  C   THR A   4     145.798 172.879 186.457  0.00  0.00    +0.237 C 
ATOM     31  O   THR A   4     145.723 174.017 186.920  0.00  0.00    -0.274 OA
ATOM     32  CA  THR A   4     145.515 172.550 184.977  0.00  0.00    +0.125 C 
ATOM     33  N   THR A   4     146.166 171.315 184.532  0.00  0.00    -0.300 N 
ATOM     34  C   ALA A   3     145.614 170.553 183.514  0.00  0.00    +0.234 C 
ATOM     35  O   ALA A   3     144.523 170.822 183.015  0.00  0.00    -0.274 OA
ATOM     36  CA  ALA A   3     146.474 169.353 183.073  0.00  0.00    +0.097 C 
ATOM     37  N   ALA A   3     146.442 168.338 184.110  0.00  0.00    -0.303 N 
ATOM     38  C   UNK A   2     147.380 168.272 185.110  0.00  0.00    +0.234 C 
ATOM     39  O   UNK A   2     148.244 169.143 185.264  0.00  0.00    -0.274 OA
ATOM     40  C   UNK A   2     147.242 167.059 186.063  0.00  0.00    +0.102 C 
ATOM     41  N   UNK A   2     146.118 167.300 186.971  0.00  0.00    -0.302 N 
ATOM     42  C   UNK A   1     144.783 167.245 186.630  0.00  0.00    +0.234 C 
ATOM     43  O   UNK A   1     144.409 167.017 185.481  0.00  0.00    -0.274 OA
ATOM     44  HA  ALA A   7     145.603 166.152 191.597  0.00  0.00    +0.059 HD
ATOM     45  H   UNK A   1     145.070 168.525 189.265  0.00  0.00    +0.150 HD
ATOM     46  H   UNK A   1     142.972 167.014 187.774  0.00  0.00    +0.060 HD
ATOM     47  H   UNK A   1     144.183 169.801 187.252  0.00  0.00    +0.034 HD
ATOM     48  H   UNK A   1     142.905 169.072 186.322  0.00  0.00    +0.034 HD
ATOM     49  H   UNK A   5     141.130 171.288 190.781  0.00  0.00    +0.166 HD
ATOM     50  H   UNK A   5     138.418 170.924 190.082  0.00  0.00    +0.064 HD
ATOM     51  H   UNK A   5     137.003 169.868 188.328  0.00  0.00    +0.062 HD
ATOM     52  H   UNK A   5     138.037 168.676 186.427  0.00  0.00    +0.062 HD
ATOM     53  H   UNK A   5     140.483 168.528 186.213  0.00  0.00    +0.062 HD
ATOM     54  H   UNK A   5     144.807 173.016 190.093  0.00  0.00    +0.040 HD
ATOM     55  H   UNK A   5     143.956 172.587 188.631  0.00  0.00    +0.040 HD
ATOM     56  H   UNK A   5     146.719 172.754 188.923  0.00  0.00    +0.060 HD
ATOM     57  HD1 HYP A   6     147.732 172.605 190.857  0.00  0.00    +0.049 HD
ATOM     58  HD2 HYP A   6     146.587 171.854 191.981  0.00  0.00    +0.049 HD
ATOM     59  HG  HYP A   6     149.628 171.535 191.841  0.00  0.00    +0.061 HD
ATOM     60  HB1 HYP A   6     149.493 169.243 192.540  0.00  0.00    +0.031 HD
ATOM     61  HB2 HYP A   6     147.831 169.410 193.085  0.00  0.00    +0.031 HD
ATOM     62  HA  HYP A   6     148.879 169.273 190.201  0.00  0.00    +0.060 HD
ATOM     63  H   ALA A   7     145.537 169.125 191.433  0.00  0.00    +0.149 HD
ATOM     64  H   UNK A   5     146.038 170.859 186.861  0.00  0.00    +0.150 HD
ATOM     65  HA  THR A   4     144.428 172.377 184.942  0.00  0.00    +0.062 HD
ATOM     66  H   THR A   4     147.070 171.024 184.911  0.00  0.00    +0.150 HD
ATOM     67  HA  ALA A   3     147.506 169.712 182.951  0.00  0.00    +0.059 HD
ATOM     68  H   ALA A   3     145.612 167.739 184.190  0.00  0.00    +0.149 HD
ATOM     69  H   UNK A   2     148.120 167.076 186.716  0.00  0.00    +0.060 HD
ATOM     70  H   UNK A   2     146.345 167.504 187.940  0.00  0.00    +0.150 HD
ENDROOT
BRANCH   1  71
ATOM     71  CB  ALA A   7     143.950 167.265 192.429  0.00  0.00    -0.038 C 
ATOM     72  HB1 ALA A   7     143.267 168.072 192.147  0.00  0.00    +0.025 HD
ATOM     73  HB2 ALA A   7     144.411 167.538 193.386  0.00  0.00    +0.025 HD
ATOM     74  HB3 ALA A   7     143.347 166.363 192.586  0.00  0.00    +0.025 HD
ENDBRANCH   1  71
BRANCH  36  75
ATOM     75  CB  ALA A   3     146.004 168.777 181.743  0.00  0.00    -0.038 C 
ATOM     76  HB1 ALA A   3     144.984 169.108 181.518  0.00  0.00    +0.025 HD
ATOM     77  HB2 ALA A   3     146.641 169.096 180.912  0.00  0.00    +0.025 HD
ATOM     78  HB3 ALA A   3     146.009 167.681 181.776  0.00  0.00    +0.025 HD
ENDBRANCH  36  75
BRANCH  40  79
ATOM     79  C   UNK A   2     147.178 165.685 185.371  0.00  0.00    +0.005 C 
ATOM     80  H   UNK A   2     146.206 165.604 184.869  0.00  0.00    +0.032 HD
ATOM     81  H   UNK A   2     147.939 165.636 184.579  0.00  0.00    +0.032 HD
BRANCH  79  82
ATOM     82  C   UNK A   2     147.375 164.463 186.301  0.00  0.00    +0.088 C 
BRANCH  82  83
ATOM     83  C   UNK A   2     148.352 163.488 185.626  0.00  0.00    -0.034 C 
ATOM     84  H   UNK A   2     147.832 162.903 184.858  0.00  0.00    +0.026 HD
ATOM     85  H   UNK A   2     149.159 164.027 185.110  0.00  0.00    +0.026 HD
ATOM     86  H   UNK A   2     148.806 162.792 186.341  0.00  0.00    +0.026 HD
ENDBRANCH  82  83
BRANCH  82  87
ATOM     87  C   UNK A   2     146.057 163.733 186.639  0.00  0.00    +0.073 C 
ATOM     88  H   UNK A   2     145.333 163.863 185.826  0.00  0.00    +0.059 HD
ATOM     89  H   UNK A   2     146.217 162.654 186.740  0.00  0.00    +0.059 HD
BRANCH  87  90
ATOM     90  O   UNK A   2     145.484 164.231 187.836  0.00  0.00    -0.392 OA
ATOM     91  H   UNK A   2     145.021 163.490 188.263  0.00  0.00    +0.210 HD
ENDBRANCH  87  90
ENDBRANCH  82  87
BRANCH  82  92
ATOM     92  O   UNK A   2     147.986 164.909 187.520  0.00  0.00    -0.387 OA
ATOM     93  H   UNK A   2     148.919 164.632 187.508  0.00  0.00    +0.210 HD
ENDBRANCH  82  92
ENDBRANCH  79  82
ENDBRANCH  40  79
BRANCH  23  94
ATOM     94  OD  HYP A   6     148.567 171.765 193.597  0.00  0.00    -0.390 OA
ATOM     95  HD  HYP A   6     147.772 172.327 193.656  0.00  0.00    +0.210 HD
ENDBRANCH  23  94
BRANCH  32  96
ATOM     96  CB  THR A   4     145.824 173.757 184.057  0.00  0.00    +0.079 C 
ATOM     97  HB  THR A   4     146.030 174.634 184.682  0.00  0.00    +0.061 HD
BRANCH  96  98
ATOM     98  CG2 THR A   4     144.683 174.120 183.105  0.00  0.00    -0.037 C 
ATOM     99 HG21 THR A   4     144.081 174.951 183.491  0.00  0.00    +0.026 HD
ATOM    100 HG22 THR A   4     145.052 174.391 182.111  0.00  0.00    +0.026 HD
ATOM    101 HG23 THR A   4     143.996 173.272 183.004  0.00  0.00    +0.026 HD
ENDBRANCH  96  98
BRANCH  96 102
ATOM    102  OG1 THR A   4     147.008 173.544 183.281  0.00  0.00    -0.390 OA
ATOM    103  HG1 THR A   4     146.944 174.109 182.483  0.00  0.00    +0.210 HD
ENDBRANCH  96 102
ENDBRANCH  32  96
TORSDOF 12
ENDMDL
