MODEL 1
REMARK VINA RESULT:      -5.7      0.000      0.000
REMARK  Name = Phalloidin_conf2
REMARK  12 active torsions:
REMARK  status: ('A' for Active; 'I' for Inactive)
REMARK    1  A    between atoms: CB_1  and  CA_2
REMARK    2  A    between atoms: CG_24  and  OD_30
REMARK    3  A    between atoms: CA_34  and  CB_53
REMARK    4  A    between atoms: CA_38  and  CB_52
REMARK    5  A    between atoms: C_42  and  C_46
REMARK    6  A    between atoms: C_46  and  C_47
REMARK    7  A    between atoms: C_47  and  C_48
REMARK    8  A    between atoms: C_47  and  C_49
REMARK    9  A    between atoms: C_47  and  O_51
REMARK   10  A    between atoms: C_49  and  O_50
REMARK   11  A    between atoms: CB_53  and  CG2_54
REMARK   12  A    between atoms: CB_53  and  OG1_55
REMARK                            x       y       z     vdW  Elec       q    Type
REMARK                         _______ _______ _______ _____ _____    ______ ____
ROOT
ATOM      1  CA  ALA A   7     134.386 159.703 198.865  0.00  0.00    +0.097 C 
ATOM      2  C   ALA A   7     134.791 158.241 198.596  0.00  0.00    +0.234 C 
ATOM      3  O   ALA A   7     134.417 157.683 197.562  0.00  0.00    -0.274 OA
ATOM      4  N   UNK A   1     135.582 157.575 199.496  0.00  0.00    -0.302 N 
ATOM      5  C   UNK A   1     135.697 156.100 199.491  0.00  0.00    +0.103 C 
ATOM      6  C   UNK A   1     134.333 155.440 199.818  0.00  0.00    +0.002 C 
ATOM      7  C   UNK A   1     134.142 153.999 199.446  0.00  0.00    -0.006 A 
ATOM      8  C   UNK A   5     133.096 153.461 198.716  0.00  0.00    +0.078 A 
ATOM      9  N   UNK A   5     133.267 152.112 198.622  0.00  0.00    -0.349 N 
ATOM     10  C   UNK A   5     134.404 151.729 199.288  0.00  0.00    +0.048 A 
ATOM     11  C   UNK A   5     134.958 150.454 199.455  0.00  0.00    -0.038 A 
ATOM     12  C   UNK A   5     136.127 150.350 200.215  0.00  0.00    -0.060 A 
ATOM     13  C   UNK A   5     136.707 151.476 200.788  0.00  0.00    -0.061 A 
ATOM     14  C   UNK A   5     136.138 152.744 200.608  0.00  0.00    -0.052 A 
ATOM     15  C   UNK A   5     134.965 152.884 199.837  0.00  0.00    +0.004 A 
ATOM     16  S   UNK A   5     131.652 154.120 198.013  0.00  0.00    -0.105 S 
ATOM     17  C   UNK A   5     132.334 155.192 196.709  0.00  0.00    +0.027 C 
ATOM     18  C   UNK A   5     131.299 156.057 195.973  0.00  0.00    +0.109 C 
ATOM     19  C   UNK A   5     131.322 157.531 196.462  0.00  0.00    +0.237 C 
ATOM     20  O   UNK A   5     132.027 158.388 195.915  0.00  0.00    -0.274 OA
ATOM     21  N   HYP A   6     130.556 157.893 197.552  0.00  0.00    -0.286 N 
ATOM     22  CD  HYP A   6     129.488 157.125 198.179  0.00  0.00    +0.042 C 
ATOM     23  CG  HYP A   6     128.969 158.001 199.322  0.00  0.00    +0.073 C 
ATOM     24  CB  HYP A   6     129.355 159.420 198.914  0.00  0.00    +0.002 C 
ATOM     25  CA  HYP A   6     130.644 159.245 198.107  0.00  0.00    +0.105 C 
ATOM     26  C   HYP A   6     131.909 159.317 198.989  0.00  0.00    +0.234 C 
ATOM     27  O   HYP A   6     131.947 158.843 200.124  0.00  0.00    -0.274 OA
ATOM     28  N   ALA A   7     133.019 159.816 198.340  0.00  0.00    -0.303 N 
ATOM     29  N   UNK A   5     131.656 156.096 194.550  0.00  0.00    -0.302 N 
ATOM     30  C   THR A   4     130.812 155.725 193.535  0.00  0.00    +0.237 C 
ATOM     31  O   THR A   4     129.646 155.387 193.736  0.00  0.00    -0.274 OA
ATOM     32  CA  THR A   4     131.382 155.871 192.107  0.00  0.00    +0.125 C 
ATOM     33  N   THR A   4     132.832 156.078 192.091  0.00  0.00    -0.300 N 
ATOM     34  C   ALA A   3     133.744 155.055 192.180  0.00  0.00    +0.234 C 
ATOM     35  O   ALA A   3     133.415 153.874 192.283  0.00  0.00    -0.274 OA
ATOM     36  CA  ALA A   3     135.215 155.525 192.194  0.00  0.00    +0.097 C 
ATOM     37  N   ALA A   3     135.854 155.035 193.405  0.00  0.00    -0.303 N 
ATOM     38  C   UNK A   2     135.552 155.568 194.633  0.00  0.00    +0.234 C 
ATOM     39  O   UNK A   2     134.731 156.477 194.754  0.00  0.00    -0.274 OA
ATOM     40  C   UNK A   2     136.305 154.941 195.836  0.00  0.00    +0.102 C 
ATOM     41  N   UNK A   2     135.860 155.624 197.047  0.00  0.00    -0.302 N 
ATOM     42  C   UNK A   1     136.451 155.487 198.274  0.00  0.00    +0.234 C 
ATOM     43  O   UNK A   1     137.495 154.849 198.423  0.00  0.00    -0.274 OA
ATOM     44  HA  ALA A   7     135.007 160.324 198.208  0.00  0.00    +0.059 HD
ATOM     45  H   UNK A   1     135.909 158.057 200.323  0.00  0.00    +0.150 HD
ATOM     46  H   UNK A   1     136.359 155.898 200.344  0.00  0.00    +0.060 HD
ATOM     47  H   UNK A   1     133.520 156.030 199.385  0.00  0.00    +0.034 HD
ATOM     48  H   UNK A   1     134.172 155.527 200.903  0.00  0.00    +0.034 HD
ATOM     49  H   UNK A   5     132.631 151.489 198.148  0.00  0.00    +0.166 HD
ATOM     50  H   UNK A   5     134.495 149.574 199.021  0.00  0.00    +0.064 HD
ATOM     51  H   UNK A   5     136.580 149.373 200.368  0.00  0.00    +0.062 HD
ATOM     52  H   UNK A   5     137.613 151.376 201.381  0.00  0.00    +0.062 HD
ATOM     53  H   UNK A   5     136.611 153.608 201.063  0.00  0.00    +0.062 HD
ATOM     54  H   UNK A   5     133.092 155.824 197.159  0.00  0.00    +0.040 HD
ATOM     55  H   UNK A   5     132.839 154.522 196.004  0.00  0.00    +0.040 HD
ATOM     56  H   UNK A   5     130.288 155.652 196.065  0.00  0.00    +0.060 HD
ATOM     57  HD1 HYP A   6     129.862 156.168 198.536  0.00  0.00    +0.049 HD
ATOM     58  HD2 HYP A   6     128.717 156.960 197.418  0.00  0.00    +0.049 HD
ATOM     59  HG  HYP A   6     127.887 157.893 199.445  0.00  0.00    +0.061 HD
ATOM     60  HB1 HYP A   6     129.478 160.094 199.767  0.00  0.00    +0.031 HD
ATOM     61  HB2 HYP A   6     128.577 159.827 198.256  0.00  0.00    +0.031 HD
ATOM     62  HA  HYP A   6     130.711 159.992 197.309  0.00  0.00    +0.060 HD
ATOM     63  H   ALA A   7     132.946 159.833 197.322  0.00  0.00    +0.149 HD
ATOM     64  H   UNK A   5     132.575 156.475 194.316  0.00  0.00    +0.150 HD
ATOM     65  HA  THR A   4     131.170 154.922 191.601  0.00  0.00    +0.062 HD
ATOM     66  H   THR A   4     133.131 157.038 191.956  0.00  0.00    +0.150 HD
ATOM     67  HA  ALA A   3     135.253 156.619 192.216  0.00  0.00    +0.059 HD
ATOM     68  H   ALA A   3     136.447 154.202 193.367  0.00  0.00    +0.149 HD
ATOM     69  H   UNK A   2     137.371 155.159 195.718  0.00  0.00    +0.060 HD
ATOM     70  H   UNK A   2     135.138 156.343 196.937  0.00  0.00    +0.150 HD
ENDROOT
BRANCH   1  71
ATOM     71  CB  ALA A   7     134.549 160.202 200.293  0.00  0.00    -0.038 C 
ATOM     72  HB1 ALA A   7     135.580 160.514 200.484  0.00  0.00    +0.025 HD
ATOM     73  HB2 ALA A   7     133.888 161.045 200.521  0.00  0.00    +0.025 HD
ATOM     74  HB3 ALA A   7     134.303 159.406 201.004  0.00  0.00    +0.025 HD
ENDBRANCH   1  71
BRANCH  36  75
ATOM     75  CB  ALA A   3     135.930 155.023 190.949  0.00  0.00    -0.038 C 
ATOM     76  HB1 ALA A   3     135.225 154.676 190.184  0.00  0.00    +0.025 HD
ATOM     77  HB2 ALA A   3     136.592 154.185 191.191  0.00  0.00    +0.025 HD
ATOM     78  HB3 ALA A   3     136.535 155.821 190.505  0.00  0.00    +0.025 HD
ENDBRANCH  36  75
BRANCH  40  79
ATOM     79  C   UNK A   2     136.014 153.430 195.929  0.00  0.00    +0.005 C 
ATOM     80  H   UNK A   2     135.007 153.237 195.532  0.00  0.00    +0.032 HD
ATOM     81  H   UNK A   2     135.985 153.099 196.971  0.00  0.00    +0.032 HD
BRANCH  79  82
ATOM     82  C   UNK A   2     137.027 152.544 195.185  0.00  0.00    +0.088 C 
BRANCH  82  83
ATOM     83  C   UNK A   2     137.125 151.176 195.877  0.00  0.00    -0.034 C 
ATOM     84  H   UNK A   2     138.169 150.890 196.048  0.00  0.00    +0.026 HD
ATOM     85  H   UNK A   2     136.697 150.390 195.245  0.00  0.00    +0.026 HD
ATOM     86  H   UNK A   2     136.600 151.177 196.838  0.00  0.00    +0.026 HD
ENDBRANCH  82  83
BRANCH  82  87
ATOM     87  C   UNK A   2     138.420 153.205 195.097  0.00  0.00    +0.073 C 
ATOM     88  H   UNK A   2     139.215 152.523 195.411  0.00  0.00    +0.059 HD
ATOM     89  H   UNK A   2     138.463 154.118 195.697  0.00  0.00    +0.059 HD
BRANCH  87  90
ATOM     90  O   UNK A   2     138.649 153.607 193.739  0.00  0.00    -0.392 OA
ATOM     91  H   UNK A   2     138.359 152.857 193.187  0.00  0.00    +0.210 HD
ENDBRANCH  87  90
ENDBRANCH  82  87
BRANCH  82  92
ATOM     92  O   UNK A   2     136.561 152.307 193.843  0.00  0.00    -0.387 OA
ATOM     93  H   UNK A   2     135.976 153.075 193.661  0.00  0.00    +0.210 HD
ENDBRANCH  82  92
ENDBRANCH  79  82
ENDBRANCH  40  79
BRANCH  23  94
ATOM     94  OD  HYP A   6     129.559 157.645 200.568  0.00  0.00    -0.390 OA
ATOM     95  HD  HYP A   6     130.483 157.980 200.592  0.00  0.00    +0.210 HD
ENDBRANCH  23  94
BRANCH  32  96
ATOM     96  CB  THR A   4     130.649 157.051 191.419  0.00  0.00    +0.079 C 
ATOM     97  HB  THR A   4     129.787 156.699 190.839  0.00  0.00    +0.061 HD
BRANCH  96  98
ATOM     98  CG2 THR A   4     131.583 157.817 190.489  0.00  0.00    -0.037 C 
ATOM     99 HG21 THR A   4     132.282 158.431 191.067  0.00  0.00    +0.026 HD
ATOM    100 HG22 THR A   4     131.018 158.473 189.818  0.00  0.00    +0.026 HD
ATOM    101 HG23 THR A   4     132.191 157.131 189.890  0.00  0.00    +0.026 HD
ENDBRANCH  96  98
BRANCH  96 102
ATOM    102  OG1 THR A   4     130.131 157.970 192.405  0.00  0.00    -0.390 OA
ATOM    103  HG1 THR A   4     130.399 157.631 193.277  0.00  0.00    +0.210 HD
ENDBRANCH  96 102
ENDBRANCH  32  96
TORSDOF 12
ENDMDL
MODEL 2
REMARK VINA RESULT:      -5.7     15.418     19.906
REMARK  Name = Phalloidin_conf2
REMARK  12 active torsions:
REMARK  status: ('A' for Active; 'I' for Inactive)
REMARK    1  A    between atoms: CB_1  and  CA_2
REMARK    2  A    between atoms: CG_24  and  OD_30
REMARK    3  A    between atoms: CA_34  and  CB_53
REMARK    4  A    between atoms: CA_38  and  CB_52
REMARK    5  A    between atoms: C_42  and  C_46
REMARK    6  A    between atoms: C_46  and  C_47
REMARK    7  A    between atoms: C_47  and  C_48
REMARK    8  A    between atoms: C_47  and  C_49
REMARK    9  A    between atoms: C_47  and  O_51
REMARK   10  A    between atoms: C_49  and  O_50
REMARK   11  A    between atoms: CB_53  and  CG2_54
REMARK   12  A    between atoms: CB_53  and  OG1_55
REMARK                            x       y       z     vdW  Elec       q    Type
REMARK                         _______ _______ _______ _____ _____    ______ ____
ROOT
ATOM      1  CA  ALA A   7     132.256 168.020 207.908  0.00  0.00    +0.097 C 
ATOM      2  C   ALA A   7     131.861 168.010 209.397  0.00  0.00    +0.234 C 
ATOM      3  O   ALA A   7     131.223 167.059 209.854  0.00  0.00    -0.274 OA
ATOM      4  N   UNK A   1     132.238 169.047 210.210  0.00  0.00    -0.302 N 
ATOM      5  C   UNK A   1     131.595 169.284 211.522  0.00  0.00    +0.103 C 
ATOM      6  C   UNK A   1     130.096 169.636 211.344  0.00  0.00    +0.002 C 
ATOM      7  C   UNK A   1     129.193 169.488 212.534  0.00  0.00    -0.006 A 
ATOM      8  C   UNK A   5     127.996 168.796 212.586  0.00  0.00    +0.078 A 
ATOM      9  N   UNK A   5     127.461 168.928 213.833  0.00  0.00    -0.349 N 
ATOM     10  C   UNK A   5     128.271 169.709 214.619  0.00  0.00    +0.048 A 
ATOM     11  C   UNK A   5     128.114 170.108 215.952  0.00  0.00    -0.038 A 
ATOM     12  C   UNK A   5     129.095 170.937 216.500  0.00  0.00    -0.060 A 
ATOM     13  C   UNK A   5     130.182 171.356 215.740  0.00  0.00    -0.061 A 
ATOM     14  C   UNK A   5     130.323 170.944 214.408  0.00  0.00    -0.052 A 
ATOM     15  C   UNK A   5     129.355 170.097 213.829  0.00  0.00    +0.004 A 
ATOM     16  S   UNK A   5     127.057 167.919 211.420  0.00  0.00    -0.105 S 
ATOM     17  C   UNK A   5     128.143 166.500 211.066  0.00  0.00    +0.027 C 
ATOM     18  C   UNK A   5     127.661 165.580 209.935  0.00  0.00    +0.109 C 
ATOM     19  C   UNK A   5     128.439 165.827 208.614  0.00  0.00    +0.237 C 
ATOM     20  O   UNK A   5     129.461 165.190 208.330  0.00  0.00    -0.274 OA
ATOM     21  N   HYP A   6     127.995 166.801 207.742  0.00  0.00    -0.286 N 
ATOM     22  CD  HYP A   6     126.707 167.482 207.756  0.00  0.00    +0.042 C 
ATOM     23  CG  HYP A   6     126.737 168.440 206.561  0.00  0.00    +0.073 C 
ATOM     24  CB  HYP A   6     127.771 167.834 205.618  0.00  0.00    +0.002 C 
ATOM     25  CA  HYP A   6     128.769 167.138 206.546  0.00  0.00    +0.105 C 
ATOM     26  C   HYP A   6     129.927 168.067 206.973  0.00  0.00    +0.234 C 
ATOM     27  O   HYP A   6     129.759 169.262 207.207  0.00  0.00    -0.274 OA
ATOM     28  N   ALA A   7     131.115 167.409 207.213  0.00  0.00    -0.303 N 
ATOM     29  N   UNK A   5     127.942 164.190 210.316  0.00  0.00    -0.302 N 
ATOM     30  C   THR A   4     126.993 163.202 210.376  0.00  0.00    +0.237 C 
ATOM     31  O   THR A   4     125.823 163.389 210.046  0.00  0.00    -0.274 OA
ATOM     32  CA  THR A   4     127.512 161.803 210.775  0.00  0.00    +0.125 C 
ATOM     33  N   THR A   4     128.867 161.834 211.328  0.00  0.00    -0.300 N 
ATOM     34  C   ALA A   3     129.143 162.136 212.640  0.00  0.00    +0.234 C 
ATOM     35  O   ALA A   3     128.268 162.408 213.461  0.00  0.00    -0.274 OA
ATOM     36  CA  ALA A   3     130.650 162.157 212.976  0.00  0.00    +0.097 C 
ATOM     37  N   ALA A   3     130.995 163.463 213.512  0.00  0.00    -0.303 N 
ATOM     38  C   UNK A   2     131.043 164.572 212.705  0.00  0.00    +0.234 C 
ATOM     39  O   UNK A   2     130.796 164.501 211.501  0.00  0.00    -0.274 OA
ATOM     40  C   UNK A   2     131.416 165.900 213.415  0.00  0.00    +0.102 C 
ATOM     41  N   UNK A   2     131.416 166.960 212.412  0.00  0.00    -0.302 N 
ATOM     42  C   UNK A   1     131.898 168.224 212.621  0.00  0.00    +0.234 C 
ATOM     43  O   UNK A   1     132.482 168.530 213.662  0.00  0.00    -0.274 OA
ATOM     44  HA  ALA A   7     133.083 167.308 207.801  0.00  0.00    +0.059 HD
ATOM     45  H   UNK A   1     132.790 169.804 209.828  0.00  0.00    +0.150 HD
ATOM     46  H   UNK A   1     132.092 170.193 211.884  0.00  0.00    +0.060 HD
ATOM     47  H   UNK A   1     129.676 169.069 210.507  0.00  0.00    +0.034 HD
ATOM     48  H   UNK A   1     130.036 170.682 211.009  0.00  0.00    +0.034 HD
ATOM     49  H   UNK A   5     126.582 168.525 214.122  0.00  0.00    +0.166 HD
ATOM     50  H   UNK A   5     127.257 169.794 216.539  0.00  0.00    +0.064 HD
ATOM     51  H   UNK A   5     129.000 171.270 217.532  0.00  0.00    +0.062 HD
ATOM     52  H   UNK A   5     130.933 172.006 216.181  0.00  0.00    +0.062 HD
ATOM     53  H   UNK A   5     131.181 171.281 213.835  0.00  0.00    +0.062 HD
ATOM     54  H   UNK A   5     129.130 166.885 210.835  0.00  0.00    +0.040 HD
ATOM     55  H   UNK A   5     128.219 165.939 212.006  0.00  0.00    +0.040 HD
ATOM     56  H   UNK A   5     126.587 165.678 209.757  0.00  0.00    +0.060 HD
ATOM     57  HD1 HYP A   6     126.559 168.007 208.696  0.00  0.00    +0.049 HD
ATOM     58  HD2 HYP A   6     125.933 166.717 207.634  0.00  0.00    +0.049 HD
ATOM     59  HG  HYP A   6     125.752 168.519 206.091  0.00  0.00    +0.061 HD
ATOM     60  HB1 HYP A   6     128.244 168.575 204.966  0.00  0.00    +0.031 HD
ATOM     61  HB2 HYP A   6     127.282 167.078 204.991  0.00  0.00    +0.031 HD
ATOM     62  HA  HYP A   6     129.177 166.236 206.078  0.00  0.00    +0.060 HD
ATOM     63  H   ALA A   7     131.027 166.399 207.331  0.00  0.00    +0.149 HD
ATOM     64  H   UNK A   5     128.918 163.950 210.494  0.00  0.00    +0.150 HD
ATOM     65  HA  THR A   4     126.834 161.444 211.558  0.00  0.00    +0.062 HD
ATOM     66  H   THR A   4     129.604 161.565 210.686  0.00  0.00    +0.150 HD
ATOM     67  HA  ALA A   3     131.235 162.006 212.062  0.00  0.00    +0.059 HD
ATOM     68  H   ALA A   3     131.087 163.592 214.523  0.00  0.00    +0.149 HD
ATOM     69  H   UNK A   2     132.443 165.808 213.784  0.00  0.00    +0.060 HD
ATOM     70  H   UNK A   2     131.151 166.697 211.458  0.00  0.00    +0.150 HD
ENDROOT
BRANCH   1  71
ATOM     71  CB  ALA A   7     132.695 169.357 207.329  0.00  0.00    -0.038 C 
ATOM     72  HB1 ALA A   7     133.707 169.293 206.919  0.00  0.00    +0.025 HD
ATOM     73  HB2 ALA A   7     132.027 169.711 206.538  0.00  0.00    +0.025 HD
ATOM     74  HB3 ALA A   7     132.697 170.126 208.109  0.00  0.00    +0.025 HD
ENDBRANCH   1  71
BRANCH  36  75
ATOM     75  CB  ALA A   3     130.974 161.049 213.966  0.00  0.00    -0.038 C 
ATOM     76  HB1 ALA A   3     131.809 160.425 213.625  0.00  0.00    +0.025 HD
ATOM     77  HB2 ALA A   3     130.109 160.392 214.111  0.00  0.00    +0.025 HD
ATOM     78  HB3 ALA A   3     131.251 161.470 214.939  0.00  0.00    +0.025 HD
ENDBRANCH  36  75
BRANCH  40  79
ATOM     79  C   UNK A   2     130.408 166.216 214.537  0.00  0.00    +0.005 C 
ATOM     80  H   UNK A   2     129.642 165.427 214.559  0.00  0.00    +0.032 HD
ATOM     81  H   UNK A   2     129.866 167.143 214.329  0.00  0.00    +0.032 HD
BRANCH  79  82
ATOM     82  C   UNK A   2     131.036 166.346 215.935  0.00  0.00    +0.088 C 
BRANCH  82  83
ATOM     83  C   UNK A   2     132.511 165.919 215.883  0.00  0.00    -0.034 C 
ATOM     84  H   UNK A   2     132.716 165.104 216.586  0.00  0.00    +0.026 HD
ATOM     85  H   UNK A   2     133.165 166.746 216.183  0.00  0.00    +0.026 HD
ATOM     86  H   UNK A   2     132.796 165.595 214.877  0.00  0.00    +0.026 HD
ENDBRANCH  82  83
BRANCH  82  87
ATOM     87  C   UNK A   2     130.272 165.517 216.991  0.00  0.00    +0.073 C 
ATOM     88  H   UNK A   2     129.334 165.997 217.285  0.00  0.00    +0.059 HD
ATOM     89  H   UNK A   2     130.887 165.343 217.878  0.00  0.00    +0.059 HD
BRANCH  87  90
ATOM     90  O   UNK A   2     129.990 164.224 216.439  0.00  0.00    -0.392 OA
ATOM     91  H   UNK A   2     129.103 164.294 216.037  0.00  0.00    +0.210 HD
ENDBRANCH  87  90
ENDBRANCH  82  87
BRANCH  82  92
ATOM     92  O   UNK A   2     131.009 167.725 216.347  0.00  0.00    -0.387 OA
ATOM     93  H   UNK A   2     130.686 168.200 215.549  0.00  0.00    +0.210 HD
ENDBRANCH  82  92
ENDBRANCH  79  82
ENDBRANCH  40  79
BRANCH  23  94
ATOM     94  OD  HYP A   6     127.108 169.759 206.953  0.00  0.00    -0.390 OA
ATOM     95  HD  HYP A   6     127.629 169.711 207.786  0.00  0.00    +0.210 HD
ENDBRANCH  23  94
BRANCH  32  96
ATOM     96  CB  THR A   4     127.451 160.896 209.519  0.00  0.00    +0.079 C 
ATOM     97  HB  THR A   4     126.658 160.143 209.612  0.00  0.00    +0.061 HD
BRANCH  96  98
ATOM     98  CG2 THR A   4     128.777 160.181 209.286  0.00  0.00    -0.037 C 
ATOM     99 HG21 THR A   4     129.316 160.637 208.447  0.00  0.00    +0.026 HD
ATOM    100 HG22 THR A   4     128.618 159.122 209.062  0.00  0.00    +0.026 HD
ATOM    101 HG23 THR A   4     129.429 160.268 210.161  0.00  0.00    +0.026 HD
ENDBRANCH  96  98
BRANCH  96 102
ATOM    102  OG1 THR A   4     127.140 161.676 208.345  0.00  0.00    -0.390 OA
ATOM    103  HG1 THR A   4     127.417 162.591 208.530  0.00  0.00    +0.210 HD
ENDBRANCH  96 102
ENDBRANCH  32  96
TORSDOF 12
ENDMDL
MODEL 3
REMARK VINA RESULT:      -5.7     18.457     22.848
REMARK  Name = Phalloidin_conf2
REMARK  12 active torsions:
REMARK  status: ('A' for Active; 'I' for Inactive)
REMARK    1  A    between atoms: CB_1  and  CA_2
REMARK    2  A    between atoms: CG_24  and  OD_30
REMARK    3  A    between atoms: CA_34  and  CB_53
REMARK    4  A    between atoms: CA_38  and  CB_52
REMARK    5  A    between atoms: C_42  and  C_46
REMARK    6  A    between atoms: C_46  and  C_47
REMARK    7  A    between atoms: C_47  and  C_48
REMARK    8  A    between atoms: C_47  and  C_49
REMARK    9  A    between atoms: C_47  and  O_51
REMARK   10  A    between atoms: C_49  and  O_50
REMARK   11  A    between atoms: CB_53  and  CG2_54
REMARK   12  A    between atoms: CB_53  and  OG1_55
REMARK                            x       y       z     vdW  Elec       q    Type
REMARK                         _______ _______ _______ _____ _____    ______ ____
ROOT
ATOM      1  CA  ALA A   7     151.689 165.842 190.479  0.00  0.00    +0.097 C 
ATOM      2  C   ALA A   7     151.037 165.205 189.237  0.00  0.00    +0.234 C 
ATOM      3  O   ALA A   7     151.346 164.059 188.904  0.00  0.00    -0.274 OA
ATOM      4  N   UNK A   1     150.101 165.907 188.521  0.00  0.00    -0.302 N 
ATOM      5  C   UNK A   1     149.721 165.519 187.145  0.00  0.00    +0.103 C 
ATOM      6  C   UNK A   1     150.927 165.653 186.182  0.00  0.00    +0.002 C 
ATOM      7  C   UNK A   1     150.869 164.917 184.874  0.00  0.00    -0.006 A 
ATOM      8  C   UNK A   5     151.830 164.065 184.358  0.00  0.00    +0.078 A 
ATOM      9  N   UNK A   5     151.421 163.624 183.135  0.00  0.00    -0.349 N 
ATOM     10  C   UNK A   5     150.207 164.176 182.811  0.00  0.00    +0.048 A 
ATOM     11  C   UNK A   5     149.424 164.010 181.662  0.00  0.00    -0.038 A 
ATOM     12  C   UNK A   5     148.225 164.725 181.586  0.00  0.00    -0.060 A 
ATOM     13  C   UNK A   5     147.836 165.576 182.614  0.00  0.00    -0.061 A 
ATOM     14  C   UNK A   5     148.632 165.728 183.757  0.00  0.00    -0.052 A 
ATOM     15  C   UNK A   5     149.842 165.011 183.870  0.00  0.00    +0.004 A 
ATOM     16  S   UNK A   5     153.397 163.547 184.894  0.00  0.00    -0.105 S 
ATOM     17  C   UNK A   5     152.976 162.572 186.374  0.00  0.00    +0.027 C 
ATOM     18  C   UNK A   5     154.179 162.079 187.191  0.00  0.00    +0.109 C 
ATOM     19  C   UNK A   5     154.404 162.934 188.467  0.00  0.00    +0.237 C 
ATOM     20  O   UNK A   5     153.889 162.634 189.551  0.00  0.00    -0.274 OA
ATOM     21  N   HYP A   6     155.177 164.075 188.387  0.00  0.00    -0.286 N 
ATOM     22  CD  HYP A   6     156.061 164.472 187.299  0.00  0.00    +0.042 C 
ATOM     23  CG  HYP A   6     156.684 165.800 187.740  0.00  0.00    +0.073 C 
ATOM     24  CB  HYP A   6     156.578 165.778 189.262  0.00  0.00    +0.002 C 
ATOM     25  CA  HYP A   6     155.314 164.963 189.543  0.00  0.00    +0.105 C 
ATOM     26  C   HYP A   6     154.047 165.843 189.620  0.00  0.00    +0.234 C 
ATOM     27  O   HYP A   6     153.877 166.815 188.886  0.00  0.00    -0.274 OA
ATOM     28  N   ALA A   7     153.074 165.355 190.467  0.00  0.00    -0.303 N 
ATOM     29  N   UNK A   5     153.895 160.717 187.660  0.00  0.00    -0.302 N 
ATOM     30  C   THR A   4     154.699 159.634 187.412  0.00  0.00    +0.237 C 
ATOM     31  O   THR A   4     155.774 159.732 186.822  0.00  0.00    -0.274 OA
ATOM     32  CA  THR A   4     154.224 158.298 188.023  0.00  0.00    +0.125 C 
ATOM     33  N   THR A   4     152.838 158.347 188.494  0.00  0.00    -0.300 N 
ATOM     34  C   ALA A   3     151.752 158.174 187.669  0.00  0.00    +0.234 C 
ATOM     35  O   ALA A   3     151.857 157.964 186.462  0.00  0.00    -0.274 OA
ATOM     36  CA  ALA A   3     150.391 158.321 188.385  0.00  0.00    +0.097 C 
ATOM     37  N   ALA A   3     149.625 159.367 187.728  0.00  0.00    -0.303 N 
ATOM     38  C   UNK A   2     149.967 160.689 187.862  0.00  0.00    +0.234 C 
ATOM     39  O   UNK A   2     150.934 161.036 188.541  0.00  0.00    -0.274 OA
ATOM     40  C   UNK A   2     149.065 161.693 187.098  0.00  0.00    +0.102 C 
ATOM     41  N   UNK A   2     149.575 163.037 187.352  0.00  0.00    -0.302 N 
ATOM     42  C   UNK A   1     148.919 164.190 187.017  0.00  0.00    +0.234 C 
ATOM     43  O   UNK A   1     147.772 164.175 186.567  0.00  0.00    -0.274 OA
ATOM     44  HA  ALA A   7     151.219 165.374 191.352  0.00  0.00    +0.059 HD
ATOM     45  H   UNK A   1     149.833 166.833 188.826  0.00  0.00    +0.150 HD
ATOM     46  H   UNK A   1     148.999 166.294 186.857  0.00  0.00    +0.060 HD
ATOM     47  H   UNK A   1     151.851 165.382 186.701  0.00  0.00    +0.034 HD
ATOM     48  H   UNK A   1     151.058 166.721 185.955  0.00  0.00    +0.034 HD
ATOM     49  H   UNK A   5     151.952 162.999 182.547  0.00  0.00    +0.166 HD
ATOM     50  H   UNK A   5     149.737 163.358 180.853  0.00  0.00    +0.064 HD
ATOM     51  H   UNK A   5     147.596 164.622 180.704  0.00  0.00    +0.062 HD
ATOM     52  H   UNK A   5     146.903 166.129 182.535  0.00  0.00    +0.062 HD
ATOM     53  H   UNK A   5     148.306 166.395 184.548  0.00  0.00    +0.062 HD
ATOM     54  H   UNK A   5     152.327 163.176 186.998  0.00  0.00    +0.040 HD
ATOM     55  H   UNK A   5     152.387 161.720 186.014  0.00  0.00    +0.040 HD
ATOM     56  H   UNK A   5     155.096 162.054 186.595  0.00  0.00    +0.060 HD
ATOM     57  HD1 HYP A   6     155.506 164.570 186.369  0.00  0.00    +0.049 HD
ATOM     58  HD2 HYP A   6     156.821 163.690 187.195  0.00  0.00    +0.049 HD
ATOM     59  HG  HYP A   6     157.722 165.882 187.404  0.00  0.00    +0.061 HD
ATOM     60  HB1 HYP A   6     156.545 166.779 189.705  0.00  0.00    +0.031 HD
ATOM     61  HB2 HYP A   6     157.444 165.243 189.672  0.00  0.00    +0.031 HD
ATOM     62  HA  HYP A   6     155.416 164.387 190.469  0.00  0.00    +0.060 HD
ATOM     63  H   ALA A   7     153.191 164.376 190.731  0.00  0.00    +0.149 HD
ATOM     64  H   UNK A   5     153.070 160.596 188.250  0.00  0.00    +0.150 HD
ATOM     65  HA  THR A   4     154.281 157.560 187.214  0.00  0.00    +0.062 HD
ATOM     66  H   THR A   4     152.724 158.468 189.494  0.00  0.00    +0.150 HD
ATOM     67  HA  ALA A   3     150.552 158.627 189.425  0.00  0.00    +0.059 HD
ATOM     68  H   ALA A   3     148.892 159.118 187.059  0.00  0.00    +0.149 HD
ATOM     69  H   UNK A   2     148.062 161.644 187.534  0.00  0.00    +0.060 HD
ATOM     70  H   UNK A   2     150.419 163.112 187.928  0.00  0.00    +0.150 HD
ENDROOT
BRANCH   1  71
ATOM     71  CB  ALA A   7     151.560 167.352 190.616  0.00  0.00    -0.038 C 
ATOM     72  HB1 ALA A   7     152.345 167.755 191.262  0.00  0.00    +0.025 HD
ATOM     73  HB2 ALA A   7     151.613 167.867 189.651  0.00  0.00    +0.025 HD
ATOM     74  HB3 ALA A   7     150.594 167.612 191.061  0.00  0.00    +0.025 HD
ENDBRANCH   1  71
BRANCH  36  75
ATOM     75  CB  ALA A   3     149.650 156.993 188.363  0.00  0.00    -0.038 C 
ATOM     76  HB1 ALA A   3     148.574 157.126 188.194  0.00  0.00    +0.025 HD
ATOM     77  HB2 ALA A   3     149.770 156.464 189.315  0.00  0.00    +0.025 HD
ATOM     78  HB3 ALA A   3     150.034 156.351 187.563  0.00  0.00    +0.025 HD
ENDBRANCH  36  75
BRANCH  40  79
ATOM     79  C   UNK A   2     149.072 161.387 185.588  0.00  0.00    +0.005 C 
ATOM     80  H   UNK A   2     149.814 160.601 185.388  0.00  0.00    +0.032 HD
ATOM     81  H   UNK A   2     149.406 162.256 185.013  0.00  0.00    +0.032 HD
BRANCH  79  82
ATOM     82  C   UNK A   2     147.710 160.948 185.024  0.00  0.00    +0.088 C 
BRANCH  82  83
ATOM     83  C   UNK A   2     147.291 161.893 183.888  0.00  0.00    -0.034 C 
ATOM     84  H   UNK A   2     148.163 162.324 183.385  0.00  0.00    +0.026 HD
ATOM     85  H   UNK A   2     146.720 162.743 184.281  0.00  0.00    +0.026 HD
ATOM     86  H   UNK A   2     146.677 161.375 183.144  0.00  0.00    +0.026 HD
ENDBRANCH  82  83
BRANCH  82  87
ATOM     87  C   UNK A   2     146.620 160.901 186.116  0.00  0.00    +0.073 C 
ATOM     88  H   UNK A   2     147.051 160.899 187.122  0.00  0.00    +0.059 HD
ATOM     89  H   UNK A   2     145.974 160.028 185.994  0.00  0.00    +0.059 HD
BRANCH  87  90
ATOM     90  O   UNK A   2     145.774 162.049 185.967  0.00  0.00    -0.392 OA
ATOM     91  H   UNK A   2     145.239 161.884 185.167  0.00  0.00    +0.210 HD
ENDBRANCH  87  90
ENDBRANCH  82  87
BRANCH  82  92
ATOM     92  O   UNK A   2     147.829 159.630 184.456  0.00  0.00    -0.387 OA
ATOM     93  H   UNK A   2     146.916 159.423 184.157  0.00  0.00    +0.210 HD
ENDBRANCH  82  92
ENDBRANCH  79  82
ENDBRANCH  40  79
BRANCH  23  94
ATOM     94  OD  HYP A   6     155.987 166.915 187.192  0.00  0.00    -0.390 OA
ATOM     95  HD  HYP A   6     155.045 166.671 187.060  0.00  0.00    +0.210 HD
ENDBRANCH  23  94
BRANCH  32  96
ATOM     96  CB  THR A   4     155.187 157.935 189.183  0.00  0.00    +0.079 C 
ATOM     97  HB  THR A   4     156.186 158.357 189.015  0.00  0.00    +0.061 HD
BRANCH  96  98
ATOM     98  CG2 THR A   4     155.316 156.425 189.345  0.00  0.00    -0.037 C 
ATOM     99 HG21 THR A   4     156.031 156.021 188.620  0.00  0.00    +0.026 HD
ATOM    100 HG22 THR A   4     154.352 155.930 189.195  0.00  0.00    +0.026 HD
ATOM    101 HG23 THR A   4     155.699 156.168 190.338  0.00  0.00    +0.026 HD
ENDBRANCH  96  98
BRANCH  96 102
ATOM    102  OG1 THR A   4     154.712 158.490 190.428  0.00  0.00    -0.390 OA
ATOM    103  HG1 THR A   4     154.975 159.427 190.439  0.00  0.00    +0.210 HD
ENDBRANCH  96 102
ENDBRANCH  32  96
TORSDOF 12
ENDMDL
MODEL 4
REMARK VINA RESULT:      -5.6     17.608     20.554
REMARK  Name = Phalloidin_conf2
REMARK  12 active torsions:
REMARK  status: ('A' for Active; 'I' for Inactive)
REMARK    1  A    between atoms: CB_1  and  CA_2
REMARK    2  A    between atoms: CG_24  and  OD_30
REMARK    3  A    between atoms: CA_34  and  CB_53
REMARK    4  A    between atoms: CA_38  and  CB_52
REMARK    5  A    between atoms: C_42  and  C_46
REMARK    6  A    between atoms: C_46  and  C_47
REMARK    7  A    between atoms: C_47  and  C_48
REMARK    8  A    between atoms: C_47  and  C_49
REMARK    9  A    between atoms: C_47  and  O_51
REMARK   10  A    between atoms: C_49  and  O_50
REMARK   11  A    between atoms: CB_53  and  CG2_54
REMARK   12  A    between atoms: CB_53  and  OG1_55
REMARK                            x       y       z     vdW  Elec       q    Type
REMARK                         _______ _______ _______ _____ _____    ______ ____
ROOT
ATOM      1  CA  ALA A   7     143.073 164.429 188.723  0.00  0.00    +0.097 C 
ATOM      2  C   ALA A   7     144.161 165.407 189.207  0.00  0.00    +0.234 C 
ATOM      3  O   ALA A   7     144.465 166.378 188.510  0.00  0.00    -0.274 OA
ATOM      4  N   UNK A   1     144.770 165.204 190.418  0.00  0.00    -0.302 N 
ATOM      5  C   UNK A   1     146.047 165.865 190.769  0.00  0.00    +0.103 C 
ATOM      6  C   UNK A   1     147.187 165.392 189.832  0.00  0.00    +0.002 C 
ATOM      7  C   UNK A   1     148.423 166.240 189.743  0.00  0.00    -0.006 A 
ATOM      8  C   UNK A   5     149.023 166.714 188.590  0.00  0.00    +0.078 A 
ATOM      9  N   UNK A   5     150.141 167.416 188.928  0.00  0.00    -0.349 N 
ATOM     10  C   UNK A   5     150.313 167.412 190.289  0.00  0.00    +0.048 A 
ATOM     11  C   UNK A   5     151.319 167.997 191.068  0.00  0.00    -0.038 A 
ATOM     12  C   UNK A   5     151.258 167.809 192.452  0.00  0.00    -0.060 A 
ATOM     13  C   UNK A   5     150.238 167.059 193.026  0.00  0.00    -0.061 A 
ATOM     14  C   UNK A   5     149.239 166.483 192.230  0.00  0.00    -0.052 A 
ATOM     15  C   UNK A   5     149.266 166.664 190.831  0.00  0.00    +0.004 A 
ATOM     16  S   UNK A   5     148.697 166.527 186.895  0.00  0.00    -0.105 S 
ATOM     17  C   UNK A   5     147.114 167.410 186.726  0.00  0.00    +0.027 C 
ATOM     18  C   UNK A   5     146.458 167.307 185.341  0.00  0.00    +0.109 C 
ATOM     19  C   UNK A   5     145.285 166.288 185.328  0.00  0.00    +0.237 C 
ATOM     20  O   UNK A   5     144.119 166.635 185.555  0.00  0.00    -0.274 OA
ATOM     21  N   HYP A   6     145.551 164.957 185.083  0.00  0.00    -0.286 N 
ATOM     22  CD  HYP A   6     146.782 164.380 184.558  0.00  0.00    +0.042 C 
ATOM     23  CG  HYP A   6     146.523 162.874 184.465  0.00  0.00    +0.073 C 
ATOM     24  CB  HYP A   6     145.004 162.758 184.379  0.00  0.00    +0.002 C 
ATOM     25  CA  HYP A   6     144.486 163.956 185.177  0.00  0.00    +0.105 C 
ATOM     26  C   HYP A   6     144.275 163.625 186.671  0.00  0.00    +0.234 C 
ATOM     27  O   HYP A   6     145.034 162.884 187.294  0.00  0.00    -0.274 OA
ATOM     28  N   ALA A   7     143.263 164.347 187.269  0.00  0.00    -0.303 N 
ATOM     29  N   UNK A   5     145.868 168.609 185.008  0.00  0.00    -0.302 N 
ATOM     30  C   THR A   4     146.165 169.323 183.877  0.00  0.00    +0.237 C 
ATOM     31  O   THR A   4     146.915 168.891 183.002  0.00  0.00    -0.274 OA
ATOM     32  CA  THR A   4     145.408 170.659 183.712  0.00  0.00    +0.125 C 
ATOM     33  N   THR A   4     144.739 171.090 184.941  0.00  0.00    -0.300 N 
ATOM     34  C   ALA A   3     145.378 171.759 185.957  0.00  0.00    +0.234 C 
ATOM     35  O   ALA A   3     146.572 172.052 185.916  0.00  0.00    -0.274 OA
ATOM     36  CA  ALA A   3     144.477 172.062 187.174  0.00  0.00    +0.097 C 
ATOM     37  N   ALA A   3     145.075 171.473 188.360  0.00  0.00    -0.303 N 
ATOM     38  C   UNK A   2     145.077 170.114 188.555  0.00  0.00    +0.234 C 
ATOM     39  O   UNK A   2     144.574 169.348 187.733  0.00  0.00    -0.274 OA
ATOM     40  C   UNK A   2     145.757 169.628 189.861  0.00  0.00    +0.102 C 
ATOM     41  N   UNK A   2     145.667 168.171 189.898  0.00  0.00    -0.302 N 
ATOM     42  C   UNK A   1     145.970 167.404 190.990  0.00  0.00    +0.234 C 
ATOM     43  O   UNK A   1     146.241 167.909 192.081  0.00  0.00    -0.274 OA
ATOM     44  HA  ALA A   7     142.112 164.936 188.867  0.00  0.00    +0.059 HD
ATOM     45  H   UNK A   1     144.486 164.422 190.994  0.00  0.00    +0.150 HD
ATOM     46  H   UNK A   1     146.271 165.463 191.766  0.00  0.00    +0.060 HD
ATOM     47  H   UNK A   1     146.797 165.227 188.823  0.00  0.00    +0.034 HD
ATOM     48  H   UNK A   1     147.496 164.389 190.161  0.00  0.00    +0.034 HD
ATOM     49  H   UNK A   5     150.762 167.853 188.263  0.00  0.00    +0.166 HD
ATOM     50  H   UNK A   5     152.123 168.568 190.618  0.00  0.00    +0.064 HD
ATOM     51  H   UNK A   5     152.027 168.246 193.085  0.00  0.00    +0.062 HD
ATOM     52  H   UNK A   5     150.210 166.918 194.104  0.00  0.00    +0.062 HD
ATOM     53  H   UNK A   5     148.451 165.904 192.701  0.00  0.00    +0.062 HD
ATOM     54  H   UNK A   5     146.438 167.032 187.485  0.00  0.00    +0.040 HD
ATOM     55  H   UNK A   5     147.328 168.458 186.967  0.00  0.00    +0.040 HD
ATOM     56  H   UNK A   5     147.182 167.048 184.563  0.00  0.00    +0.060 HD
ATOM     57  HD1 HYP A   6     147.622 164.610 185.209  0.00  0.00    +0.049 HD
ATOM     58  HD2 HYP A   6     146.950 164.819 183.569  0.00  0.00    +0.049 HD
ATOM     59  HG  HYP A   6     147.015 162.440 183.589  0.00  0.00    +0.061 HD
ATOM     60  HB1 HYP A   6     144.624 161.802 184.754  0.00  0.00    +0.031 HD
ATOM     61  HB2 HYP A   6     144.696 162.869 183.332  0.00  0.00    +0.031 HD
ATOM     62  HA  HYP A   6     143.552 164.337 184.751  0.00  0.00    +0.060 HD
ATOM     63  H   ALA A   7     142.959 165.169 186.746  0.00  0.00    +0.149 HD
ATOM     64  H   UNK A   5     145.154 168.967 185.645  0.00  0.00    +0.150 HD
ATOM     65  HA  THR A   4     146.170 171.407 183.461  0.00  0.00    +0.062 HD
ATOM     66  H   THR A   4     143.742 170.906 184.979  0.00  0.00    +0.150 HD
ATOM     67  HA  ALA A   3     143.494 171.600 187.030  0.00  0.00    +0.059 HD
ATOM     68  H   ALA A   3     145.610 172.059 189.006  0.00  0.00    +0.149 HD
ATOM     69  H   UNK A   2     145.173 170.006 190.707  0.00  0.00    +0.060 HD
ATOM     70  H   UNK A   2     145.230 167.713 189.092  0.00  0.00    +0.150 HD
ENDROOT
BRANCH   1  71
ATOM     71  CB  ALA A   7     143.012 163.078 189.421  0.00  0.00    -0.038 C 
ATOM     72  HB1 ALA A   7     143.343 163.159 190.460  0.00  0.00    +0.025 HD
ATOM     73  HB2 ALA A   7     142.006 162.646 189.414  0.00  0.00    +0.025 HD
ATOM     74  HB3 ALA A   7     143.668 162.360 188.916  0.00  0.00    +0.025 HD
ENDBRANCH   1  71
BRANCH  36  75
ATOM     75  CB  ALA A   3     144.305 173.565 187.328  0.00  0.00    -0.038 C 
ATOM     76  HB1 ALA A   3     143.297 173.830 187.670  0.00  0.00    +0.025 HD
ATOM     77  HB2 ALA A   3     144.473 174.076 186.373  0.00  0.00    +0.025 HD
ATOM     78  HB3 ALA A   3     145.019 173.962 188.059  0.00  0.00    +0.025 HD
ENDBRANCH  36  75
BRANCH  40  79
ATOM     79  C   UNK A   2     147.229 170.081 189.906  0.00  0.00    +0.005 C 
ATOM     80  H   UNK A   2     147.467 170.609 188.971  0.00  0.00    +0.032 HD
ATOM     81  H   UNK A   2     147.904 169.220 189.934  0.00  0.00    +0.032 HD
BRANCH  79  82
ATOM     82  C   UNK A   2     147.578 170.987 191.099  0.00  0.00    +0.088 C 
BRANCH  82  83
ATOM     83  C   UNK A   2     146.442 171.992 191.335  0.00  0.00    -0.034 C 
ATOM     84  H   UNK A   2     145.670 171.912 190.562  0.00  0.00    +0.026 HD
ATOM     85  H   UNK A   2     146.816 173.021 191.280  0.00  0.00    +0.026 HD
ATOM     86  H   UNK A   2     145.974 171.843 192.315  0.00  0.00    +0.026 HD
ENDBRANCH  82  83
BRANCH  82  87
ATOM     87  C   UNK A   2     148.918 171.726 190.891  0.00  0.00    +0.073 C 
ATOM     88  H   UNK A   2     149.528 171.253 190.115  0.00  0.00    +0.059 HD
ATOM     89  H   UNK A   2     149.489 171.780 191.822  0.00  0.00    +0.059 HD
BRANCH  87  90
ATOM     90  O   UNK A   2     148.637 173.081 190.513  0.00  0.00    -0.392 OA
ATOM     91  H   UNK A   2     149.354 173.619 190.899  0.00  0.00    +0.210 HD
ENDBRANCH  87  90
ENDBRANCH  82  87
BRANCH  82  92
ATOM     92  O   UNK A   2     147.691 170.187 192.291  0.00  0.00    -0.387 OA
ATOM     93  H   UNK A   2     146.801 170.255 192.702  0.00  0.00    +0.210 HD
ENDBRANCH  82  92
ENDBRANCH  79  82
ENDBRANCH  40  79
BRANCH  23  94
ATOM     94  OD  HYP A   6     147.028 162.182 185.602  0.00  0.00    -0.390 OA
ATOM     95  HD  HYP A   6     147.847 162.629 185.912  0.00  0.00    +0.210 HD
ENDBRANCH  23  94
BRANCH  32  96
ATOM     96  CB  THR A   4     144.386 170.488 182.559  0.00  0.00    +0.079 C 
ATOM     97  HB  THR A   4     144.823 170.778 181.595  0.00  0.00    +0.061 HD
BRANCH  96  98
ATOM     98  CG2 THR A   4     143.135 171.327 182.798  0.00  0.00    -0.037 C 
ATOM     99 HG21 THR A   4     143.085 171.650 183.843  0.00  0.00    +0.026 HD
ATOM    100 HG22 THR A   4     142.230 170.757 182.566  0.00  0.00    +0.026 HD
ATOM    101 HG23 THR A   4     143.151 172.237 182.189  0.00  0.00    +0.026 HD
ENDBRANCH  96  98
BRANCH  96 102
ATOM    102  OG1 THR A   4     143.991 169.106 182.432  0.00  0.00    -0.390 OA
ATOM    103  HG1 THR A   4     144.133 168.689 183.300  0.00  0.00    +0.210 HD
ENDBRANCH  96 102
ENDBRANCH  32  96
TORSDOF 12
ENDMDL
MODEL 5
REMARK VINA RESULT:      -5.5     19.343     22.378
REMARK  Name = Phalloidin_conf2
REMARK  12 active torsions:
REMARK  status: ('A' for Active; 'I' for Inactive)
REMARK    1  A    between atoms: CB_1  and  CA_2
REMARK    2  A    between atoms: CG_24  and  OD_30
REMARK    3  A    between atoms: CA_34  and  CB_53
REMARK    4  A    between atoms: CA_38  and  CB_52
REMARK    5  A    between atoms: C_42  and  C_46
REMARK    6  A    between atoms: C_46  and  C_47
REMARK    7  A    between atoms: C_47  and  C_48
REMARK    8  A    between atoms: C_47  and  C_49
REMARK    9  A    between atoms: C_47  and  O_51
REMARK   10  A    between atoms: C_49  and  O_50
REMARK   11  A    between atoms: CB_53  and  CG2_54
REMARK   12  A    between atoms: CB_53  and  OG1_55
REMARK                            x       y       z     vdW  Elec       q    Type
REMARK                         _______ _______ _______ _____ _____    ______ ____
ROOT
ATOM      1  CA  ALA A   7     138.146 171.234 188.005  0.00  0.00    +0.097 C 
ATOM      2  C   ALA A   7     138.939 172.345 188.719  0.00  0.00    +0.234 C 
ATOM      3  O   ALA A   7     139.985 172.767 188.221  0.00  0.00    -0.274 OA
ATOM      4  N   UNK A   1     138.466 172.874 189.892  0.00  0.00    -0.302 N 
ATOM      5  C   UNK A   1     139.334 173.654 190.802  0.00  0.00    +0.103 C 
ATOM      6  C   UNK A   1     140.475 172.770 191.366  0.00  0.00    +0.002 C 
ATOM      7  C   UNK A   1     141.677 173.457 191.945  0.00  0.00    -0.006 A 
ATOM      8  C   UNK A   5     143.003 173.220 191.625  0.00  0.00    +0.078 A 
ATOM      9  N   UNK A   5     143.795 174.023 192.391  0.00  0.00    -0.349 N 
ATOM     10  C   UNK A   5     143.026 174.788 193.232  0.00  0.00    +0.048 A 
ATOM     11  C   UNK A   5     143.413 175.738 194.186  0.00  0.00    -0.038 A 
ATOM     12  C   UNK A   5     142.405 176.356 194.930  0.00  0.00    -0.060 A 
ATOM     13  C   UNK A   5     141.068 176.028 194.731  0.00  0.00    -0.061 A 
ATOM     14  C   UNK A   5     140.700 175.076 193.771  0.00  0.00    -0.052 A 
ATOM     15  C   UNK A   5     141.694 174.442 192.995  0.00  0.00    +0.004 A 
ATOM     16  S   UNK A   5     143.808 172.106 190.566  0.00  0.00    -0.105 S 
ATOM     17  C   UNK A   5     143.265 172.697 188.931  0.00  0.00    +0.027 C 
ATOM     18  C   UNK A   5     143.694 171.816 187.747  0.00  0.00    +0.109 C 
ATOM     19  C   UNK A   5     142.526 170.932 187.229  0.00  0.00    +0.237 C 
ATOM     20  O   UNK A   5     141.774 171.313 186.323  0.00  0.00    -0.274 OA
ATOM     21  N   HYP A   6     142.303 169.700 187.809  0.00  0.00    -0.286 N 
ATOM     22  CD  HYP A   6     143.194 168.964 188.697  0.00  0.00    +0.042 C 
ATOM     23  CG  HYP A   6     142.463 167.658 189.020  0.00  0.00    +0.073 C 
ATOM     24  CB  HYP A   6     141.494 167.470 187.857  0.00  0.00    +0.002 C 
ATOM     25  CA  HYP A   6     141.143 168.895 187.422  0.00  0.00    +0.105 C 
ATOM     26  C   HYP A   6     139.908 169.452 188.162  0.00  0.00    +0.234 C 
ATOM     27  O   HYP A   6     139.687 169.210 189.348  0.00  0.00    -0.274 OA
ATOM     28  N   ALA A   7     139.172 170.356 187.425  0.00  0.00    -0.303 N 
ATOM     29  N   UNK A   5     144.068 172.690 186.629  0.00  0.00    -0.302 N 
ATOM     30  C   THR A   4     145.285 172.655 185.999  0.00  0.00    +0.237 C 
ATOM     31  O   THR A   4     146.151 171.828 186.281  0.00  0.00    -0.274 OA
ATOM     32  CA  THR A   4     145.458 173.647 184.827  0.00  0.00    +0.125 C 
ATOM     33  N   THR A   4     144.414 174.673 184.791  0.00  0.00    -0.300 N 
ATOM     34  C   ALA A   3     144.448 175.815 185.555  0.00  0.00    +0.234 C 
ATOM     35  O   ALA A   3     145.363 176.068 186.336  0.00  0.00    -0.274 OA
ATOM     36  CA  ALA A   3     143.210 176.722 185.383  0.00  0.00    +0.097 C 
ATOM     37  N   ALA A   3     142.586 176.917 186.681  0.00  0.00    -0.303 N 
ATOM     38  C   UNK A   2     141.898 175.902 187.298  0.00  0.00    +0.234 C 
ATOM     39  O   UNK A   2     141.787 174.792 186.776  0.00  0.00    -0.274 OA
ATOM     40  C   UNK A   2     141.292 176.251 188.682  0.00  0.00    +0.102 C 
ATOM     41  N   UNK A   2     140.607 175.064 189.184  0.00  0.00    -0.302 N 
ATOM     42  C   UNK A   1     139.781 175.049 190.275  0.00  0.00    +0.234 C 
ATOM     43  O   UNK A   1     139.460 176.087 190.858  0.00  0.00    -0.274 OA
ATOM     44  HA  ALA A   7     137.646 171.707 187.152  0.00  0.00    +0.059 HD
ATOM     45  H   UNK A   1     137.589 172.542 190.270  0.00  0.00    +0.150 HD
ATOM     46  H   UNK A   1     138.669 173.887 191.644  0.00  0.00    +0.060 HD
ATOM     47  H   UNK A   1     140.805 172.056 190.605  0.00  0.00    +0.034 HD
ATOM     48  H   UNK A   1     140.046 172.133 192.154  0.00  0.00    +0.034 HD
ATOM     49  H   UNK A   5     144.803 174.030 192.355  0.00  0.00    +0.166 HD
ATOM     50  H   UNK A   5     144.457 175.980 194.351  0.00  0.00    +0.064 HD
ATOM     51  H   UNK A   5     142.672 177.095 195.683  0.00  0.00    +0.062 HD
ATOM     52  H   UNK A   5     140.297 176.515 195.324  0.00  0.00    +0.062 HD
ATOM     53  H   UNK A   5     139.651 174.839 193.632  0.00  0.00    +0.062 HD
ATOM     54  H   UNK A   5     142.185 172.790 188.951  0.00  0.00    +0.040 HD
ATOM     55  H   UNK A   5     143.682 173.705 188.823  0.00  0.00    +0.040 HD
ATOM     56  H   UNK A   5     144.553 171.186 187.995  0.00  0.00    +0.060 HD
ATOM     57  HD1 HYP A   6     143.410 169.544 189.591  0.00  0.00    +0.049 HD
ATOM     58  HD2 HYP A   6     144.121 168.778 188.145  0.00  0.00    +0.049 HD
ATOM     59  HG  HYP A   6     143.164 166.822 189.107  0.00  0.00    +0.061 HD
ATOM     60  HB1 HYP A   6     140.612 166.879 188.123  0.00  0.00    +0.031 HD
ATOM     61  HB2 HYP A   6     142.017 166.967 187.034  0.00  0.00    +0.031 HD
ATOM     62  HA  HYP A   6     140.976 168.945 186.341  0.00  0.00    +0.060 HD
ATOM     63  H   ALA A   7     139.654 170.735 186.609  0.00  0.00    +0.149 HD
ATOM     64  H   UNK A   5     143.348 173.323 186.279  0.00  0.00    +0.150 HD
ATOM     65  HA  THR A   4     146.419 174.146 184.996  0.00  0.00    +0.062 HD
ATOM     66  H   THR A   4     143.673 174.514 184.117  0.00  0.00    +0.150 HD
ATOM     67  HA  ALA A   3     142.480 176.231 184.730  0.00  0.00    +0.059 HD
ATOM     68  H   ALA A   3     142.756 177.779 187.204  0.00  0.00    +0.149 HD
ATOM     69  H   UNK A   2     140.529 177.021 188.532  0.00  0.00    +0.060 HD
ATOM     70  H   UNK A   2     140.655 174.220 188.604  0.00  0.00    +0.150 HD
ENDROOT
BRANCH   1  71
ATOM     71  CB  ALA A   7     137.098 170.505 188.833  0.00  0.00    -0.038 C 
ATOM     72  HB1 ALA A   7     136.863 171.062 189.745  0.00  0.00    +0.025 HD
ATOM     73  HB2 ALA A   7     136.166 170.342 188.282  0.00  0.00    +0.025 HD
ATOM     74  HB3 ALA A   7     137.467 169.518 189.129  0.00  0.00    +0.025 HD
ENDBRANCH   1  71
BRANCH  36  75
ATOM     75  CB  ALA A   3     143.623 178.047 184.762  0.00  0.00    -0.038 C 
ATOM     76  HB1 ALA A   3     143.300 178.130 183.717  0.00  0.00    +0.025 HD
ATOM     77  HB2 ALA A   3     144.713 178.162 184.779  0.00  0.00    +0.025 HD
ATOM     78  HB3 ALA A   3     143.181 178.885 185.313  0.00  0.00    +0.025 HD
ENDBRANCH  36  75
BRANCH  40  79
ATOM     79  C   UNK A   2     142.397 176.693 189.661  0.00  0.00    +0.005 C 
ATOM     80  H   UNK A   2     143.374 176.572 189.172  0.00  0.00    +0.032 HD
ATOM     81  H   UNK A   2     142.428 176.041 190.539  0.00  0.00    +0.032 HD
BRANCH  79  82
ATOM     82  C   UNK A   2     142.260 178.142 190.160  0.00  0.00    +0.088 C 
BRANCH  82  83
ATOM     83  C   UNK A   2     141.089 178.828 189.441  0.00  0.00    -0.034 C 
ATOM     84  H   UNK A   2     141.185 178.746 188.353  0.00  0.00    +0.026 HD
ATOM     85  H   UNK A   2     141.076 179.903 189.661  0.00  0.00    +0.026 HD
ATOM     86  H   UNK A   2     140.129 178.398 189.742  0.00  0.00    +0.026 HD
ENDBRANCH  82  83
BRANCH  82  87
ATOM     87  C   UNK A   2     143.562 178.947 189.960  0.00  0.00    +0.073 C 
ATOM     88  H   UNK A   2     144.272 178.782 190.777  0.00  0.00    +0.059 HD
ATOM     89  H   UNK A   2     143.356 180.016 189.866  0.00  0.00    +0.059 HD
BRANCH  87  90
ATOM     90  O   UNK A   2     144.163 178.543 188.722  0.00  0.00    -0.392 OA
ATOM     91  H   UNK A   2     144.561 179.350 188.344  0.00  0.00    +0.210 HD
ENDBRANCH  87  90
ENDBRANCH  82  87
BRANCH  82  92
ATOM     92  O   UNK A   2     141.950 178.137 191.566  0.00  0.00    -0.387 OA
ATOM     93  H   UNK A   2     142.827 178.234 191.998  0.00  0.00    +0.210 HD
ENDBRANCH  82  92
ENDBRANCH  79  82
ENDBRANCH  40  79
BRANCH  23  94
ATOM     94  OD  HYP A   6     141.768 167.738 190.261  0.00  0.00    -0.390 OA
ATOM     95  HD  HYP A   6     141.156 168.506 190.237  0.00  0.00    +0.210 HD
ENDBRANCH  23  94
BRANCH  32  96
ATOM     96  CB  THR A   4     145.473 172.830 183.510  0.00  0.00    +0.079 C 
ATOM     97  HB  THR A   4     146.498 172.566 183.218  0.00  0.00    +0.061 HD
BRANCH  96  98
ATOM     98  CG2 THR A   4     144.827 173.606 182.368  0.00  0.00    -0.037 C 
ATOM     99 HG21 THR A   4     143.942 173.076 181.996  0.00  0.00    +0.026 HD
ATOM    100 HG22 THR A   4     145.527 173.739 181.537  0.00  0.00    +0.026 HD
ATOM    101 HG23 THR A   4     144.482 174.589 182.707  0.00  0.00    +0.026 HD
ENDBRANCH  96  98
BRANCH  96 102
ATOM    102  OG1 THR A   4     144.761 171.585 183.676  0.00  0.00    -0.390 OA
ATOM    103  HG1 THR A   4     144.343 171.381 182.821  0.00  0.00    +0.210 HD
ENDBRANCH  96 102
ENDBRANCH  32  96
TORSDOF 12
ENDMDL
MODEL 6
REMARK VINA RESULT:      -5.5     17.664     21.236
REMARK  Name = Phalloidin_conf2
REMARK  12 active torsions:
REMARK  status: ('A' for Active; 'I' for Inactive)
REMARK    1  A    between atoms: CB_1  and  CA_2
REMARK    2  A    between atoms: CG_24  and  OD_30
REMARK    3  A    between atoms: CA_34  and  CB_53
REMARK    4  A    between atoms: CA_38  and  CB_52
REMARK    5  A    between atoms: C_42  and  C_46
REMARK    6  A    between atoms: C_46  and  C_47
REMARK    7  A    between atoms: C_47  and  C_48
REMARK    8  A    between atoms: C_47  and  C_49
REMARK    9  A    between atoms: C_47  and  O_51
REMARK   10  A    between atoms: C_49  and  O_50
REMARK   11  A    between atoms: CB_53  and  CG2_54
REMARK   12  A    between atoms: CB_53  and  OG1_55
REMARK                            x       y       z     vdW  Elec       q    Type
REMARK                         _______ _______ _______ _____ _____    ______ ____
ROOT
ATOM      1  CA  ALA A   7     146.026 168.881 184.329  0.00  0.00    +0.097 C 
ATOM      2  C   ALA A   7     145.268 169.412 185.561  0.00  0.00    +0.234 C 
ATOM      3  O   ALA A   7     145.843 169.481 186.650  0.00  0.00    -0.274 OA
ATOM      4  N   UNK A   1     143.967 169.824 185.437  0.00  0.00    -0.302 N 
ATOM      5  C   UNK A   1     143.084 169.987 186.614  0.00  0.00    +0.103 C 
ATOM      6  C   UNK A   1     142.851 168.627 187.319  0.00  0.00    +0.002 C 
ATOM      7  C   UNK A   1     142.357 168.645 188.736  0.00  0.00    -0.006 A 
ATOM      8  C   UNK A   5     142.908 167.977 189.816  0.00  0.00    +0.078 A 
ATOM      9  N   UNK A   5     142.151 168.220 190.923  0.00  0.00    -0.349 N 
ATOM     10  C   UNK A   5     141.089 169.031 190.605  0.00  0.00    +0.048 A 
ATOM     11  C   UNK A   5     140.064 169.526 191.419  0.00  0.00    -0.038 A 
ATOM     12  C   UNK A   5     139.085 170.320 190.816  0.00  0.00    -0.060 A 
ATOM     13  C   UNK A   5     139.129 170.596 189.454  0.00  0.00    -0.061 A 
ATOM     14  C   UNK A   5     140.165 170.093 188.655  0.00  0.00    -0.052 A 
ATOM     15  C   UNK A   5     141.175 169.297 189.237  0.00  0.00    +0.004 A 
ATOM     16  S   UNK A   5     144.245 166.886 190.006  0.00  0.00    -0.105 S 
ATOM     17  C   UNK A   5     145.660 167.973 189.644  0.00  0.00    +0.027 C 
ATOM     18  C   UNK A   5     147.022 167.266 189.581  0.00  0.00    +0.109 C 
ATOM     19  C   UNK A   5     147.495 167.046 188.117  0.00  0.00    +0.237 C 
ATOM     20  O   UNK A   5     148.202 167.875 187.530  0.00  0.00    -0.274 OA
ATOM     21  N   HYP A   6     147.097 165.910 187.443  0.00  0.00    -0.286 N 
ATOM     22  CD  HYP A   6     146.486 164.713 188.007  0.00  0.00    +0.042 C 
ATOM     23  CG  HYP A   6     146.273 163.765 186.823  0.00  0.00    +0.073 C 
ATOM     24  CB  HYP A   6     147.290 164.225 185.784  0.00  0.00    +0.002 C 
ATOM     25  CA  HYP A   6     147.430 165.729 186.029  0.00  0.00    +0.105 C 
ATOM     26  C   HYP A   6     146.429 166.560 185.194  0.00  0.00    +0.234 C 
ATOM     27  O   HYP A   6     145.280 166.180 184.978  0.00  0.00    -0.274 OA
ATOM     28  N   ALA A   7     146.890 167.814 184.851  0.00  0.00    -0.303 N 
ATOM     29  N   UNK A   5     148.027 168.136 190.205  0.00  0.00    -0.302 N 
ATOM     30  C   THR A   4     148.832 167.757 191.248  0.00  0.00    +0.237 C 
ATOM     31  O   THR A   4     148.822 166.617 191.708  0.00  0.00    -0.274 OA
ATOM     32  CA  THR A   4     149.838 168.823 191.734  0.00  0.00    +0.125 C 
ATOM     33  N   THR A   4     149.548 170.161 191.214  0.00  0.00    -0.300 N 
ATOM     34  C   ALA A   3     148.622 171.007 191.775  0.00  0.00    +0.234 C 
ATOM     35  O   ALA A   3     147.958 170.708 192.765  0.00  0.00    -0.274 OA
ATOM     36  CA  ALA A   3     148.455 172.344 191.019  0.00  0.00    +0.097 C 
ATOM     37  N   ALA A   3     147.063 172.490 190.627  0.00  0.00    -0.303 N 
ATOM     38  C   UNK A   2     146.522 171.724 189.625  0.00  0.00    +0.234 C 
ATOM     39  O   UNK A   2     147.195 170.886 189.024  0.00  0.00    -0.274 OA
ATOM     40  C   UNK A   2     145.024 171.983 189.319  0.00  0.00    +0.102 C 
ATOM     41  N   UNK A   2     144.625 171.086 188.239  0.00  0.00    -0.302 N 
ATOM     42  C   UNK A   1     143.438 171.169 187.562  0.00  0.00    +0.234 C 
ATOM     43  O   UNK A   1     142.652 172.101 187.746  0.00  0.00    -0.274 OA
ATOM     44  HA  ALA A   7     146.704 169.682 184.012  0.00  0.00    +0.059 HD
ATOM     45  H   UNK A   1     143.519 169.793 184.530  0.00  0.00    +0.150 HD
ATOM     46  H   UNK A   1     142.125 170.280 186.168  0.00  0.00    +0.060 HD
ATOM     47  H   UNK A   1     143.759 168.019 187.267  0.00  0.00    +0.034 HD
ATOM     48  H   UNK A   1     142.122 168.061 186.721  0.00  0.00    +0.034 HD
ATOM     49  H   UNK A   5     142.337 167.836 191.837  0.00  0.00    +0.166 HD
ATOM     50  H   UNK A   5     140.021 169.296 192.478  0.00  0.00    +0.064 HD
ATOM     51  H   UNK A   5     138.271 170.717 191.420  0.00  0.00    +0.062 HD
ATOM     52  H   UNK A   5     138.355 171.211 189.000  0.00  0.00    +0.062 HD
ATOM     53  H   UNK A   5     140.180 170.324 187.596  0.00  0.00    +0.062 HD
ATOM     54  H   UNK A   5     145.461 168.479 188.705  0.00  0.00    +0.040 HD
ATOM     55  H   UNK A   5     145.664 168.734 190.434  0.00  0.00    +0.040 HD
ATOM     56  H   UNK A   5     147.014 166.312 190.114  0.00  0.00    +0.060 HD
ATOM     57  HD1 HYP A   6     145.552 164.957 188.507  0.00  0.00    +0.049 HD
ATOM     58  HD2 HYP A   6     147.195 164.297 188.730  0.00  0.00    +0.049 HD
ATOM     59  HG  HYP A   6     146.431 162.723 187.116  0.00  0.00    +0.061 HD
ATOM     60  HB1 HYP A   6     146.994 163.988 184.757  0.00  0.00    +0.031 HD
ATOM     61  HB2 HYP A   6     148.254 163.742 185.990  0.00  0.00    +0.031 HD
ATOM     62  HA  HYP A   6     148.450 166.068 185.821  0.00  0.00    +0.060 HD
ATOM     63  H   ALA A   7     147.696 168.134 185.388  0.00  0.00    +0.149 HD
ATOM     64  H   UNK A   5     148.156 169.061 189.791  0.00  0.00    +0.150 HD
ATOM     65  HA  THR A   4     149.737 168.855 192.826  0.00  0.00    +0.062 HD
ATOM     66  H   THR A   4     150.119 170.453 190.428  0.00  0.00    +0.150 HD
ATOM     67  HA  ALA A   3     149.060 172.330 190.106  0.00  0.00    +0.059 HD
ATOM     68  H   ALA A   3     146.438 173.083 191.178  0.00  0.00    +0.149 HD
ATOM     69  H   UNK A   2     144.929 173.005 188.938  0.00  0.00    +0.060 HD
ATOM     70  H   UNK A   2     145.335 170.435 187.890  0.00  0.00    +0.150 HD
ENDROOT
BRANCH   1  71
ATOM     71  CB  ALA A   7     145.178 168.469 183.135  0.00  0.00    -0.038 C 
ATOM     72  HB1 ALA A   7     144.613 169.319 182.743  0.00  0.00    +0.025 HD
ATOM     73  HB2 ALA A   7     145.777 168.051 182.319  0.00  0.00    +0.025 HD
ATOM     74  HB3 ALA A   7     144.460 167.696 183.427  0.00  0.00    +0.025 HD
ENDBRANCH   1  71
BRANCH  36  75
ATOM     75  CB  ALA A   3     148.906 173.496 191.901  0.00  0.00    -0.038 C 
ATOM     76  HB1 ALA A   3     149.095 173.174 192.933  0.00  0.00    +0.025 HD
ATOM     77  HB2 ALA A   3     148.143 174.282 191.936  0.00  0.00    +0.025 HD
ATOM     78  HB3 ALA A   3     149.833 173.936 191.517  0.00  0.00    +0.025 HD
ENDBRANCH  36  75
BRANCH  40  79
ATOM     79  C   UNK A   2     144.165 171.736 190.574  0.00  0.00    +0.005 C 
ATOM     80  H   UNK A   2     144.823 171.434 191.402  0.00  0.00    +0.032 HD
ATOM     81  H   UNK A   2     143.483 170.894 190.424  0.00  0.00    +0.032 HD
BRANCH  79  82
ATOM     82  C   UNK A   2     143.324 172.946 191.016  0.00  0.00    +0.088 C 
BRANCH  82  83
ATOM     83  C   UNK A   2     144.098 173.761 192.062  0.00  0.00    -0.034 C 
ATOM     84  H   UNK A   2     144.869 173.154 192.550  0.00  0.00    +0.026 HD
ATOM     85  H   UNK A   2     143.430 174.099 192.863  0.00  0.00    +0.026 HD
ATOM     86  H   UNK A   2     144.575 174.637 191.611  0.00  0.00    +0.026 HD
ENDBRANCH  82  83
BRANCH  82  87
ATOM     87  C   UNK A   2     141.948 172.521 191.574  0.00  0.00    +0.073 C 
ATOM     88  H   UNK A   2     141.965 171.498 191.964  0.00  0.00    +0.059 HD
ATOM     89  H   UNK A   2     141.168 172.608 190.813  0.00  0.00    +0.059 HD
BRANCH  87  90
ATOM     90  O   UNK A   2     141.584 173.423 192.627  0.00  0.00    -0.392 OA
ATOM     91  H   UNK A   2     142.057 173.111 193.421  0.00  0.00    +0.210 HD
ENDBRANCH  87  90
ENDBRANCH  82  87
BRANCH  82  92
ATOM     92  O   UNK A   2     143.099 173.811 189.887  0.00  0.00    -0.387 OA
ATOM     93  H   UNK A   2     142.219 173.530 189.551  0.00  0.00    +0.210 HD
ENDBRANCH  82  92
ENDBRANCH  79  82
ENDBRANCH  40  79
BRANCH  23  94
ATOM     94  OD  HYP A   6     144.945 163.849 186.315  0.00  0.00    -0.390 OA
ATOM     95  HD  HYP A   6     144.406 164.410 186.915  0.00  0.00    +0.210 HD
ENDBRANCH  23  94
BRANCH  32  96
ATOM     96  CB  THR A   4     151.258 168.364 191.314  0.00  0.00    +0.079 C 
ATOM     97  HB  THR A   4     151.213 167.629 190.500  0.00  0.00    +0.061 HD
BRANCH  96  98
ATOM     98  CG2 THR A   4     152.011 167.746 192.486  0.00  0.00    -0.037 C 
ATOM     99 HG21 THR A   4     152.754 168.449 192.879  0.00  0.00    +0.026 HD
ATOM    100 HG22 THR A   4     152.527 166.829 192.183  0.00  0.00    +0.026 HD
ATOM    101 HG23 THR A   4     151.331 167.515 193.313  0.00  0.00    +0.026 HD
ENDBRANCH  96  98
BRANCH  96 102
ATOM    102  OG1 THR A   4     152.025 169.481 190.816  0.00  0.00    -0.390 OA
ATOM    103  HG1 THR A   4     152.343 169.233 189.930  0.00  0.00    +0.210 HD
ENDBRANCH  96 102
ENDBRANCH  32  96
TORSDOF 12
ENDMDL
MODEL 7
REMARK VINA RESULT:      -5.4     22.740     26.699
REMARK  Name = Phalloidin_conf2
REMARK  12 active torsions:
REMARK  status: ('A' for Active; 'I' for Inactive)
REMARK    1  A    between atoms: CB_1  and  CA_2
REMARK    2  A    between atoms: CG_24  and  OD_30
REMARK    3  A    between atoms: CA_34  and  CB_53
REMARK    4  A    between atoms: CA_38  and  CB_52
REMARK    5  A    between atoms: C_42  and  C_46
REMARK    6  A    between atoms: C_46  and  C_47
REMARK    7  A    between atoms: C_47  and  C_48
REMARK    8  A    between atoms: C_47  and  C_49
REMARK    9  A    between atoms: C_47  and  O_51
REMARK   10  A    between atoms: C_49  and  O_50
REMARK   11  A    between atoms: CB_53  and  CG2_54
REMARK   12  A    between atoms: CB_53  and  OG1_55
REMARK                            x       y       z     vdW  Elec       q    Type
REMARK                         _______ _______ _______ _____ _____    ______ ____
ROOT
ATOM      1  CA  ALA A   7     154.308 166.159 188.668  0.00  0.00    +0.097 C 
ATOM      2  C   ALA A   7     154.583 164.647 188.555  0.00  0.00    +0.234 C 
ATOM      3  O   ALA A   7     155.732 164.247 188.351  0.00  0.00    -0.274 OA
ATOM      4  N   UNK A   1     153.554 163.753 188.702  0.00  0.00    -0.302 N 
ATOM      5  C   UNK A   1     153.668 162.350 188.247  0.00  0.00    +0.103 C 
ATOM      6  C   UNK A   1     153.842 162.282 186.709  0.00  0.00    +0.002 C 
ATOM      7  C   UNK A   1     154.394 161.018 186.118  0.00  0.00    -0.006 A 
ATOM      8  C   UNK A   5     155.459 160.907 185.241  0.00  0.00    +0.078 A 
ATOM      9  N   UNK A   5     155.629 159.596 184.911  0.00  0.00    -0.349 N 
ATOM     10  C   UNK A   5     154.687 158.821 185.540  0.00  0.00    +0.048 A 
ATOM     11  C   UNK A   5     154.484 157.436 185.488  0.00  0.00    -0.038 A 
ATOM     12  C   UNK A   5     153.417 156.910 186.220  0.00  0.00    -0.060 A 
ATOM     13  C   UNK A   5     152.585 157.738 186.965  0.00  0.00    -0.061 A 
ATOM     14  C   UNK A   5     152.805 159.122 187.007  0.00  0.00    -0.052 A 
ATOM     15  C   UNK A   5     153.882 159.683 186.288  0.00  0.00    +0.004 A 
ATOM     16  S   UNK A   5     156.502 162.054 184.460  0.00  0.00    -0.105 S 
ATOM     17  C   UNK A   5     157.422 162.737 185.875  0.00  0.00    +0.027 C 
ATOM     18  C   UNK A   5     158.351 163.913 185.538  0.00  0.00    +0.109 C 
ATOM     19  C   UNK A   5     157.736 165.277 185.957  0.00  0.00    +0.237 C 
ATOM     20  O   UNK A   5     157.954 165.775 187.068  0.00  0.00    -0.274 OA
ATOM     21  N   HYP A   6     156.904 165.940 185.078  0.00  0.00    -0.286 N 
ATOM     22  CD  HYP A   6     156.714 165.667 183.660  0.00  0.00    +0.042 C 
ATOM     23  CG  HYP A   6     155.705 166.710 183.172  0.00  0.00    +0.073 C 
ATOM     24  CB  HYP A   6     155.832 167.854 184.174  0.00  0.00    +0.002 C 
ATOM     25  CA  HYP A   6     156.219 167.168 185.486  0.00  0.00    +0.105 C 
ATOM     26  C   HYP A   6     154.988 166.769 186.330  0.00  0.00    +0.234 C 
ATOM     27  O   HYP A   6     153.949 166.352 185.821  0.00  0.00    -0.274 OA
ATOM     28  N   ALA A   7     155.213 166.778 187.691  0.00  0.00    -0.303 N 
ATOM     29  N   UNK A   5     159.586 163.768 186.319  0.00  0.00    -0.302 N 
ATOM     30  C   THR A   4     160.842 163.724 185.771  0.00  0.00    +0.237 C 
ATOM     31  O   THR A   4     161.042 163.871 184.566  0.00  0.00    -0.274 OA
ATOM     32  CA  THR A   4     162.004 163.593 186.779  0.00  0.00    +0.125 C 
ATOM     33  N   THR A   4     161.555 163.220 188.122  0.00  0.00    -0.300 N 
ATOM     34  C   ALA A   3     161.291 161.926 188.500  0.00  0.00    +0.234 C 
ATOM     35  O   ALA A   3     161.411 160.970 187.736  0.00  0.00    -0.274 OA
ATOM     36  CA  ALA A   3     160.780 161.788 189.952  0.00  0.00    +0.097 C 
ATOM     37  N   ALA A   3     159.487 161.125 189.933  0.00  0.00    -0.303 N 
ATOM     38  C   UNK A   2     158.364 161.770 189.478  0.00  0.00    +0.234 C 
ATOM     39  O   UNK A   2     158.412 162.930 189.069  0.00  0.00    -0.274 OA
ATOM     40  C   UNK A   2     157.056 160.936 189.510  0.00  0.00    +0.102 C 
ATOM     41  N   UNK A   2     155.978 161.775 188.994  0.00  0.00    -0.302 N 
ATOM     42  C   UNK A   1     154.649 161.456 189.062  0.00  0.00    +0.234 C 
ATOM     43  O   UNK A   1     154.252 160.467 189.680  0.00  0.00    -0.274 OA
ATOM     44  HA  ALA A   7     154.679 166.469 189.652  0.00  0.00    +0.059 HD
ATOM     45  H   UNK A   1     152.623 164.095 188.903  0.00  0.00    +0.150 HD
ATOM     46  H   UNK A   1     152.678 161.932 188.473  0.00  0.00    +0.060 HD
ATOM     47  H   UNK A   1     154.443 163.128 186.364  0.00  0.00    +0.034 HD
ATOM     48  H   UNK A   1     152.856 162.458 186.253  0.00  0.00    +0.034 HD
ATOM     49  H   UNK A   5     156.334 159.255 184.275  0.00  0.00    +0.166 HD
ATOM     50  H   UNK A   5     155.124 156.793 184.893  0.00  0.00    +0.064 HD
ATOM     51  H   UNK A   5     153.229 155.838 186.197  0.00  0.00    +0.062 HD
ATOM     52  H   UNK A   5     151.756 157.311 187.525  0.00  0.00    +0.062 HD
ATOM     53  H   UNK A   5     152.145 159.748 187.598  0.00  0.00    +0.062 HD
ATOM     54  H   UNK A   5     156.702 163.038 186.627  0.00  0.00    +0.040 HD
ATOM     55  H   UNK A   5     158.001 161.903 186.287  0.00  0.00    +0.040 HD
ATOM     56  H   UNK A   5     158.615 163.936 184.477  0.00  0.00    +0.060 HD
ATOM     57  HD1 HYP A   6     156.355 164.651 183.509  0.00  0.00    +0.049 HD
ATOM     58  HD2 HYP A   6     157.686 165.792 183.172  0.00  0.00    +0.049 HD
ATOM     59  HG  HYP A   6     155.931 167.034 182.152  0.00  0.00    +0.061 HD
ATOM     60  HB1 HYP A   6     154.921 168.453 184.261  0.00  0.00    +0.031 HD
ATOM     61  HB2 HYP A   6     156.654 168.511 183.862  0.00  0.00    +0.031 HD
ATOM     62  HA  HYP A   6     156.880 167.806 186.082  0.00  0.00    +0.060 HD
ATOM     63  H   ALA A   7     156.198 166.791 187.960  0.00  0.00    +0.149 HD
ATOM     64  H   UNK A   5     159.488 163.752 187.335  0.00  0.00    +0.150 HD
ATOM     65  HA  THR A   4     162.642 162.786 186.399  0.00  0.00    +0.062 HD
ATOM     66  H   THR A   4     161.497 163.984 188.787  0.00  0.00    +0.150 HD
ATOM     67  HA  ALA A   3     160.641 162.782 190.390  0.00  0.00    +0.059 HD
ATOM     68  H   ALA A   3     159.423 160.126 190.147  0.00  0.00    +0.149 HD
ATOM     69  H   UNK A   2     156.819 160.720 190.557  0.00  0.00    +0.060 HD
ATOM     70  H   UNK A   2     156.234 162.714 188.673  0.00  0.00    +0.150 HD
ENDROOT
BRANCH   1  71
ATOM     71  CB  ALA A   7     152.857 166.598 188.540  0.00  0.00    -0.038 C 
ATOM     72  HB1 ALA A   7     152.682 167.097 187.582  0.00  0.00    +0.025 HD
ATOM     73  HB2 ALA A   7     152.156 165.762 188.624  0.00  0.00    +0.025 HD
ATOM     74  HB3 ALA A   7     152.603 167.305 189.337  0.00  0.00    +0.025 HD
ENDBRANCH   1  71
BRANCH  36  75
ATOM     75  CB  ALA A   3     161.790 161.011 190.782  0.00  0.00    -0.038 C 
ATOM     76  HB1 ALA A   3     161.373 160.068 191.158  0.00  0.00    +0.025 HD
ATOM     77  HB2 ALA A   3     162.113 161.597 191.650  0.00  0.00    +0.025 HD
ATOM     78  HB3 ALA A   3     162.675 160.767 190.184  0.00  0.00    +0.025 HD
ENDBRANCH  36  75
BRANCH  40  79
ATOM     79  C   UNK A   2     157.206 159.661 188.659  0.00  0.00    +0.005 C 
ATOM     80  H   UNK A   2     158.166 159.701 188.124  0.00  0.00    +0.032 HD
ATOM     81  H   UNK A   2     156.441 159.617 187.878  0.00  0.00    +0.032 HD
BRANCH  79  82
ATOM     82  C   UNK A   2     157.131 158.351 189.461  0.00  0.00    +0.088 C 
BRANCH  82  83
ATOM     83  C   UNK A   2     156.060 157.432 188.854  0.00  0.00    -0.034 C 
ATOM     84  H   UNK A   2     155.387 157.041 189.624  0.00  0.00    +0.026 HD
ATOM     85  H   UNK A   2     156.522 156.555 188.385  0.00  0.00    +0.026 HD
ATOM     86  H   UNK A   2     155.464 157.958 188.101  0.00  0.00    +0.026 HD
ENDBRANCH  82  83
BRANCH  82  87
ATOM     87  C   UNK A   2     156.839 158.605 190.956  0.00  0.00    +0.073 C 
ATOM     88  H   UNK A   2     157.049 159.640 191.242  0.00  0.00    +0.059 HD
ATOM     89  H   UNK A   2     157.413 157.927 191.592  0.00  0.00    +0.059 HD
BRANCH  87  90
ATOM     90  O   UNK A   2     155.457 158.315 191.207  0.00  0.00    -0.392 OA
ATOM     91  H   UNK A   2     154.959 158.752 190.490  0.00  0.00    +0.210 HD
ENDBRANCH  87  90
ENDBRANCH  82  87
BRANCH  82  92
ATOM     92  O   UNK A   2     158.389 157.657 189.365  0.00  0.00    -0.387 OA
ATOM     93  H   UNK A   2     158.142 156.776 189.005  0.00  0.00    +0.210 HD
ENDBRANCH  82  92
ENDBRANCH  79  82
ENDBRANCH  40  79
BRANCH  23  94
ATOM     94  OD  HYP A   6     154.379 166.190 183.152  0.00  0.00    -0.390 OA
ATOM     95  HD  HYP A   6     154.295 165.555 182.407  0.00  0.00    +0.210 HD
ENDBRANCH  23  94
BRANCH  32  96
ATOM     96  CB  THR A   4     162.764 164.944 186.808  0.00  0.00    +0.079 C 
ATOM     97  HB  THR A   4     163.588 164.952 186.083  0.00  0.00    +0.061 HD
BRANCH  96  98
ATOM     98  CG2 THR A   4     163.332 165.232 188.193  0.00  0.00    -0.037 C 
ATOM     99 HG21 THR A   4     162.542 165.178 188.951  0.00  0.00    +0.026 HD
ATOM    100 HG22 THR A   4     163.784 166.228 188.234  0.00  0.00    +0.026 HD
ATOM    101 HG23 THR A   4     164.084 164.486 188.473  0.00  0.00    +0.026 HD
ENDBRANCH  96  98
BRANCH  96 102
ATOM    102  OG1 THR A   4     161.885 166.028 186.440  0.00  0.00    -0.390 OA
ATOM    103  HG1 THR A   4     162.373 166.856 186.601  0.00  0.00    +0.210 HD
ENDBRANCH  96 102
ENDBRANCH  32  96
TORSDOF 12
ENDMDL
MODEL 8
REMARK VINA RESULT:      -5.4     29.742     32.536
REMARK  Name = Phalloidin_conf2
REMARK  12 active torsions:
REMARK  status: ('A' for Active; 'I' for Inactive)
REMARK    1  A    between atoms: CB_1  and  CA_2
REMARK    2  A    between atoms: CG_24  and  OD_30
REMARK    3  A    between atoms: CA_34  and  CB_53
REMARK    4  A    between atoms: CA_38  and  CB_52
REMARK    5  A    between atoms: C_42  and  C_46
REMARK    6  A    between atoms: C_46  and  C_47
REMARK    7  A    between atoms: C_47  and  C_48
REMARK    8  A    between atoms: C_47  and  C_49
REMARK    9  A    between atoms: C_47  and  O_51
REMARK   10  A    between atoms: C_49  and  O_50
REMARK   11  A    between atoms: CB_53  and  CG2_54
REMARK   12  A    between atoms: CB_53  and  OG1_55
REMARK                            x       y       z     vdW  Elec       q    Type
REMARK                         _______ _______ _______ _____ _____    ______ ____
ROOT
ATOM      1  CA  ALA A   7     150.910 184.475 186.786  0.00  0.00    +0.097 C 
ATOM      2  C   ALA A   7     149.520 184.043 187.292  0.00  0.00    +0.234 C 
ATOM      3  O   ALA A   7     148.810 183.321 186.588  0.00  0.00    -0.274 OA
ATOM      4  N   UNK A   1     149.089 184.446 188.529  0.00  0.00    -0.302 N 
ATOM      5  C   UNK A   1     147.661 184.386 188.915  0.00  0.00    +0.103 C 
ATOM      6  C   UNK A   1     146.812 185.334 188.032  0.00  0.00    +0.002 C 
ATOM      7  C   UNK A   1     145.330 185.102 187.974  0.00  0.00    -0.006 A 
ATOM      8  C   UNK A   5     144.554 184.972 186.835  0.00  0.00    +0.078 A 
ATOM      9  N   UNK A   5     143.252 184.806 187.202  0.00  0.00    -0.349 N 
ATOM     10  C   UNK A   5     143.134 184.838 188.569  0.00  0.00    +0.048 A 
ATOM     11  C   UNK A   5     141.995 184.715 189.375  0.00  0.00    -0.038 A 
ATOM     12  C   UNK A   5     142.167 184.811 190.758  0.00  0.00    -0.060 A 
ATOM     13  C   UNK A   5     143.425 185.031 191.307  0.00  0.00    -0.061 A 
ATOM     14  C   UNK A   5     144.554 185.149 190.485  0.00  0.00    -0.052 A 
ATOM     15  C   UNK A   5     144.415 185.045 189.085  0.00  0.00    +0.004 A 
ATOM     16  S   UNK A   5     144.884 185.058 185.134  0.00  0.00    -0.105 S 
ATOM     17  C   UNK A   5     145.929 183.587 184.887  0.00  0.00    +0.027 C 
ATOM     18  C   UNK A   5     146.529 183.446 183.480  0.00  0.00    +0.109 C 
ATOM     19  C   UNK A   5     148.025 183.862 183.442  0.00  0.00    +0.237 C 
ATOM     20  O   UNK A   5     148.933 183.040 183.618  0.00  0.00    -0.274 OA
ATOM     21  N   HYP A   6     148.351 185.186 183.233  0.00  0.00    -0.286 N 
ATOM     22  CD  HYP A   6     147.475 186.253 182.767  0.00  0.00    +0.042 C 
ATOM     23  CG  HYP A   6     148.354 187.504 182.693  0.00  0.00    +0.073 C 
ATOM     24  CB  HYP A   6     149.772 186.960 182.552  0.00  0.00    +0.002 C 
ATOM     25  CA  HYP A   6     149.745 185.629 183.306  0.00  0.00    +0.105 C 
ATOM     26  C   HYP A   6     150.117 185.786 184.797  0.00  0.00    +0.234 C 
ATOM     27  O   HYP A   6     149.767 186.759 185.463  0.00  0.00    -0.274 OA
ATOM     28  N   ALA A   7     150.735 184.680 185.341  0.00  0.00    -0.303 N 
ATOM     29  N   UNK A   5     146.492 182.028 183.100  0.00  0.00    -0.302 N 
ATOM     30  C   THR A   4     145.887 181.550 181.967  0.00  0.00    +0.237 C 
ATOM     31  O   THR A   4     145.373 182.292 181.130  0.00  0.00    -0.274 OA
ATOM     32  CA  THR A   4     145.991 180.025 181.747  0.00  0.00    +0.125 C 
ATOM     33  N   THR A   4     146.442 179.307 182.942  0.00  0.00    -0.300 N 
ATOM     34  C   ALA A   3     145.603 178.943 183.968  0.00  0.00    +0.234 C 
ATOM     35  O   ALA A   3     144.399 179.193 183.967  0.00  0.00    -0.274 OA
ATOM     36  CA  ALA A   3     146.318 178.241 185.143  0.00  0.00    +0.097 C 
ATOM     37  N   ALA A   3     146.063 178.989 186.363  0.00  0.00    -0.303 N 
ATOM     38  C   UNK A   2     146.651 180.209 186.584  0.00  0.00    +0.234 C 
ATOM     39  O   UNK A   2     147.414 180.713 185.759  0.00  0.00    -0.274 OA
ATOM     40  C   UNK A   2     146.281 180.896 187.925  0.00  0.00    +0.102 C 
ATOM     41  N   UNK A   2     146.990 182.171 187.986  0.00  0.00    -0.302 N 
ATOM     42  C   UNK A   1     147.074 182.957 189.103  0.00  0.00    +0.234 C 
ATOM     43  O   UNK A   1     146.642 182.580 190.194  0.00  0.00    -0.274 OA
ATOM     44  HA  ALA A   7     151.562 183.599 186.883  0.00  0.00    +0.059 HD
ATOM     45  H   UNK A   1     149.696 185.011 189.108  0.00  0.00    +0.150 HD
ATOM     46  H   UNK A   1     147.658 184.811 189.928  0.00  0.00    +0.060 HD
ATOM     47  H   UNK A   1     147.209 185.350 187.012  0.00  0.00    +0.034 HD
ATOM     48  H   UNK A   1     146.973 186.361 188.392  0.00  0.00    +0.034 HD
ATOM     49  H   UNK A   5     142.486 184.701 186.553  0.00  0.00    +0.166 HD
ATOM     50  H   UNK A   5     141.012 184.560 188.944  0.00  0.00    +0.064 HD
ATOM     51  H   UNK A   5     141.301 184.726 191.412  0.00  0.00    +0.062 HD
ATOM     52  H   UNK A   5     143.539 185.109 192.386  0.00  0.00    +0.062 HD
ATOM     53  H   UNK A   5     145.526 185.317 190.937  0.00  0.00    +0.062 HD
ATOM     54  H   UNK A   5     146.721 183.613 185.626  0.00  0.00    +0.040 HD
ATOM     55  H   UNK A   5     145.291 182.725 185.116  0.00  0.00    +0.040 HD
ATOM     56  H   UNK A   5     145.967 184.016 182.736  0.00  0.00    +0.060 HD
ATOM     57  HD1 HYP A   6     146.635 186.383 183.445  0.00  0.00    +0.049 HD
ATOM     58  HD2 HYP A   6     147.108 185.962 181.776  0.00  0.00    +0.049 HD
ATOM     59  HG  HYP A   6     148.073 188.136 181.846  0.00  0.00    +0.061 HD
ATOM     60  HB1 HYP A   6     150.536 187.646 182.930  0.00  0.00    +0.031 HD
ATOM     61  HB2 HYP A   6     149.975 186.762 181.491  0.00  0.00    +0.031 HD
ATOM     62  HA  HYP A   6     150.413 184.898 182.837  0.00  0.00    +0.060 HD
ATOM     63  H   ALA A   7     150.642 183.825 184.791  0.00  0.00    +0.149 HD
ATOM     64  H   UNK A   5     146.999 181.377 183.702  0.00  0.00    +0.150 HD
ATOM     65  HA  THR A   4     144.976 179.686 181.511  0.00  0.00    +0.062 HD
ATOM     66  H   THR A   4     147.421 179.044 182.945  0.00  0.00    +0.150 HD
ATOM     67  HA  ALA A   3     147.400 178.241 184.971  0.00  0.00    +0.059 HD
ATOM     68  H   ALA A   3     145.345 178.668 187.017  0.00  0.00    +0.149 HD
ATOM     69  H   UNK A   2     146.667 180.276 188.739  0.00  0.00    +0.060 HD
ATOM     70  H   UNK A   2     147.560 182.424 187.173  0.00  0.00    +0.150 HD
ENDROOT
BRANCH   1  71
ATOM     71  CB  ALA A   7     151.564 185.644 187.506  0.00  0.00    -0.038 C 
ATOM     72  HB1 ALA A   7     151.315 186.592 187.021  0.00  0.00    +0.025 HD
ATOM     73  HB2 ALA A   7     151.266 185.709 188.558  0.00  0.00    +0.025 HD
ATOM     74  HB3 ALA A   7     152.654 185.537 187.493  0.00  0.00    +0.025 HD
ENDBRANCH   1  71
BRANCH  36  75
ATOM     75  CB  ALA A   3     145.831 176.805 185.261  0.00  0.00    -0.038 C 
ATOM     76  HB1 ALA A   3     145.833 176.290 184.293  0.00  0.00    +0.025 HD
ATOM     77  HB2 ALA A   3     144.807 176.773 185.649  0.00  0.00    +0.025 HD
ATOM     78  HB3 ALA A   3     146.473 176.235 185.941  0.00  0.00    +0.025 HD
ENDBRANCH  36  75
BRANCH  40  79
ATOM     79  C   UNK A   2     144.759 181.118 188.017  0.00  0.00    +0.005 C 
ATOM     80  H   UNK A   2     144.314 180.945 187.026  0.00  0.00    +0.032 HD
ATOM     81  H   UNK A   2     144.528 182.159 188.261  0.00  0.00    +0.032 HD
BRANCH  79  82
ATOM     82  C   UNK A   2     144.050 180.227 189.050  0.00  0.00    +0.088 C 
BRANCH  82  83
ATOM     83  C   UNK A   2     143.096 179.260 188.333  0.00  0.00    -0.034 C 
ATOM     84  H   UNK A   2     143.076 178.281 188.824  0.00  0.00    +0.026 HD
ATOM     85  H   UNK A   2     143.431 179.075 187.306  0.00  0.00    +0.026 HD
ATOM     86  H   UNK A   2     142.076 179.657 188.302  0.00  0.00    +0.026 HD
ENDBRANCH  82  83
BRANCH  82  87
ATOM     87  C   UNK A   2     143.284 181.059 190.102  0.00  0.00    +0.073 C 
ATOM     88  H   UNK A   2     142.569 180.449 190.663  0.00  0.00    +0.059 HD
ATOM     89  H   UNK A   2     142.762 181.900 189.639  0.00  0.00    +0.059 HD
BRANCH  87  90
ATOM     90  O   UNK A   2     144.234 181.629 191.013  0.00  0.00    -0.392 OA
ATOM     91  H   UNK A   2     143.873 182.499 191.265  0.00  0.00    +0.210 HD
ENDBRANCH  87  90
ENDBRANCH  82  87
BRANCH  82  92
ATOM     92  O   UNK A   2     145.025 179.424 189.741  0.00  0.00    -0.387 OA
ATOM     93  H   UNK A   2     144.578 179.188 190.584  0.00  0.00    +0.210 HD
ENDBRANCH  82  92
ENDBRANCH  79  82
ENDBRANCH  40  79
BRANCH  23  94
ATOM     94  OD  HYP A   6     148.225 188.307 183.862  0.00  0.00    -0.390 OA
ATOM     95  HD  HYP A   6     147.358 188.768 183.841  0.00  0.00    +0.210 HD
ENDBRANCH  23  94
BRANCH  32  96
ATOM     96  CB  THR A   4     146.957 179.779 180.560  0.00  0.00    +0.079 C 
ATOM     97  HB  THR A   4     146.704 180.419 179.704  0.00  0.00    +0.061 HD
BRANCH  96  98
ATOM     98  CG2 THR A   4     146.920 178.324 180.107  0.00  0.00    -0.037 C 
ATOM     99 HG21 THR A   4     147.896 178.021 179.711  0.00  0.00    +0.026 HD
ATOM    100 HG22 THR A   4     146.167 178.174 179.327  0.00  0.00    +0.026 HD
ATOM    101 HG23 THR A   4     146.703 177.656 180.947  0.00  0.00    +0.026 HD
ENDBRANCH  96  98
BRANCH  96 102
ATOM    102  OG1 THR A   4     148.312 180.108 180.931  0.00  0.00    -0.390 OA
ATOM    103  HG1 THR A   4     148.286 180.986 181.351  0.00  0.00    +0.210 HD
ENDBRANCH  96 102
ENDBRANCH  32  96
TORSDOF 12
ENDMDL
MODEL 9
REMARK VINA RESULT:      -5.3     17.141     20.354
REMARK  Name = Phalloidin_conf2
REMARK  12 active torsions:
REMARK  status: ('A' for Active; 'I' for Inactive)
REMARK    1  A    between atoms: CB_1  and  CA_2
REMARK    2  A    between atoms: CG_24  and  OD_30
REMARK    3  A    between atoms: CA_34  and  CB_53
REMARK    4  A    between atoms: CA_38  and  CB_52
REMARK    5  A    between atoms: C_42  and  C_46
REMARK    6  A    between atoms: C_46  and  C_47
REMARK    7  A    between atoms: C_47  and  C_48
REMARK    8  A    between atoms: C_47  and  C_49
REMARK    9  A    between atoms: C_47  and  O_51
REMARK   10  A    between atoms: C_49  and  O_50
REMARK   11  A    between atoms: CB_53  and  CG2_54
REMARK   12  A    between atoms: CB_53  and  OG1_55
REMARK                            x       y       z     vdW  Elec       q    Type
REMARK                         _______ _______ _______ _____ _____    ______ ____
ROOT
ATOM      1  CA  ALA A   7     145.518 170.218 185.038  0.00  0.00    +0.097 C 
ATOM      2  C   ALA A   7     145.628 169.639 186.462  0.00  0.00    +0.234 C 
ATOM      3  O   ALA A   7     146.478 168.780 186.709  0.00  0.00    -0.274 OA
ATOM      4  N   UNK A   1     144.794 170.096 187.450  0.00  0.00    -0.302 N 
ATOM      5  C   UNK A   1     144.592 169.344 188.709  0.00  0.00    +0.103 C 
ATOM      6  C   UNK A   1     143.925 167.973 188.430  0.00  0.00    +0.002 C 
ATOM      7  C   UNK A   1     144.029 166.912 189.487  0.00  0.00    -0.006 A 
ATOM      8  C   UNK A   5     144.465 165.610 189.316  0.00  0.00    +0.078 A 
ATOM      9  N   UNK A   5     144.379 164.953 190.507  0.00  0.00    -0.349 N 
ATOM     10  C   UNK A   5     143.879 165.787 191.476  0.00  0.00    +0.048 A 
ATOM     11  C   UNK A   5     143.621 165.536 192.829  0.00  0.00    -0.038 A 
ATOM     12  C   UNK A   5     143.080 166.576 193.589  0.00  0.00    -0.060 A 
ATOM     13  C   UNK A   5     142.802 167.811 193.013  0.00  0.00    -0.061 A 
ATOM     14  C   UNK A   5     143.069 168.044 191.657  0.00  0.00    -0.052 A 
ATOM     15  C   UNK A   5     143.627 167.017 190.866  0.00  0.00    +0.004 A 
ATOM     16  S   UNK A   5     144.986 164.682 187.945  0.00  0.00    -0.105 S 
ATOM     17  C   UNK A   5     146.542 165.520 187.505  0.00  0.00    +0.027 C 
ATOM     18  C   UNK A   5     147.202 165.024 186.209  0.00  0.00    +0.109 C 
ATOM     19  C   UNK A   5     146.959 165.999 185.024  0.00  0.00    +0.237 C 
ATOM     20  O   UNK A   5     147.752 166.911 184.759  0.00  0.00    -0.274 OA
ATOM     21  N   HYP A   6     145.818 165.862 184.261  0.00  0.00    -0.286 N 
ATOM     22  CD  HYP A   6     144.896 164.733 184.240  0.00  0.00    +0.042 C 
ATOM     23  CG  HYP A   6     143.827 165.096 183.205  0.00  0.00    +0.073 C 
ATOM     24  CB  HYP A   6     144.512 166.112 182.296  0.00  0.00    +0.002 C 
ATOM     25  CA  HYP A   6     145.503 166.833 183.212  0.00  0.00    +0.105 C 
ATOM     26  C   HYP A   6     144.887 168.079 183.885  0.00  0.00    +0.234 C 
ATOM     27  O   HYP A   6     143.720 168.109 184.270  0.00  0.00    -0.274 OA
ATOM     28  N   ALA A   7     145.797 169.082 184.149  0.00  0.00    -0.303 N 
ATOM     29  N   UNK A   5     148.655 164.988 186.413  0.00  0.00    -0.302 N 
ATOM     30  C   THR A   4     149.430 163.872 186.233  0.00  0.00    +0.237 C 
ATOM     31  O   THR A   4     148.971 162.810 185.815  0.00  0.00    -0.274 OA
ATOM     32  CA  THR A   4     150.943 164.063 186.477  0.00  0.00    +0.125 C 
ATOM     33  N   THR A   4     151.255 165.318 187.166  0.00  0.00    -0.300 N 
ATOM     34  C   ALA A   3     151.175 165.473 188.529  0.00  0.00    +0.234 C 
ATOM     35  O   ALA A   3     150.833 164.566 189.286  0.00  0.00    -0.274 OA
ATOM     36  CA  ALA A   3     151.502 166.901 189.018  0.00  0.00    +0.097 C 
ATOM     37  N   ALA A   3     150.367 167.412 189.769  0.00  0.00    -0.303 N 
ATOM     38  C   UNK A   2     149.202 167.771 189.139  0.00  0.00    +0.234 C 
ATOM     39  O   UNK A   2     149.076 167.672 187.918  0.00  0.00    -0.274 OA
ATOM     40  C   UNK A   2     148.073 168.291 190.067  0.00  0.00    +0.102 C 
ATOM     41  N   UNK A   2     146.922 168.620 189.232  0.00  0.00    -0.302 N 
ATOM     42  C   UNK A   1     145.816 169.298 189.669  0.00  0.00    +0.234 C 
ATOM     43  O   UNK A   1     145.764 169.790 190.798  0.00  0.00    -0.274 OA
ATOM     44  HA  ALA A   7     146.365 170.903 184.915  0.00  0.00    +0.059 HD
ATOM     45  H   UNK A   1     144.125 170.824 187.239  0.00  0.00    +0.150 HD
ATOM     46  H   UNK A   1     143.853 169.952 189.247  0.00  0.00    +0.060 HD
ATOM     47  H   UNK A   1     144.289 167.567 187.482  0.00  0.00    +0.034 HD
ATOM     48  H   UNK A   1     142.856 168.154 188.245  0.00  0.00    +0.034 HD
ATOM     49  H   UNK A   5     144.627 163.985 190.643  0.00  0.00    +0.166 HD
ATOM     50  H   UNK A   5     143.822 164.567 193.273  0.00  0.00    +0.064 HD
ATOM     51  H   UNK A   5     142.862 166.413 194.643  0.00  0.00    +0.062 HD
ATOM     52  H   UNK A   5     142.376 168.607 193.618  0.00  0.00    +0.062 HD
ATOM     53  H   UNK A   5     142.847 169.016 191.230  0.00  0.00    +0.062 HD
ATOM     54  H   UNK A   5     146.340 166.583 187.434  0.00  0.00    +0.040 HD
ATOM     55  H   UNK A   5     147.216 165.367 188.356  0.00  0.00    +0.040 HD
ATOM     56  H   UNK A   5     146.867 164.020 185.937  0.00  0.00    +0.060 HD
ATOM     57  HD1 HYP A   6     144.470 164.566 185.226  0.00  0.00    +0.049 HD
ATOM     58  HD2 HYP A   6     145.469 163.852 183.930  0.00  0.00    +0.049 HD
ATOM     59  HG  HYP A   6     143.494 164.213 182.652  0.00  0.00    +0.061 HD
ATOM     60  HB1 HYP A   6     143.810 166.795 181.809  0.00  0.00    +0.031 HD
ATOM     61  HB2 HYP A   6     145.072 165.575 181.520  0.00  0.00    +0.031 HD
ATOM     62  HA  HYP A   6     146.406 167.122 182.663  0.00  0.00    +0.060 HD
ATOM     63  H   ALA A   7     146.775 168.792 184.111  0.00  0.00    +0.149 HD
ATOM     64  H   UNK A   5     149.109 165.871 186.655  0.00  0.00    +0.150 HD
ATOM     65  HA  THR A   4     151.249 163.235 187.127  0.00  0.00    +0.062 HD
ATOM     66  H   THR A   4     151.588 166.068 186.570  0.00  0.00    +0.150 HD
ATOM     67  HA  ALA A   3     151.657 167.560 188.156  0.00  0.00    +0.059 HD
ATOM     68  H   ALA A   3     150.383 167.395 190.791  0.00  0.00    +0.149 HD
ATOM     69  H   UNK A   2     148.415 169.226 190.522  0.00  0.00    +0.060 HD
ATOM     70  H   UNK A   2     147.009 168.435 188.228  0.00  0.00    +0.150 HD
ENDROOT
BRANCH   1  71
ATOM     71  CB  ALA A   7     144.238 170.970 184.706  0.00  0.00    -0.038 C 
ATOM     72  HB1 ALA A   7     143.979 170.855 183.649  0.00  0.00    +0.025 HD
ATOM     73  HB2 ALA A   7     143.386 170.635 185.306  0.00  0.00    +0.025 HD
ATOM     74  HB3 ALA A   7     144.364 172.040 184.905  0.00  0.00    +0.025 HD
ENDBRANCH   1  71
BRANCH  36  75
ATOM     75  CB  ALA A   3     152.764 166.881 189.866  0.00  0.00    -0.038 C 
ATOM     76  HB1 ALA A   3     153.548 167.525 189.450  0.00  0.00    +0.025 HD
ATOM     77  HB2 ALA A   3     153.172 165.866 189.932  0.00  0.00    +0.025 HD
ATOM     78  HB3 ALA A   3     152.551 167.231 190.882  0.00  0.00    +0.025 HD
ENDBRANCH  36  75
BRANCH  40  79
ATOM     79  C   UNK A   2     147.697 167.224 191.113  0.00  0.00    +0.005 C 
ATOM     80  H   UNK A   2     148.182 166.275 190.842  0.00  0.00    +0.032 HD
ATOM     81  H   UNK A   2     146.623 167.018 191.096  0.00  0.00    +0.032 HD
BRANCH  79  82
ATOM     82  C   UNK A   2     148.079 167.590 192.557  0.00  0.00    +0.088 C 
BRANCH  82  83
ATOM     83  C   UNK A   2     148.626 169.024 192.601  0.00  0.00    -0.034 C 
ATOM     84  H   UNK A   2     148.209 169.636 191.793  0.00  0.00    +0.026 HD
ATOM     85  H   UNK A   2     149.713 169.030 192.452  0.00  0.00    +0.026 HD
ATOM     86  H   UNK A   2     148.402 169.507 193.558  0.00  0.00    +0.026 HD
ENDBRANCH  82  83
BRANCH  82  87
ATOM     87  C   UNK A   2     149.108 166.602 193.151  0.00  0.00    +0.073 C 
ATOM     88  H   UNK A   2     148.636 165.876 193.819  0.00  0.00    +0.059 HD
ATOM     89  H   UNK A   2     149.901 167.131 193.686  0.00  0.00    +0.059 HD
BRANCH  87  90
ATOM     90  O   UNK A   2     149.748 165.907 192.072  0.00  0.00    -0.392 OA
ATOM     91  H   UNK A   2     149.716 164.961 192.308  0.00  0.00    +0.210 HD
ENDBRANCH  87  90
ENDBRANCH  82  87
BRANCH  82  92
ATOM     92  O   UNK A   2     146.903 167.559 193.387  0.00  0.00    -0.387 OA
ATOM     93  H   UNK A   2     146.736 166.600 193.519  0.00  0.00    +0.210 HD
ENDBRANCH  82  92
ENDBRANCH  79  82
ENDBRANCH  40  79
BRANCH  23  94
ATOM     94  OD  HYP A   6     142.669 165.654 183.819  0.00  0.00    -0.390 OA
ATOM     95  HD  HYP A   6     141.875 165.396 183.300  0.00  0.00    +0.210 HD
ENDBRANCH  23  94
BRANCH  32  96
ATOM     96  CB  THR A   4     151.660 163.996 185.104  0.00  0.00    +0.079 C 
ATOM     97  HB  THR A   4     152.019 162.980 184.893  0.00  0.00    +0.061 HD
BRANCH  96  98
ATOM     98  CG2 THR A   4     152.846 164.953 185.050  0.00  0.00    -0.037 C 
ATOM     99 HG21 THR A   4     153.067 165.346 186.049  0.00  0.00    +0.026 HD
ATOM    100 HG22 THR A   4     152.641 165.795 184.382  0.00  0.00    +0.026 HD
ATOM    101 HG23 THR A   4     153.751 164.438 184.710  0.00  0.00    +0.026 HD
ENDBRANCH  96  98
BRANCH  96 102
ATOM    102  OG1 THR A   4     150.748 164.338 184.039  0.00  0.00    -0.390 OA
ATOM    103  HG1 THR A   4     149.901 163.902 184.240  0.00  0.00    +0.210 HD
ENDBRANCH  96 102
ENDBRANCH  32  96
TORSDOF 12
ENDMDL
MODEL 10
REMARK VINA RESULT:      -5.3     21.173     25.536
REMARK  Name = Phalloidin_conf2
REMARK  12 active torsions:
REMARK  status: ('A' for Active; 'I' for Inactive)
REMARK    1  A    between atoms: CB_1  and  CA_2
REMARK    2  A    between atoms: CG_24  and  OD_30
REMARK    3  A    between atoms: CA_34  and  CB_53
REMARK    4  A    between atoms: CA_38  and  CB_52
REMARK    5  A    between atoms: C_42  and  C_46
REMARK    6  A    between atoms: C_46  and  C_47
REMARK    7  A    between atoms: C_47  and  C_48
REMARK    8  A    between atoms: C_47  and  C_49
REMARK    9  A    between atoms: C_47  and  O_51
REMARK   10  A    between atoms: C_49  and  O_50
REMARK   11  A    between atoms: CB_53  and  CG2_54
REMARK   12  A    between atoms: CB_53  and  OG1_55
REMARK                            x       y       z     vdW  Elec       q    Type
REMARK                         _______ _______ _______ _____ _____    ______ ____
ROOT
ATOM      1  CA  ALA A   7     157.898 158.196 192.284  0.00  0.00    +0.097 C 
ATOM      2  C   ALA A   7     158.001 159.283 191.196  0.00  0.00    +0.234 C 
ATOM      3  O   ALA A   7     157.024 159.534 190.488  0.00  0.00    -0.274 OA
ATOM      4  N   UNK A   1     159.172 159.978 191.037  0.00  0.00    -0.302 N 
ATOM      5  C   UNK A   1     159.459 160.749 189.806  0.00  0.00    +0.103 C 
ATOM      6  C   UNK A   1     159.555 159.809 188.578  0.00  0.00    +0.002 C 
ATOM      7  C   UNK A   1     159.412 160.418 187.213  0.00  0.00    -0.006 A 
ATOM      8  C   UNK A   5     158.556 160.006 186.206  0.00  0.00    +0.078 A 
ATOM      9  N   UNK A   5     158.749 160.793 185.110  0.00  0.00    -0.349 N 
ATOM     10  C   UNK A   5     159.731 161.719 185.356  0.00  0.00    +0.048 A 
ATOM     11  C   UNK A   5     160.254 162.715 184.521  0.00  0.00    -0.038 A 
ATOM     12  C   UNK A   5     161.281 163.513 185.030  0.00  0.00    -0.060 A 
ATOM     13  C   UNK A   5     161.769 163.314 186.317  0.00  0.00    -0.061 A 
ATOM     14  C   UNK A   5     161.231 162.313 187.138  0.00  0.00    -0.052 A 
ATOM     15  C   UNK A   5     160.185 161.498 186.658  0.00  0.00    +0.004 A 
ATOM     16  S   UNK A   5     157.416 158.707 186.048  0.00  0.00    -0.105 S 
ATOM     17  C   UNK A   5     156.148 159.181 187.267  0.00  0.00    +0.027 C 
ATOM     18  C   UNK A   5     155.039 158.141 187.487  0.00  0.00    +0.109 C 
ATOM     19  C   UNK A   5     155.247 157.341 188.802  0.00  0.00    +0.237 C 
ATOM     20  O   UNK A   5     154.744 157.706 189.873  0.00  0.00    -0.274 OA
ATOM     21  N   HYP A   6     156.033 156.207 188.785  0.00  0.00    -0.286 N 
ATOM     22  CD  HYP A   6     156.507 155.475 187.618  0.00  0.00    +0.042 C 
ATOM     23  CG  HYP A   6     157.313 154.296 188.173  0.00  0.00    +0.073 C 
ATOM     24  CB  HYP A   6     156.765 154.096 189.582  0.00  0.00    +0.002 C 
ATOM     25  CA  HYP A   6     156.342 155.497 190.028  0.00  0.00    +0.105 C 
ATOM     26  C   HYP A   6     157.480 156.260 190.742  0.00  0.00    +0.234 C 
ATOM     27  O   HYP A   6     158.655 156.167 190.391  0.00  0.00    -0.274 OA
ATOM     28  N   ALA A   7     157.043 157.157 191.695  0.00  0.00    -0.303 N 
ATOM     29  N   UNK A   5     153.762 158.849 187.641  0.00  0.00    -0.302 N 
ATOM     30  C   THR A   4     152.655 158.617 186.867  0.00  0.00    +0.237 C 
ATOM     31  O   THR A   4     152.622 157.734 186.010  0.00  0.00    -0.274 OA
ATOM     32  CA  THR A   4     151.408 159.457 187.217  0.00  0.00    +0.125 C 
ATOM     33  N   THR A   4     151.709 160.582 188.105  0.00  0.00    -0.300 N 
ATOM     34  C   ALA A   3     152.201 161.786 187.662  0.00  0.00    +0.234 C 
ATOM     35  O   ALA A   3     152.430 162.018 186.476  0.00  0.00    -0.274 OA
ATOM     36  CA  ALA A   3     152.490 162.800 188.790  0.00  0.00    +0.097 C 
ATOM     37  N   ALA A   3     153.887 163.195 188.721  0.00  0.00    -0.303 N 
ATOM     38  C   UNK A   2     154.889 162.330 189.086  0.00  0.00    +0.234 C 
ATOM     39  O   UNK A   2     154.640 161.191 189.482  0.00  0.00    -0.274 OA
ATOM     40  C   UNK A   2     156.331 162.884 188.952  0.00  0.00    +0.102 C 
ATOM     41  N   UNK A   2     157.255 161.837 189.378  0.00  0.00    -0.302 N 
ATOM     42  C   UNK A   1     158.593 162.025 189.594  0.00  0.00    +0.234 C 
ATOM     43  O   UNK A   1     159.104 163.146 189.552  0.00  0.00    -0.274 OA
ATOM     44  HA  ALA A   7     157.312 158.630 193.103  0.00  0.00    +0.059 HD
ATOM     45  H   UNK A   1     159.954 159.784 191.648  0.00  0.00    +0.150 HD
ATOM     46  H   UNK A   1     160.469 161.139 189.985  0.00  0.00    +0.060 HD
ATOM     47  H   UNK A   1     158.838 158.989 188.678  0.00  0.00    +0.034 HD
ATOM     48  H   UNK A   1     160.533 159.308 188.616  0.00  0.00    +0.034 HD
ATOM     49  H   UNK A   5     158.253 160.686 184.238  0.00  0.00    +0.166 HD
ATOM     50  H   UNK A   5     159.884 162.859 183.512  0.00  0.00    +0.064 HD
ATOM     51  H   UNK A   5     161.713 164.292 184.406  0.00  0.00    +0.062 HD
ATOM     52  H   UNK A   5     162.573 163.940 186.695  0.00  0.00    +0.062 HD
ATOM     53  H   UNK A   5     161.626 162.178 188.140  0.00  0.00    +0.062 HD
ATOM     54  H   UNK A   5     156.649 159.393 188.205  0.00  0.00    +0.040 HD
ATOM     55  H   UNK A   5     155.719 160.122 186.902  0.00  0.00    +0.040 HD
ATOM     56  H   UNK A   5     154.951 157.451 186.644  0.00  0.00    +0.060 HD
ATOM     57  HD1 HYP A   6     157.109 156.116 186.980  0.00  0.00    +0.049 HD
ATOM     58  HD2 HYP A   6     155.623 155.132 187.069  0.00  0.00    +0.049 HD
ATOM     59  HG  HYP A   6     157.185 153.403 187.554  0.00  0.00    +0.061 HD
ATOM     60  HB1 HYP A   6     157.488 153.635 190.263  0.00  0.00    +0.031 HD
ATOM     61  HB2 HYP A   6     155.875 153.456 189.532  0.00  0.00    +0.031 HD
ATOM     62  HA  HYP A   6     155.464 155.453 190.681  0.00  0.00    +0.060 HD
ATOM     63  H   ALA A   7     156.052 157.394 191.635  0.00  0.00    +0.149 HD
ATOM     64  H   UNK A   5     153.696 159.517 188.411  0.00  0.00    +0.150 HD
ATOM     65  HA  THR A   4     151.043 159.864 186.267  0.00  0.00    +0.062 HD
ATOM     66  H   THR A   4     151.482 160.435 189.083  0.00  0.00    +0.150 HD
ATOM     67  HA  ALA A   3     152.324 162.326 189.764  0.00  0.00    +0.059 HD
ATOM     68  H   ALA A   3     154.145 164.083 188.284  0.00  0.00    +0.149 HD
ATOM     69  H   UNK A   2     156.441 163.713 189.659  0.00  0.00    +0.060 HD
ATOM     70  H   UNK A   2     156.845 160.938 189.648  0.00  0.00    +0.150 HD
ENDROOT
BRANCH   1  71
ATOM     71  CB  ALA A   7     159.209 157.676 192.853  0.00  0.00    -0.038 C 
ATOM     72  HB1 ALA A   7     159.322 156.605 192.661  0.00  0.00    +0.025 HD
ATOM     73  HB2 ALA A   7     160.081 158.192 192.439  0.00  0.00    +0.025 HD
ATOM     74  HB3 ALA A   7     159.239 157.826 193.938  0.00  0.00    +0.025 HD
ENDBRANCH   1  71
BRANCH  36  75
ATOM     75  CB  ALA A   3     151.567 164.001 188.654  0.00  0.00    -0.038 C 
ATOM     76  HB1 ALA A   3     151.937 164.721 187.914  0.00  0.00    +0.025 HD
ATOM     77  HB2 ALA A   3     151.473 164.529 189.610  0.00  0.00    +0.025 HD
ATOM     78  HB3 ALA A   3     150.567 163.685 188.338  0.00  0.00    +0.025 HD
ENDBRANCH  36  75
BRANCH  40  79
ATOM     79  C   UNK A   2     156.619 163.302 187.497  0.00  0.00    +0.005 C 
ATOM     80  H   UNK A   2     155.775 162.989 186.865  0.00  0.00    +0.032 HD
ATOM     81  H   UNK A   2     157.491 162.773 187.102  0.00  0.00    +0.032 HD
BRANCH  79  82
ATOM     82  C   UNK A   2     156.859 164.809 187.306  0.00  0.00    +0.088 C 
BRANCH  82  83
ATOM     83  C   UNK A   2     158.271 165.042 186.748  0.00  0.00    -0.034 C 
ATOM     84  H   UNK A   2     158.441 164.458 185.836  0.00  0.00    +0.026 HD
ATOM     85  H   UNK A   2     159.031 164.709 187.464  0.00  0.00    +0.026 HD
ATOM     86  H   UNK A   2     158.441 166.100 186.524  0.00  0.00    +0.026 HD
ENDBRANCH  82  83
BRANCH  82  87
ATOM     87  C   UNK A   2     156.663 165.597 188.620  0.00  0.00    +0.073 C 
ATOM     88  H   UNK A   2     157.579 166.109 188.929  0.00  0.00    +0.059 HD
ATOM     89  H   UNK A   2     156.321 164.943 189.427  0.00  0.00    +0.059 HD
BRANCH  87  90
ATOM     90  O   UNK A   2     155.624 166.565 188.421  0.00  0.00    -0.392 OA
ATOM     91  H   UNK A   2     155.431 166.556 187.464  0.00  0.00    +0.210 HD
ENDBRANCH  87  90
ENDBRANCH  82  87
BRANCH  82  92
ATOM     92  O   UNK A   2     155.929 165.324 186.335  0.00  0.00    -0.387 OA
ATOM     93  H   UNK A   2     155.895 166.286 186.533  0.00  0.00    +0.210 HD
ENDBRANCH  82  92
ENDBRANCH  79  82
ENDBRANCH  40  79
BRANCH  23  94
ATOM     94  OD  HYP A   6     158.708 154.579 188.198  0.00  0.00    -0.390 OA
ATOM     95  HD  HYP A   6     159.096 154.359 187.322  0.00  0.00    +0.210 HD
ENDBRANCH  23  94
BRANCH  32  96
ATOM     96  CB  THR A   4     150.362 158.511 187.862  0.00  0.00    +0.079 C 
ATOM     97  HB  THR A   4     149.688 158.090 187.105  0.00  0.00    +0.061 HD
BRANCH  96  98
ATOM     98  CG2 THR A   4     149.525 159.240 188.907  0.00  0.00    -0.037 C 
ATOM     99 HG21 THR A   4     149.333 158.589 189.767  0.00  0.00    +0.026 HD
ATOM    100 HG22 THR A   4     148.564 159.557 188.490  0.00  0.00    +0.026 HD
ATOM    101 HG23 THR A   4     150.054 160.118 189.293  0.00  0.00    +0.026 HD
ENDBRANCH  96  98
BRANCH  96 102
ATOM    102  OG1 THR A   4     151.015 157.393 188.499  0.00  0.00    -0.390 OA
ATOM    103  HG1 THR A   4     151.121 156.702 187.821  0.00  0.00    +0.210 HD
ENDBRANCH  96 102
ENDBRANCH  32  96
TORSDOF 12
ENDMDL
