MODEL 1
REMARK VINA RESULT:      -6.3      0.000      0.000
REMARK  Name = Phalloidin_conf1
REMARK  12 active torsions:
REMARK  status: ('A' for Active; 'I' for Inactive)
REMARK    1  A    between atoms: CB_1  and  CA_2
REMARK    2  A    between atoms: CG_24  and  OD_30
REMARK    3  A    between atoms: CA_34  and  CB_53
REMARK    4  A    between atoms: CA_38  and  CB_52
REMARK    5  A    between atoms: C_42  and  C_46
REMARK    6  A    between atoms: C_46  and  C_47
REMARK    7  A    between atoms: C_47  and  C_48
REMARK    8  A    between atoms: C_47  and  C_49
REMARK    9  A    between atoms: C_47  and  O_51
REMARK   10  A    between atoms: C_49  and  O_50
REMARK   11  A    between atoms: CB_53  and  CG2_54
REMARK   12  A    between atoms: CB_53  and  OG1_55
REMARK                            x       y       z     vdW  Elec       q    Type
REMARK                         _______ _______ _______ _____ _____    ______ ____
ROOT
ATOM      1  CA  ALA A   7     146.750 165.088 185.712  0.00  0.00    +0.097 C 
ATOM      2  C   ALA A   7     145.559 166.000 185.354  0.00  0.00    +0.234 C 
ATOM      3  O   ALA A   7     144.928 165.872 184.303  0.00  0.00    -0.274 OA
ATOM      4  N   UNK A   1     145.180 166.879 186.342  0.00  0.00    -0.302 N 
ATOM      5  C   UNK A   1     143.949 167.669 186.278  0.00  0.00    +0.103 C 
ATOM      6  C   UNK A   1     143.231 167.732 187.638  0.00  0.00    +0.002 C 
ATOM      7  C   UNK A   1     143.270 166.462 188.448  0.00  0.00    -0.006 A 
ATOM      8  C   UNK A   5     143.731 166.328 189.742  0.00  0.00    +0.078 A 
ATOM      9  N   UNK A   5     143.547 165.036 190.144  0.00  0.00    -0.349 N 
ATOM     10  C   UNK A   5     143.043 164.285 189.112  0.00  0.00    +0.048 A 
ATOM     11  C   UNK A   5     142.742 162.919 189.056  0.00  0.00    -0.038 A 
ATOM     12  C   UNK A   5     142.217 162.419 187.861  0.00  0.00    -0.060 A 
ATOM     13  C   UNK A   5     141.993 163.257 186.773  0.00  0.00    -0.061 A 
ATOM     14  C   UNK A   5     142.288 164.623 186.851  0.00  0.00    -0.052 A 
ATOM     15  C   UNK A   5     142.835 165.155 188.038  0.00  0.00    +0.004 A 
ATOM     16  S   UNK A   5     144.368 167.484 190.864  0.00  0.00    -0.105 S 
ATOM     17  C   UNK A   5     146.026 166.814 191.232  0.00  0.00    +0.027 C 
ATOM     18  C   UNK A   5     147.200 167.727 190.861  0.00  0.00    +0.109 C 
ATOM     19  C   UNK A   5     147.493 167.702 189.342  0.00  0.00    +0.237 C 
ATOM     20  O   UNK A   5     146.770 168.283 188.524  0.00  0.00    -0.274 OA
ATOM     21  N   HYP A   6     148.636 167.051 188.926  0.00  0.00    -0.286 N 
ATOM     22  CD  HYP A   6     149.550 166.257 189.740  0.00  0.00    +0.042 C 
ATOM     23  CG  HYP A   6     150.501 165.629 188.724  0.00  0.00    +0.073 C 
ATOM     24  CB  HYP A   6     150.622 166.713 187.658  0.00  0.00    +0.002 C 
ATOM     25  CA  HYP A   6     149.219 167.332 187.608  0.00  0.00    +0.105 C 
ATOM     26  C   HYP A   6     148.422 166.765 186.425  0.00  0.00    +0.234 C 
ATOM     27  O   HYP A   6     148.576 167.185 185.282  0.00  0.00    -0.274 OA
ATOM     28  N   ALA A   7     147.599 165.708 186.724  0.00  0.00    -0.303 N 
ATOM     29  N   UNK A   5     147.034 169.127 191.224  0.00  0.00    -0.302 N 
ATOM     30  C   THR A   4     148.129 169.962 191.300  0.00  0.00    +0.237 C 
ATOM     31  O   THR A   4     149.277 169.517 191.337  0.00  0.00    -0.274 OA
ATOM     32  CA  THR A   4     147.797 171.469 191.354  0.00  0.00    +0.125 C 
ATOM     33  N   THR A   4     147.048 171.835 190.143  0.00  0.00    -0.300 N 
ATOM     34  C   ALA A   3     145.693 171.640 190.014  0.00  0.00    +0.234 C 
ATOM     35  O   ALA A   3     145.042 171.089 190.899  0.00  0.00    -0.274 OA
ATOM     36  CA  ALA A   3     145.106 172.142 188.687  0.00  0.00    +0.097 C 
ATOM     37  N   ALA A   3     145.621 171.331 187.589  0.00  0.00    -0.303 N 
ATOM     38  C   UNK A   2     145.662 171.826 186.298  0.00  0.00    +0.234 C 
ATOM     39  O   UNK A   2     145.576 173.033 186.073  0.00  0.00    -0.274 OA
ATOM     40  C   UNK A   2     145.979 170.773 185.198  0.00  0.00    +0.102 C 
ATOM     41  N   UNK A   2     145.519 169.448 185.605  0.00  0.00    -0.302 N 
ATOM     42  C   UNK A   1     144.199 169.117 185.809  0.00  0.00    +0.234 C 
ATOM     43  O   UNK A   1     143.280 169.925 185.690  0.00  0.00    -0.274 OA
ATOM     44  HA  ALA A   7     147.344 164.944 184.802  0.00  0.00    +0.059 HD
ATOM     45  H   UNK A   1     145.797 167.027 187.137  0.00  0.00    +0.150 HD
ATOM     46  H   UNK A   1     143.287 167.216 185.532  0.00  0.00    +0.060 HD
ATOM     47  H   UNK A   1     143.663 168.549 188.230  0.00  0.00    +0.034 HD
ATOM     48  H   UNK A   1     142.180 168.012 187.480  0.00  0.00    +0.034 HD
ATOM     49  H   UNK A   5     143.737 164.689 191.072  0.00  0.00    +0.166 HD
ATOM     50  H   UNK A   5     142.904 162.264 189.905  0.00  0.00    +0.064 HD
ATOM     51  H   UNK A   5     141.974 161.361 187.784  0.00  0.00    +0.062 HD
ATOM     52  H   UNK A   5     141.580 162.851 185.853  0.00  0.00    +0.062 HD
ATOM     53  H   UNK A   5     142.101 165.257 185.989  0.00  0.00    +0.062 HD
ATOM     54  H   UNK A   5     146.040 166.658 192.317  0.00  0.00    +0.040 HD
ATOM     55  H   UNK A   5     146.159 165.830 190.768  0.00  0.00    +0.040 HD
ATOM     56  H   UNK A   5     148.072 167.363 191.409  0.00  0.00    +0.060 HD
ATOM     57  HD1 HYP A   6     148.985 165.524 190.324  0.00  0.00    +0.049 HD
ATOM     58  HD2 HYP A   6     150.083 166.940 190.407  0.00  0.00    +0.049 HD
ATOM     59  HG  HYP A   6     151.460 165.347 189.169  0.00  0.00    +0.061 HD
ATOM     60  HB1 HYP A   6     151.340 167.473 187.992  0.00  0.00    +0.031 HD
ATOM     61  HB2 HYP A   6     150.952 166.323 186.691  0.00  0.00    +0.031 HD
ATOM     62  HA  HYP A   6     149.265 168.419 187.469  0.00  0.00    +0.060 HD
ATOM     63  H   ALA A   7     147.653 165.306 187.656  0.00  0.00    +0.149 HD
ATOM     64  H   UNK A   5     146.100 169.543 191.170  0.00  0.00    +0.150 HD
ATOM     65  HA  THR A   4     147.146 171.653 192.218  0.00  0.00    +0.062 HD
ATOM     66  H   THR A   4     147.553 172.277 189.380  0.00  0.00    +0.150 HD
ATOM     67  HA  ALA A   3     145.431 173.180 188.548  0.00  0.00    +0.059 HD
ATOM     68  H   ALA A   3     145.778 170.336 187.725  0.00  0.00    +0.149 HD
ATOM     69  H   UNK A   2     147.073 170.707 185.177  0.00  0.00    +0.060 HD
ATOM     70  H   UNK A   2     146.163 168.672 185.462  0.00  0.00    +0.150 HD
ENDROOT
BRANCH   1  71
ATOM     71  CB  ALA A   7     146.219 163.754 186.221  0.00  0.00    -0.038 C 
ATOM     72  HB1 ALA A   7     145.556 163.894 187.082  0.00  0.00    +0.025 HD
ATOM     73  HB2 ALA A   7     145.664 163.232 185.437  0.00  0.00    +0.025 HD
ATOM     74  HB3 ALA A   7     147.042 163.103 186.533  0.00  0.00    +0.025 HD
ENDBRANCH   1  71
BRANCH  36  75
ATOM     75  CB  ALA A   3     143.582 172.101 188.711  0.00  0.00    -0.038 C 
ATOM     76  HB1 ALA A   3     143.191 172.574 189.618  0.00  0.00    +0.025 HD
ATOM     77  HB2 ALA A   3     143.156 172.633 187.852  0.00  0.00    +0.025 HD
ATOM     78  HB3 ALA A   3     143.216 171.070 188.680  0.00  0.00    +0.025 HD
ENDBRANCH  36  75
BRANCH  40  79
ATOM     79  C   UNK A   2     145.468 171.242 183.826  0.00  0.00    +0.005 C 
ATOM     80  H   UNK A   2     145.867 172.255 183.670  0.00  0.00    +0.032 HD
ATOM     81  H   UNK A   2     144.377 171.360 183.845  0.00  0.00    +0.032 HD
BRANCH  79  82
ATOM     82  C   UNK A   2     145.875 170.409 182.592  0.00  0.00    +0.088 C 
BRANCH  82  83
ATOM     83  C   UNK A   2     146.322 171.368 181.479  0.00  0.00    -0.034 C 
ATOM     84  H   UNK A   2     146.560 172.359 181.884  0.00  0.00    +0.026 HD
ATOM     85  H   UNK A   2     147.238 171.009 181.000  0.00  0.00    +0.026 HD
ATOM     86  H   UNK A   2     145.549 171.481 180.711  0.00  0.00    +0.026 HD
ENDBRANCH  82  83
BRANCH  82  87
ATOM     87  C   UNK A   2     144.753 169.504 182.042  0.00  0.00    +0.073 C 
ATOM     88  H   UNK A   2     143.760 169.920 182.244  0.00  0.00    +0.059 HD
ATOM     89  H   UNK A   2     144.859 169.365 180.960  0.00  0.00    +0.059 HD
BRANCH  87  90
ATOM     90  O   UNK A   2     144.857 168.205 182.621  0.00  0.00    -0.392 OA
ATOM     91  H   UNK A   2     144.090 167.696 182.283  0.00  0.00    +0.210 HD
ENDBRANCH  87  90
ENDBRANCH  82  87
BRANCH  82  92
ATOM     92  O   UNK A   2     147.006 169.591 182.926  0.00  0.00    -0.387 OA
ATOM     93  H   UNK A   2     147.662 169.756 182.212  0.00  0.00    +0.210 HD
ENDBRANCH  82  92
ENDBRANCH  79  82
ENDBRANCH  40  79
BRANCH  23  94
ATOM     94  OD  HYP A   6     149.897 164.456 188.178  0.00  0.00    -0.390 OA
ATOM     95  HD  HYP A   6     148.972 164.430 188.489  0.00  0.00    +0.210 HD
ENDBRANCH  23  94
BRANCH  32  96
ATOM     96  CB  THR A   4     149.081 172.321 191.468  0.00  0.00    +0.079 C 
ATOM     97  HB  THR A   4     149.959 171.725 191.184  0.00  0.00    +0.061 HD
BRANCH  96  98
ATOM     98  CG2 THR A   4     149.285 172.889 192.868  0.00  0.00    -0.037 C 
ATOM     99 HG21 THR A   4     149.521 172.082 193.571  0.00  0.00    +0.026 HD
ATOM    100 HG22 THR A   4     148.395 173.413 193.230  0.00  0.00    +0.026 HD
ATOM    101 HG23 THR A   4     150.132 173.581 192.891  0.00  0.00    +0.026 HD
ENDBRANCH  96  98
BRANCH  96 102
ATOM    102  OG1 THR A   4     149.033 173.421 190.544  0.00  0.00    -0.390 OA
ATOM    103  HG1 THR A   4     148.104 173.557 190.286  0.00  0.00    +0.210 HD
ENDBRANCH  96 102
ENDBRANCH  32  96
TORSDOF 12
ENDMDL
MODEL 2
REMARK VINA RESULT:      -5.7      2.712      6.992
REMARK  Name = Phalloidin_conf1
REMARK  12 active torsions:
REMARK  status: ('A' for Active; 'I' for Inactive)
REMARK    1  A    between atoms: CB_1  and  CA_2
REMARK    2  A    between atoms: CG_24  and  OD_30
REMARK    3  A    between atoms: CA_34  and  CB_53
REMARK    4  A    between atoms: CA_38  and  CB_52
REMARK    5  A    between atoms: C_42  and  C_46
REMARK    6  A    between atoms: C_46  and  C_47
REMARK    7  A    between atoms: C_47  and  C_48
REMARK    8  A    between atoms: C_47  and  C_49
REMARK    9  A    between atoms: C_47  and  O_51
REMARK   10  A    between atoms: C_49  and  O_50
REMARK   11  A    between atoms: CB_53  and  CG2_54
REMARK   12  A    between atoms: CB_53  and  OG1_55
REMARK                            x       y       z     vdW  Elec       q    Type
REMARK                         _______ _______ _______ _____ _____    ______ ____
ROOT
ATOM      1  CA  ALA A   7     148.197 169.145 190.795  0.00  0.00    +0.097 C 
ATOM      2  C   ALA A   7     148.292 167.699 190.266  0.00  0.00    +0.234 C 
ATOM      3  O   ALA A   7     149.374 167.139 190.081  0.00  0.00    -0.274 OA
ATOM      4  N   UNK A   1     147.089 167.045 190.137  0.00  0.00    -0.302 N 
ATOM      5  C   UNK A   1     146.986 165.611 189.862  0.00  0.00    +0.103 C 
ATOM      6  C   UNK A   1     145.872 164.942 190.687  0.00  0.00    +0.002 C 
ATOM      7  C   UNK A   1     145.719 165.451 192.097  0.00  0.00    -0.006 A 
ATOM      8  C   UNK A   5     144.566 165.951 192.669  0.00  0.00    +0.078 A 
ATOM      9  N   UNK A   5     144.818 166.253 193.976  0.00  0.00    -0.349 N 
ATOM     10  C   UNK A   5     146.142 166.037 194.267  0.00  0.00    +0.048 A 
ATOM     11  C   UNK A   5     146.848 166.248 195.457  0.00  0.00    -0.038 A 
ATOM     12  C   UNK A   5     148.207 165.920 195.473  0.00  0.00    -0.060 A 
ATOM     13  C   UNK A   5     148.826 165.389 194.346  0.00  0.00    -0.061 A 
ATOM     14  C   UNK A   5     148.101 165.172 193.167  0.00  0.00    -0.052 A 
ATOM     15  C   UNK A   5     146.732 165.510 193.115  0.00  0.00    +0.004 A 
ATOM     16  S   UNK A   5     142.962 166.146 192.045  0.00  0.00    -0.105 S 
ATOM     17  C   UNK A   5     142.677 167.940 192.227  0.00  0.00    +0.027 C 
ATOM     18  C   UNK A   5     142.412 168.698 190.922  0.00  0.00    +0.109 C 
ATOM     19  C   UNK A   5     143.715 168.955 190.129  0.00  0.00    +0.237 C 
ATOM     20  O   UNK A   5     144.291 168.057 189.502  0.00  0.00    -0.274 OA
ATOM     21  N   HYP A   6     144.193 170.249 190.093  0.00  0.00    -0.286 N 
ATOM     22  CD  HYP A   6     143.687 171.402 190.830  0.00  0.00    +0.042 C 
ATOM     23  CG  HYP A   6     144.713 172.498 190.554  0.00  0.00    +0.073 C 
ATOM     24  CB  HYP A   6     145.149 172.201 189.123  0.00  0.00    +0.002 C 
ATOM     25  CA  HYP A   6     145.138 170.668 189.050  0.00  0.00    +0.105 C 
ATOM     26  C   HYP A   6     146.557 170.110 189.214  0.00  0.00    +0.234 C 
ATOM     27  O   HYP A   6     147.354 170.082 188.280  0.00  0.00    -0.274 OA
ATOM     28  N   ALA A   7     146.895 169.730 190.489  0.00  0.00    -0.303 N 
ATOM     29  N   UNK A   5     141.493 168.044 190.002  0.00  0.00    -0.302 N 
ATOM     30  C   THR A   4     140.882 168.765 188.997  0.00  0.00    +0.237 C 
ATOM     31  O   THR A   4     140.868 169.996 189.005  0.00  0.00    -0.274 OA
ATOM     32  CA  THR A   4     140.214 167.911 187.897  0.00  0.00    +0.125 C 
ATOM     33  N   THR A   4     141.235 167.061 187.269  0.00  0.00    -0.300 N 
ATOM     34  C   ALA A   3     141.649 165.866 187.809  0.00  0.00    +0.234 C 
ATOM     35  O   ALA A   3     141.217 165.473 188.890  0.00  0.00    -0.274 OA
ATOM     36  CA  ALA A   3     142.686 165.114 186.962  0.00  0.00    +0.097 C 
ATOM     37  N   ALA A   3     143.934 165.869 186.938  0.00  0.00    -0.303 N 
ATOM     38  C   UNK A   2     144.844 165.706 185.909  0.00  0.00    +0.234 C 
ATOM     39  O   UNK A   2     144.517 165.187 184.842  0.00  0.00    -0.274 OA
ATOM     40  C   UNK A   2     146.233 166.364 186.148  0.00  0.00    +0.102 C 
ATOM     41  N   UNK A   2     146.539 166.421 187.575  0.00  0.00    -0.302 N 
ATOM     42  C   UNK A   1     146.713 165.313 188.373  0.00  0.00    +0.234 C 
ATOM     43  O   UNK A   1     146.601 164.163 187.954  0.00  0.00    -0.274 OA
ATOM     44  HA  ALA A   7     148.970 169.736 190.289  0.00  0.00    +0.059 HD
ATOM     45  H   UNK A   1     146.225 167.580 190.192  0.00  0.00    +0.150 HD
ATOM     46  H   UNK A   1     147.949 165.145 190.096  0.00  0.00    +0.060 HD
ATOM     47  H   UNK A   1     144.918 165.059 190.157  0.00  0.00    +0.034 HD
ATOM     48  H   UNK A   1     146.051 163.858 190.726  0.00  0.00    +0.034 HD
ATOM     49  H   UNK A   5     144.126 166.571 194.638  0.00  0.00    +0.166 HD
ATOM     50  H   UNK A   5     146.367 166.650 196.342  0.00  0.00    +0.064 HD
ATOM     51  H   UNK A   5     148.785 166.074 196.381  0.00  0.00    +0.062 HD
ATOM     52  H   UNK A   5     149.883 165.136 194.377  0.00  0.00    +0.062 HD
ATOM     53  H   UNK A   5     148.607 164.754 192.302  0.00  0.00    +0.062 HD
ATOM     54  H   UNK A   5     141.789 168.028 192.864  0.00  0.00    +0.040 HD
ATOM     55  H   UNK A   5     143.504 168.412 192.771  0.00  0.00    +0.040 HD
ATOM     56  H   UNK A   5     141.955 169.653 191.195  0.00  0.00    +0.060 HD
ATOM     57  HD1 HYP A   6     143.588 171.149 191.890  0.00  0.00    +0.049 HD
ATOM     58  HD2 HYP A   6     142.710 171.663 190.413  0.00  0.00    +0.049 HD
ATOM     59  HG  HYP A   6     144.296 173.502 190.682  0.00  0.00    +0.061 HD
ATOM     60  HB1 HYP A   6     144.403 172.602 188.425  0.00  0.00    +0.031 HD
ATOM     61  HB2 HYP A   6     146.124 172.633 188.877  0.00  0.00    +0.031 HD
ATOM     62  HA  HYP A   6     144.767 170.316 188.079  0.00  0.00    +0.060 HD
ATOM     63  H   ALA A   7     146.245 169.941 191.241  0.00  0.00    +0.149 HD
ATOM     64  H   UNK A   5     141.502 167.022 189.940  0.00  0.00    +0.150 HD
ATOM     65  HA  THR A   4     139.473 167.253 188.368  0.00  0.00    +0.062 HD
ATOM     66  H   THR A   4     141.631 167.359 186.381  0.00  0.00    +0.150 HD
ATOM     67  HA  ALA A   3     142.293 165.040 185.940  0.00  0.00    +0.059 HD
ATOM     68  H   ALA A   3     144.234 166.377 187.767  0.00  0.00    +0.149 HD
ATOM     69  H   UNK A   2     146.109 167.408 185.836  0.00  0.00    +0.060 HD
ATOM     70  H   UNK A   2     146.910 167.299 187.933  0.00  0.00    +0.150 HD
ENDROOT
BRANCH   1  71
ATOM     71  CB  ALA A   7     148.427 169.140 192.301  0.00  0.00    -0.038 C 
ATOM     72  HB1 ALA A   7     148.340 168.129 192.711  0.00  0.00    +0.025 HD
ATOM     73  HB2 ALA A   7     149.420 169.530 192.544  0.00  0.00    +0.025 HD
ATOM     74  HB3 ALA A   7     147.690 169.774 192.807  0.00  0.00    +0.025 HD
ENDBRANCH   1  71
BRANCH  36  75
ATOM     75  CB  ALA A   3     142.922 163.709 187.503  0.00  0.00    -0.038 C 
ATOM     76  HB1 ALA A   3     142.570 162.951 186.794  0.00  0.00    +0.025 HD
ATOM     77  HB2 ALA A   3     143.988 163.525 187.681  0.00  0.00    +0.025 HD
ATOM     78  HB3 ALA A   3     142.394 163.559 188.450  0.00  0.00    +0.025 HD
ENDBRANCH  36  75
BRANCH  40  79
ATOM     79  C   UNK A   2     147.312 165.695 185.282  0.00  0.00    +0.005 C 
ATOM     80  H   UNK A   2     146.918 165.663 184.256  0.00  0.00    +0.032 HD
ATOM     81  H   UNK A   2     147.441 164.645 185.576  0.00  0.00    +0.032 HD
BRANCH  79  82
ATOM     82  C   UNK A   2     148.693 166.382 185.207  0.00  0.00    +0.088 C 
BRANCH  82  83
ATOM     83  C   UNK A   2     149.669 165.621 186.115  0.00  0.00    -0.034 C 
ATOM     84  H   UNK A   2     149.703 164.557 185.853  0.00  0.00    +0.026 HD
ATOM     85  H   UNK A   2     150.691 165.996 185.990  0.00  0.00    +0.026 HD
ATOM     86  H   UNK A   2     149.392 165.712 187.170  0.00  0.00    +0.026 HD
ENDBRANCH  82  83
BRANCH  82  87
ATOM     87  C   UNK A   2     148.683 167.867 185.628  0.00  0.00    +0.073 C 
ATOM     88  H   UNK A   2     149.304 168.479 184.966  0.00  0.00    +0.059 HD
ATOM     89  H   UNK A   2     147.664 168.268 185.619  0.00  0.00    +0.059 HD
BRANCH  87  90
ATOM     90  O   UNK A   2     149.147 167.988 186.971  0.00  0.00    -0.392 OA
ATOM     91  H   UNK A   2     148.379 167.773 187.542  0.00  0.00    +0.210 HD
ENDBRANCH  87  90
ENDBRANCH  82  87
BRANCH  82  92
ATOM     92  O   UNK A   2     149.196 166.285 183.866  0.00  0.00    -0.387 OA
ATOM     93  H   UNK A   2     149.589 167.166 183.675  0.00  0.00    +0.210 HD
ENDBRANCH  82  92
ENDBRANCH  79  82
ENDBRANCH  40  79
BRANCH  23  94
ATOM     94  OD  HYP A   6     145.812 172.349 191.453  0.00  0.00    -0.390 OA
ATOM     95  HD  HYP A   6     146.458 173.052 191.246  0.00  0.00    +0.210 HD
ENDBRANCH  23  94
BRANCH  32  96
ATOM     96  CB  THR A   4     139.532 168.803 186.835  0.00  0.00    +0.079 C 
ATOM     97  HB  THR A   4     138.875 169.537 187.319  0.00  0.00    +0.061 HD
BRANCH  96  98
ATOM     98  CG2 THR A   4     138.728 167.996 185.821  0.00  0.00    -0.037 C 
ATOM     99 HG21 THR A   4     139.170 168.098 184.824  0.00  0.00    +0.026 HD
ATOM    100 HG22 THR A   4     137.686 168.322 185.773  0.00  0.00    +0.026 HD
ATOM    101 HG23 THR A   4     138.750 166.928 186.064  0.00  0.00    +0.026 HD
ENDBRANCH  96  98
BRANCH  96 102
ATOM    102  OG1 THR A   4     140.517 169.565 186.117  0.00  0.00    -0.390 OA
ATOM    103  HG1 THR A   4     141.362 169.491 186.596  0.00  0.00    +0.210 HD
ENDBRANCH  96 102
ENDBRANCH  32  96
TORSDOF 12
ENDMDL
MODEL 3
REMARK VINA RESULT:      -5.4      2.343      7.053
REMARK  Name = Phalloidin_conf1
REMARK  12 active torsions:
REMARK  status: ('A' for Active; 'I' for Inactive)
REMARK    1  A    between atoms: CB_1  and  CA_2
REMARK    2  A    between atoms: CG_24  and  OD_30
REMARK    3  A    between atoms: CA_34  and  CB_53
REMARK    4  A    between atoms: CA_38  and  CB_52
REMARK    5  A    between atoms: C_42  and  C_46
REMARK    6  A    between atoms: C_46  and  C_47
REMARK    7  A    between atoms: C_47  and  C_48
REMARK    8  A    between atoms: C_47  and  C_49
REMARK    9  A    between atoms: C_47  and  O_51
REMARK   10  A    between atoms: C_49  and  O_50
REMARK   11  A    between atoms: CB_53  and  CG2_54
REMARK   12  A    between atoms: CB_53  and  OG1_55
REMARK                            x       y       z     vdW  Elec       q    Type
REMARK                         _______ _______ _______ _____ _____    ______ ____
ROOT
ATOM      1  CA  ALA A   7     143.371 171.853 186.492  0.00  0.00    +0.097 C 
ATOM      2  C   ALA A   7     143.379 171.310 187.937  0.00  0.00    +0.234 C 
ATOM      3  O   ALA A   7     142.929 171.959 188.883  0.00  0.00    -0.274 OA
ATOM      4  N   UNK A   1     143.809 170.010 188.069  0.00  0.00    -0.302 N 
ATOM      5  C   UNK A   1     143.685 169.252 189.314  0.00  0.00    +0.103 C 
ATOM      6  C   UNK A   1     143.249 167.797 189.065  0.00  0.00    +0.002 C 
ATOM      7  C   UNK A   1     142.239 167.606 187.963  0.00  0.00    -0.006 A 
ATOM      8  C   UNK A   5     142.369 166.778 186.865  0.00  0.00    +0.078 A 
ATOM      9  N   UNK A   5     141.220 166.838 186.130  0.00  0.00    -0.349 N 
ATOM     10  C   UNK A   5     140.354 167.753 186.676  0.00  0.00    +0.048 A 
ATOM     11  C   UNK A   5     139.091 168.169 186.239  0.00  0.00    -0.038 A 
ATOM     12  C   UNK A   5     138.417 169.118 187.012  0.00  0.00    -0.060 A 
ATOM     13  C   UNK A   5     138.982 169.618 188.181  0.00  0.00    -0.061 A 
ATOM     14  C   UNK A   5     140.241 169.181 188.611  0.00  0.00    -0.052 A 
ATOM     15  C   UNK A   5     140.953 168.236 187.842  0.00  0.00    +0.004 A 
ATOM     16  S   UNK A   5     143.633 165.698 186.379  0.00  0.00    -0.105 S 
ATOM     17  C   UNK A   5     144.101 166.343 184.737  0.00  0.00    +0.027 C 
ATOM     18  C   UNK A   5     145.553 166.816 184.608  0.00  0.00    +0.109 C 
ATOM     19  C   UNK A   5     145.766 168.208 185.248  0.00  0.00    +0.237 C 
ATOM     20  O   UNK A   5     145.813 168.367 186.474  0.00  0.00    -0.274 OA
ATOM     21  N   HYP A   6     145.963 169.276 184.398  0.00  0.00    -0.286 N 
ATOM     22  CD  HYP A   6     145.863 169.280 182.942  0.00  0.00    +0.042 C 
ATOM     23  CG  HYP A   6     145.982 170.755 182.566  0.00  0.00    +0.073 C 
ATOM     24  CB  HYP A   6     146.951 171.294 183.613  0.00  0.00    +0.002 C 
ATOM     25  CA  HYP A   6     146.586 170.514 184.883  0.00  0.00    +0.105 C 
ATOM     26  C   HYP A   6     145.694 171.361 185.799  0.00  0.00    +0.234 C 
ATOM     27  O   HYP A   6     146.160 172.221 186.541  0.00  0.00    -0.274 OA
ATOM     28  N   ALA A   7     144.344 171.149 185.663  0.00  0.00    -0.303 N 
ATOM     29  N   UNK A   5     146.547 165.934 185.202  0.00  0.00    -0.302 N 
ATOM     30  C   THR A   4     147.874 166.033 184.837  0.00  0.00    +0.237 C 
ATOM     31  O   THR A   4     148.221 166.652 183.831  0.00  0.00    -0.274 OA
ATOM     32  CA  THR A   4     148.862 165.297 185.769  0.00  0.00    +0.125 C 
ATOM     33  N   THR A   4     148.737 165.849 187.125  0.00  0.00    -0.300 N 
ATOM     34  C   ALA A   3     147.761 165.451 188.008  0.00  0.00    +0.234 C 
ATOM     35  O   ALA A   3     146.897 164.641 187.678  0.00  0.00    -0.274 OA
ATOM     36  CA  ALA A   3     147.846 166.117 189.389  0.00  0.00    +0.097 C 
ATOM     37  N   ALA A   3     147.558 167.541 189.261  0.00  0.00    -0.303 N 
ATOM     38  C   UNK A   2     148.020 168.448 190.198  0.00  0.00    +0.234 C 
ATOM     39  O   UNK A   2     148.931 168.158 190.973  0.00  0.00    -0.274 OA
ATOM     40  C   UNK A   2     147.418 169.878 190.084  0.00  0.00    +0.102 C 
ATOM     41  N   UNK A   2     146.075 169.829 189.514  0.00  0.00    -0.302 N 
ATOM     42  C   UNK A   1     145.000 169.218 190.120  0.00  0.00    +0.234 C 
ATOM     43  O   UNK A   1     145.084 168.631 191.197  0.00  0.00    -0.274 OA
ATOM     44  HA  ALA A   7     143.652 172.912 186.533  0.00  0.00    +0.059 HD
ATOM     45  H   UNK A   1     144.274 169.560 187.284  0.00  0.00    +0.150 HD
ATOM     46  H   UNK A   1     142.949 169.753 189.952  0.00  0.00    +0.060 HD
ATOM     47  H   UNK A   1     144.139 167.192 188.846  0.00  0.00    +0.034 HD
ATOM     48  H   UNK A   1     142.835 167.378 189.994  0.00  0.00    +0.034 HD
ATOM     49  H   UNK A   5     141.028 166.277 185.314  0.00  0.00    +0.166 HD
ATOM     50  H   UNK A   5     138.642 167.773 185.335  0.00  0.00    +0.064 HD
ATOM     51  H   UNK A   5     137.434 169.465 186.699  0.00  0.00    +0.062 HD
ATOM     52  H   UNK A   5     138.441 170.354 188.773  0.00  0.00    +0.062 HD
ATOM     53  H   UNK A   5     140.659 169.584 189.528  0.00  0.00    +0.062 HD
ATOM     54  H   UNK A   5     143.948 165.507 184.045  0.00  0.00    +0.040 HD
ATOM     55  H   UNK A   5     143.420 167.142 184.425  0.00  0.00    +0.040 HD
ATOM     56  H   UNK A   5     145.778 166.866 183.540  0.00  0.00    +0.060 HD
ATOM     57  HD1 HYP A   6     144.918 168.823 182.635  0.00  0.00    +0.049 HD
ATOM     58  HD2 HYP A   6     146.706 168.705 182.548  0.00  0.00    +0.049 HD
ATOM     59  HG  HYP A   6     146.329 170.897 181.538  0.00  0.00    +0.061 HD
ATOM     60  HB1 HYP A   6     147.979 171.046 183.319  0.00  0.00    +0.031 HD
ATOM     61  HB2 HYP A   6     146.878 172.378 183.742  0.00  0.00    +0.031 HD
ATOM     62  HA  HYP A   6     147.480 170.252 185.463  0.00  0.00    +0.060 HD
ATOM     63  H   ALA A   7     144.026 170.546 184.909  0.00  0.00    +0.149 HD
ATOM     64  H   UNK A   5     146.308 165.430 186.061  0.00  0.00    +0.150 HD
ATOM     65  HA  THR A   4     148.579 164.237 185.811  0.00  0.00    +0.062 HD
ATOM     66  H   THR A   4     149.423 166.535 187.432  0.00  0.00    +0.150 HD
ATOM     67  HA  ALA A   3     148.871 165.992 189.758  0.00  0.00    +0.059 HD
ATOM     68  H   ALA A   3     146.861 167.858 188.591  0.00  0.00    +0.149 HD
ATOM     69  H   UNK A   2     148.035 170.384 189.332  0.00  0.00    +0.060 HD
ATOM     70  H   UNK A   2     145.859 170.504 188.783  0.00  0.00    +0.150 HD
ENDROOT
BRANCH   1  71
ATOM     71  CB  ALA A   7     141.973 171.691 185.909  0.00  0.00    -0.038 C 
ATOM     72  HB1 ALA A   7     141.338 172.548 186.158  0.00  0.00    +0.025 HD
ATOM     73  HB2 ALA A   7     142.015 171.595 184.820  0.00  0.00    +0.025 HD
ATOM     74  HB3 ALA A   7     141.492 170.789 186.301  0.00  0.00    +0.025 HD
ENDBRANCH   1  71
BRANCH  36  75
ATOM     75  CB  ALA A   3     146.883 165.464 190.374  0.00  0.00    -0.038 C 
ATOM     76  HB1 ALA A   3     146.711 166.110 191.241  0.00  0.00    +0.025 HD
ATOM     77  HB2 ALA A   3     145.910 165.268 189.909  0.00  0.00    +0.025 HD
ATOM     78  HB3 ALA A   3     147.279 164.509 190.735  0.00  0.00    +0.025 HD
ENDBRANCH  36  75
BRANCH  40  79
ATOM     79  C   UNK A   2     147.526 170.625 191.422  0.00  0.00    +0.005 C 
ATOM     80  H   UNK A   2     147.736 169.867 192.191  0.00  0.00    +0.032 HD
ATOM     81  H   UNK A   2     146.556 171.057 191.698  0.00  0.00    +0.032 HD
BRANCH  79  82
ATOM     82  C   UNK A   2     148.625 171.703 191.550  0.00  0.00    +0.088 C 
BRANCH  82  83
ATOM     83  C   UNK A   2     148.873 171.976 193.040  0.00  0.00    -0.034 C 
ATOM     84  H   UNK A   2     148.002 171.694 193.643  0.00  0.00    +0.026 HD
ATOM     85  H   UNK A   2     149.708 171.373 193.413  0.00  0.00    +0.026 HD
ATOM     86  H   UNK A   2     149.098 173.032 193.223  0.00  0.00    +0.026 HD
ENDBRANCH  82  83
BRANCH  82  87
ATOM     87  C   UNK A   2     148.285 173.037 190.853  0.00  0.00    +0.073 C 
ATOM     88  H   UNK A   2     147.531 172.905 190.070  0.00  0.00    +0.059 HD
ATOM     89  H   UNK A   2     147.911 173.770 191.577  0.00  0.00    +0.059 HD
BRANCH  87  90
ATOM     90  O   UNK A   2     149.469 173.601 190.292  0.00  0.00    -0.392 OA
ATOM     91  H   UNK A   2     149.299 174.563 190.212  0.00  0.00    +0.210 HD
ENDBRANCH  87  90
ENDBRANCH  82  87
BRANCH  82  92
ATOM     92  O   UNK A   2     149.850 171.194 191.002  0.00  0.00    -0.387 OA
ATOM     93  H   UNK A   2     150.428 171.025 191.779  0.00  0.00    +0.210 HD
ENDBRANCH  82  92
ENDBRANCH  79  82
ENDBRANCH  40  79
BRANCH  23  94
ATOM     94  OD  HYP A   6     144.704 171.378 182.700  0.00  0.00    -0.390 OA
ATOM     95  HD  HYP A   6     144.346 171.129 183.573  0.00  0.00    +0.210 HD
ENDBRANCH  23  94
BRANCH  32  96
ATOM     96  CB  THR A   4     150.315 165.439 185.264  0.00  0.00    +0.079 C 
ATOM     97  HB  THR A   4     150.389 166.260 184.540  0.00  0.00    +0.061 HD
BRANCH  96  98
ATOM     98  CG2 THR A   4     150.843 164.156 184.630  0.00  0.00    -0.037 C 
ATOM     99 HG21 THR A   4     151.872 164.302 184.286  0.00  0.00    +0.026 HD
ATOM    100 HG22 THR A   4     150.234 163.842 183.777  0.00  0.00    +0.026 HD
ATOM    101 HG23 THR A   4     150.870 163.340 185.360  0.00  0.00    +0.026 HD
ENDBRANCH  96  98
BRANCH  96 102
ATOM    102  OG1 THR A   4     151.188 165.789 186.351  0.00  0.00    -0.390 OA
ATOM    103  HG1 THR A   4     151.227 165.031 186.962  0.00  0.00    +0.210 HD
ENDBRANCH  96 102
ENDBRANCH  32  96
TORSDOF 12
ENDMDL
MODEL 4
REMARK VINA RESULT:      -5.4     16.232     20.730
REMARK  Name = Phalloidin_conf1
REMARK  12 active torsions:
REMARK  status: ('A' for Active; 'I' for Inactive)
REMARK    1  A    between atoms: CB_1  and  CA_2
REMARK    2  A    between atoms: CG_24  and  OD_30
REMARK    3  A    between atoms: CA_34  and  CB_53
REMARK    4  A    between atoms: CA_38  and  CB_52
REMARK    5  A    between atoms: C_42  and  C_46
REMARK    6  A    between atoms: C_46  and  C_47
REMARK    7  A    between atoms: C_47  and  C_48
REMARK    8  A    between atoms: C_47  and  C_49
REMARK    9  A    between atoms: C_47  and  O_51
REMARK   10  A    between atoms: C_49  and  O_50
REMARK   11  A    between atoms: CB_53  and  CG2_54
REMARK   12  A    between atoms: CB_53  and  OG1_55
REMARK                            x       y       z     vdW  Elec       q    Type
REMARK                         _______ _______ _______ _____ _____    ______ ____
ROOT
ATOM      1  CA  ALA A   7     134.597 154.390 199.869  0.00  0.00    +0.097 C 
ATOM      2  C   ALA A   7     134.886 153.189 198.945  0.00  0.00    +0.234 C 
ATOM      3  O   ALA A   7     135.493 152.191 199.337  0.00  0.00    -0.274 OA
ATOM      4  N   UNK A   1     134.311 153.262 197.698  0.00  0.00    -0.302 N 
ATOM      5  C   UNK A   1     134.287 152.136 196.763  0.00  0.00    +0.103 C 
ATOM      6  C   UNK A   1     132.934 152.013 196.040  0.00  0.00    +0.002 C 
ATOM      7  C   UNK A   1     131.722 152.319 196.881  0.00  0.00    -0.006 A 
ATOM      8  C   UNK A   5     130.739 153.246 196.598  0.00  0.00    +0.078 A 
ATOM      9  N   UNK A   5     129.783 153.186 197.571  0.00  0.00    -0.349 N 
ATOM     10  C   UNK A   5     130.150 152.289 198.543  0.00  0.00    +0.048 A 
ATOM     11  C   UNK A   5     129.505 151.939 199.735  0.00  0.00    -0.038 A 
ATOM     12  C   UNK A   5     130.110 150.969 200.539  0.00  0.00    -0.060 A 
ATOM     13  C   UNK A   5     131.304 150.367 200.156  0.00  0.00    -0.061 A 
ATOM     14  C   UNK A   5     131.929 150.720 198.954  0.00  0.00    -0.052 A 
ATOM     15  C   UNK A   5     131.352 151.709 198.129  0.00  0.00    +0.004 A 
ATOM     16  S   UNK A   5     130.517 154.315 195.254  0.00  0.00    -0.105 S 
ATOM     17  C   UNK A   5     130.483 155.958 196.049  0.00  0.00    +0.027 C 
ATOM     18  C   UNK A   5     131.586 156.925 195.605  0.00  0.00    +0.109 C 
ATOM     19  C   UNK A   5     132.944 156.597 196.269  0.00  0.00    +0.237 C 
ATOM     20  O   UNK A   5     133.634 155.633 195.915  0.00  0.00    -0.274 OA
ATOM     21  N   HYP A   6     133.399 157.459 197.245  0.00  0.00    -0.286 N 
ATOM     22  CD  HYP A   6     132.687 158.589 197.833  0.00  0.00    +0.042 C 
ATOM     23  CG  HYP A   6     133.587 159.040 198.980  0.00  0.00    +0.073 C 
ATOM     24  CB  HYP A   6     134.987 158.773 198.436  0.00  0.00    +0.002 C 
ATOM     25  CA  HYP A   6     134.819 157.487 197.616  0.00  0.00    +0.105 C 
ATOM     26  C   HYP A   6     135.293 156.270 198.420  0.00  0.00    +0.234 C 
ATOM     27  O   HYP A   6     136.482 155.977 198.512  0.00  0.00    -0.274 OA
ATOM     28  N   ALA A   7     134.307 155.591 199.093  0.00  0.00    -0.303 N 
ATOM     29  N   UNK A   5     131.830 156.968 194.171  0.00  0.00    -0.302 N 
ATOM     30  C   THR A   4     132.500 158.036 193.608  0.00  0.00    +0.237 C 
ATOM     31  O   THR A   4     132.666 159.088 194.226  0.00  0.00    -0.274 OA
ATOM     32  CA  THR A   4     132.992 157.808 192.163  0.00  0.00    +0.125 C 
ATOM     33  N   THR A   4     133.908 156.658 192.148  0.00  0.00    -0.300 N 
ATOM     34  C   ALA A   3     133.472 155.355 192.101  0.00  0.00    +0.234 C 
ATOM     35  O   ALA A   3     132.273 155.084 192.126  0.00  0.00    -0.274 OA
ATOM     36  CA  ALA A   3     134.598 154.313 192.040  0.00  0.00    +0.097 C 
ATOM     37  N   ALA A   3     135.340 154.324 193.295  0.00  0.00    -0.303 N 
ATOM     38  C   UNK A   2     136.647 153.873 193.353  0.00  0.00    +0.234 C 
ATOM     39  O   UNK A   2     137.327 153.752 192.334  0.00  0.00    -0.274 OA
ATOM     40  C   UNK A   2     137.219 153.693 194.788  0.00  0.00    +0.102 C 
ATOM     41  N   UNK A   2     136.151 153.381 195.734  0.00  0.00    -0.302 N 
ATOM     42  C   UNK A   1     135.388 152.236 195.688  0.00  0.00    +0.234 C 
ATOM     43  O   UNK A   1     135.525 151.375 194.821  0.00  0.00    -0.274 OA
ATOM     44  HA  ALA A   7     135.497 154.573 200.468  0.00  0.00    +0.059 HD
ATOM     45  H   UNK A   1     133.919 154.147 197.383  0.00  0.00    +0.150 HD
ATOM     46  H   UNK A   1     134.490 151.217 197.324  0.00  0.00    +0.060 HD
ATOM     47  H   UNK A   1     132.939 152.673 195.163  0.00  0.00    +0.034 HD
ATOM     48  H   UNK A   1     132.830 150.995 195.637  0.00  0.00    +0.034 HD
ATOM     49  H   UNK A   5     128.922 153.712 197.566  0.00  0.00    +0.166 HD
ATOM     50  H   UNK A   5     128.568 152.397 200.031  0.00  0.00    +0.064 HD
ATOM     51  H   UNK A   5     129.635 150.675 201.473  0.00  0.00    +0.062 HD
ATOM     52  H   UNK A   5     131.758 149.611 200.792  0.00  0.00    +0.062 HD
ATOM     53  H   UNK A   5     132.859 150.233 198.676  0.00  0.00    +0.062 HD
ATOM     54  H   UNK A   5     129.514 156.391 195.776  0.00  0.00    +0.040 HD
ATOM     55  H   UNK A   5     130.491 155.861 197.141  0.00  0.00    +0.040 HD
ATOM     56  H   UNK A   5     131.268 157.928 195.898  0.00  0.00    +0.060 HD
ATOM     57  HD1 HYP A   6     131.690 158.271 198.155  0.00  0.00    +0.049 HD
ATOM     58  HD2 HYP A   6     132.605 159.367 197.068  0.00  0.00    +0.049 HD
ATOM     59  HG  HYP A   6     133.419 160.086 199.255  0.00  0.00    +0.061 HD
ATOM     60  HB1 HYP A   6     135.280 159.593 197.767  0.00  0.00    +0.031 HD
ATOM     61  HB2 HYP A   6     135.739 158.681 199.225  0.00  0.00    +0.031 HD
ATOM     62  HA  HYP A   6     135.421 157.516 196.698  0.00  0.00    +0.060 HD
ATOM     63  H   ALA A   7     133.373 155.991 199.108  0.00  0.00    +0.149 HD
ATOM     64  H   UNK A   5     131.738 156.104 193.628  0.00  0.00    +0.150 HD
ATOM     65  HA  THR A   4     132.128 157.556 191.535  0.00  0.00    +0.062 HD
ATOM     66  H   THR A   4     134.909 156.839 192.143  0.00  0.00    +0.150 HD
ATOM     67  HA  ALA A   3     135.272 154.596 191.223  0.00  0.00    +0.059 HD
ATOM     68  H   ALA A   3     134.850 154.485 194.172  0.00  0.00    +0.149 HD
ATOM     69  H   UNK A   2     137.580 154.688 195.075  0.00  0.00    +0.060 HD
ATOM     70  H   UNK A   2     136.154 153.887 196.617  0.00  0.00    +0.150 HD
ENDROOT
BRANCH   1  71
ATOM     71  CB  ALA A   7     133.415 154.052 200.769  0.00  0.00    -0.038 C 
ATOM     72  HB1 ALA A   7     132.518 153.832 200.180  0.00  0.00    +0.025 HD
ATOM     73  HB2 ALA A   7     133.640 153.184 201.396  0.00  0.00    +0.025 HD
ATOM     74  HB3 ALA A   7     133.184 154.889 201.435  0.00  0.00    +0.025 HD
ENDBRANCH   1  71
BRANCH  36  75
ATOM     75  CB  ALA A   3     134.043 152.921 191.761  0.00  0.00    -0.038 C 
ATOM     76  HB1 ALA A   3     134.697 152.147 192.175  0.00  0.00    +0.025 HD
ATOM     77  HB2 ALA A   3     133.051 152.790 192.210  0.00  0.00    +0.025 HD
ATOM     78  HB3 ALA A   3     133.946 152.745 190.684  0.00  0.00    +0.025 HD
ENDBRANCH  36  75
BRANCH  40  79
ATOM     79  C   UNK A   2     138.394 152.702 194.789  0.00  0.00    +0.005 C 
ATOM     80  H   UNK A   2     138.339 152.147 193.841  0.00  0.00    +0.032 HD
ATOM     81  H   UNK A   2     138.258 151.949 195.575  0.00  0.00    +0.032 HD
BRANCH  79  82
ATOM     82  C   UNK A   2     139.819 153.289 194.879  0.00  0.00    +0.088 C 
BRANCH  82  83
ATOM     83  C   UNK A   2     139.734 154.691 195.498  0.00  0.00    -0.034 C 
ATOM     84  H   UNK A   2     140.148 154.700 196.513  0.00  0.00    +0.026 HD
ATOM     85  H   UNK A   2     140.330 155.408 194.922  0.00  0.00    +0.026 HD
ATOM     86  H   UNK A   2     138.701 155.051 195.538  0.00  0.00    +0.026 HD
ENDBRANCH  82  83
BRANCH  82  87
ATOM     87  C   UNK A   2     140.548 153.391 193.522  0.00  0.00    +0.073 C 
ATOM     88  H   UNK A   2     140.801 152.403 193.123  0.00  0.00    +0.059 HD
ATOM     89  H   UNK A   2     139.928 153.916 192.786  0.00  0.00    +0.059 HD
BRANCH  87  90
ATOM     90  O   UNK A   2     141.734 154.169 193.672  0.00  0.00    -0.392 OA
ATOM     91  H   UNK A   2     142.477 153.529 193.686  0.00  0.00    +0.210 HD
ENDBRANCH  87  90
ENDBRANCH  82  87
BRANCH  82  92
ATOM     92  O   UNK A   2     140.607 152.480 195.767  0.00  0.00    -0.387 OA
ATOM     93  H   UNK A   2     141.271 153.095 196.151  0.00  0.00    +0.210 HD
ENDBRANCH  82  92
ENDBRANCH  79  82
ENDBRANCH  40  79
BRANCH  23  94
ATOM     94  OD  HYP A   6     133.332 158.226 200.125  0.00  0.00    -0.390 OA
ATOM     95  HD  HYP A   6     132.486 158.522 200.512  0.00  0.00    +0.210 HD
ENDBRANCH  23  94
BRANCH  32  96
ATOM     96  CB  THR A   4     133.701 159.065 191.610  0.00  0.00    +0.079 C 
ATOM     97  HB  THR A   4     133.056 159.946 191.723  0.00  0.00    +0.061 HD
BRANCH  96  98
ATOM     98  CG2 THR A   4     134.102 158.914 190.146  0.00  0.00    -0.037 C 
ATOM     99 HG21 THR A   4     133.248 159.136 189.497  0.00  0.00    +0.026 HD
ATOM    100 HG22 THR A   4     134.454 157.904 189.921  0.00  0.00    +0.026 HD
ATOM    101 HG23 THR A   4     134.890 159.627 189.880  0.00  0.00    +0.026 HD
ENDBRANCH  96  98
BRANCH  96 102
ATOM    102  OG1 THR A   4     134.889 159.343 192.371  0.00  0.00    -0.390 OA
ATOM    103  HG1 THR A   4     135.057 158.581 192.954  0.00  0.00    +0.210 HD
ENDBRANCH  96 102
ENDBRANCH  32  96
TORSDOF 12
ENDMDL
MODEL 5
REMARK VINA RESULT:      -5.3      2.955      7.115
REMARK  Name = Phalloidin_conf1
REMARK  12 active torsions:
REMARK  status: ('A' for Active; 'I' for Inactive)
REMARK    1  A    between atoms: CB_1  and  CA_2
REMARK    2  A    between atoms: CG_24  and  OD_30
REMARK    3  A    between atoms: CA_34  and  CB_53
REMARK    4  A    between atoms: CA_38  and  CB_52
REMARK    5  A    between atoms: C_42  and  C_46
REMARK    6  A    between atoms: C_46  and  C_47
REMARK    7  A    between atoms: C_47  and  C_48
REMARK    8  A    between atoms: C_47  and  C_49
REMARK    9  A    between atoms: C_47  and  O_51
REMARK   10  A    between atoms: C_49  and  O_50
REMARK   11  A    between atoms: CB_53  and  CG2_54
REMARK   12  A    between atoms: CB_53  and  OG1_55
REMARK                            x       y       z     vdW  Elec       q    Type
REMARK                         _______ _______ _______ _____ _____    ______ ____
ROOT
ATOM      1  CA  ALA A   7     145.865 164.988 185.427  0.00  0.00    +0.097 C 
ATOM      2  C   ALA A   7     147.295 165.537 185.244  0.00  0.00    +0.234 C 
ATOM      3  O   ALA A   7     147.916 165.410 184.187  0.00  0.00    -0.274 OA
ATOM      4  N   UNK A   1     147.774 166.281 186.297  0.00  0.00    -0.302 N 
ATOM      5  C   UNK A   1     149.010 167.061 186.227  0.00  0.00    +0.103 C 
ATOM      6  C   UNK A   1     148.867 168.434 186.909  0.00  0.00    +0.002 C 
ATOM      7  C   UNK A   1     147.536 169.113 186.719  0.00  0.00    -0.006 A 
ATOM      8  C   UNK A   5     146.696 169.566 187.717  0.00  0.00    +0.078 A 
ATOM      9  N   UNK A   5     145.617 170.174 187.142  0.00  0.00    -0.349 N 
ATOM     10  C   UNK A   5     145.682 170.066 185.776  0.00  0.00    +0.048 A 
ATOM     11  C   UNK A   5     144.783 170.499 184.794  0.00  0.00    -0.038 A 
ATOM     12  C   UNK A   5     145.120 170.265 183.458  0.00  0.00    -0.060 A 
ATOM     13  C   UNK A   5     146.313 169.635 183.121  0.00  0.00    -0.061 A 
ATOM     14  C   UNK A   5     147.207 169.219 184.116  0.00  0.00    -0.052 A 
ATOM     15  C   UNK A   5     146.888 169.426 185.475  0.00  0.00    +0.004 A 
ATOM     16  S   UNK A   5     146.846 169.556 189.442  0.00  0.00    -0.105 S 
ATOM     17  C   UNK A   5     145.377 168.609 189.968  0.00  0.00    +0.027 C 
ATOM     18  C   UNK A   5     145.670 167.317 190.738  0.00  0.00    +0.109 C 
ATOM     19  C   UNK A   5     146.110 166.171 189.798  0.00  0.00    +0.237 C 
ATOM     20  O   UNK A   5     147.237 166.134 189.289  0.00  0.00    -0.274 OA
ATOM     21  N   HYP A   6     145.215 165.143 189.586  0.00  0.00    -0.286 N 
ATOM     22  CD  HYP A   6     143.831 165.065 190.040  0.00  0.00    +0.042 C 
ATOM     23  CG  HYP A   6     143.283 163.818 189.351  0.00  0.00    +0.073 C 
ATOM     24  CB  HYP A   6     144.494 162.891 189.318  0.00  0.00    +0.002 C 
ATOM     25  CA  HYP A   6     145.674 163.842 189.084  0.00  0.00    +0.105 C 
ATOM     26  C   HYP A   6     146.085 163.838 187.606  0.00  0.00    +0.234 C 
ATOM     27  O   HYP A   6     146.792 162.951 187.133  0.00  0.00    -0.274 OA
ATOM     28  N   ALA A   7     145.539 164.839 186.841  0.00  0.00    -0.303 N 
ATOM     29  N   UNK A   5     146.699 167.427 191.762  0.00  0.00    -0.302 N 
ATOM     30  C   THR A   4     146.793 166.481 192.762  0.00  0.00    +0.237 C 
ATOM     31  O   THR A   4     145.876 165.690 192.987  0.00  0.00    -0.274 OA
ATOM     32  CA  THR A   4     148.109 166.513 193.569  0.00  0.00    +0.125 C 
ATOM     33  N   THR A   4     149.236 166.295 192.650  0.00  0.00    -0.300 N 
ATOM     34  C   ALA A   3     149.789 167.300 191.893  0.00  0.00    +0.234 C 
ATOM     35  O   ALA A   3     149.323 168.437 191.907  0.00  0.00    -0.274 OA
ATOM     36  CA  ALA A   3     150.990 166.863 191.042  0.00  0.00    +0.097 C 
ATOM     37  N   ALA A   3     150.544 165.935 190.009  0.00  0.00    -0.303 N 
ATOM     38  C   UNK A   2     151.421 165.034 189.435  0.00  0.00    +0.234 C 
ATOM     39  O   UNK A   2     152.495 164.756 189.970  0.00  0.00    -0.274 OA
ATOM     40  C   UNK A   2     150.881 164.299 188.174  0.00  0.00    +0.102 C 
ATOM     41  N   UNK A   2     149.907 165.130 187.471  0.00  0.00    -0.302 N 
ATOM     42  C   UNK A   1     150.206 166.335 186.876  0.00  0.00    +0.234 C 
ATOM     43  O   UNK A   1     151.328 166.836 186.906  0.00  0.00    -0.274 OA
ATOM     44  HA  ALA A   7     145.827 163.998 184.956  0.00  0.00    +0.059 HD
ATOM     45  H   UNK A   1     147.276 166.261 187.185  0.00  0.00    +0.150 HD
ATOM     46  H   UNK A   1     149.271 167.199 185.172  0.00  0.00    +0.060 HD
ATOM     47  H   UNK A   1     149.062 168.319 187.983  0.00  0.00    +0.034 HD
ATOM     48  H   UNK A   1     149.657 169.105 186.540  0.00  0.00    +0.034 HD
ATOM     49  H   UNK A   5     144.886 170.650 187.650  0.00  0.00    +0.166 HD
ATOM     50  H   UNK A   5     143.858 171.002 185.051  0.00  0.00    +0.064 HD
ATOM     51  H   UNK A   5     144.442 170.588 182.670  0.00  0.00    +0.062 HD
ATOM     52  H   UNK A   5     146.560 169.464 182.076  0.00  0.00    +0.062 HD
ATOM     53  H   UNK A   5     148.134 168.731 183.828  0.00  0.00    +0.062 HD
ATOM     54  H   UNK A   5     144.819 169.285 190.626  0.00  0.00    +0.040 HD
ATOM     55  H   UNK A   5     144.728 168.393 189.112  0.00  0.00    +0.040 HD
ATOM     56  H   UNK A   5     144.747 167.036 191.252  0.00  0.00    +0.060 HD
ATOM     57  HD1 HYP A   6     143.301 165.984 189.772  0.00  0.00    +0.049 HD
ATOM     58  HD2 HYP A   6     143.842 164.941 191.127  0.00  0.00    +0.049 HD
ATOM     59  HG  HYP A   6     142.424 163.393 189.879  0.00  0.00    +0.061 HD
ATOM     60  HB1 HYP A   6     144.608 162.407 190.297  0.00  0.00    +0.031 HD
ATOM     61  HB2 HYP A   6     144.413 162.113 188.552  0.00  0.00    +0.031 HD
ATOM     62  HA  HYP A   6     146.557 163.536 189.661  0.00  0.00    +0.060 HD
ATOM     63  H   ALA A   7     144.830 165.432 187.263  0.00  0.00    +0.149 HD
ATOM     64  H   UNK A   5     147.497 168.047 191.594  0.00  0.00    +0.150 HD
ATOM     65  HA  THR A   4     148.224 167.512 194.009  0.00  0.00    +0.062 HD
ATOM     66  H   THR A   4     149.639 165.363 192.597  0.00  0.00    +0.150 HD
ATOM     67  HA  ALA A   3     151.699 166.349 191.703  0.00  0.00    +0.059 HD
ATOM     68  H   ALA A   3     149.636 166.066 189.569  0.00  0.00    +0.149 HD
ATOM     69  H   UNK A   2     150.310 163.449 188.566  0.00  0.00    +0.060 HD
ATOM     70  H   UNK A   2     149.047 164.676 187.169  0.00  0.00    +0.150 HD
ENDROOT
BRANCH   1  71
ATOM     71  CB  ALA A   7     144.879 165.937 184.760  0.00  0.00    -0.038 C 
ATOM     72  HB1 ALA A   7     143.906 165.458 184.611  0.00  0.00    +0.025 HD
ATOM     73  HB2 ALA A   7     144.734 166.836 185.367  0.00  0.00    +0.025 HD
ATOM     74  HB3 ALA A   7     145.251 166.257 183.781  0.00  0.00    +0.025 HD
ENDBRANCH   1  71
BRANCH  36  75
ATOM     75  CB  ALA A   3     151.685 168.066 190.414  0.00  0.00    -0.038 C 
ATOM     76  HB1 ALA A   3     151.112 168.450 189.564  0.00  0.00    +0.025 HD
ATOM     77  HB2 ALA A   3     151.793 168.884 191.136  0.00  0.00    +0.025 HD
ATOM     78  HB3 ALA A   3     152.686 167.800 190.059  0.00  0.00    +0.025 HD
ENDBRANCH  36  75
BRANCH  40  79
ATOM     79  C   UNK A   2     152.038 163.782 187.305  0.00  0.00    +0.005 C 
ATOM     80  H   UNK A   2     152.944 164.307 187.639  0.00  0.00    +0.032 HD
ATOM     81  H   UNK A   2     151.895 164.085 186.260  0.00  0.00    +0.032 HD
BRANCH  79  82
ATOM     82  C   UNK A   2     152.352 162.271 187.364  0.00  0.00    +0.088 C 
BRANCH  82  83
ATOM     83  C   UNK A   2     151.263 161.576 188.193  0.00  0.00    -0.034 C 
ATOM     84  H   UNK A   2     150.263 161.889 187.871  0.00  0.00    +0.026 HD
ATOM     85  H   UNK A   2     151.300 160.490 188.054  0.00  0.00    +0.026 HD
ATOM     86  H   UNK A   2     151.370 161.793 189.261  0.00  0.00    +0.026 HD
ENDBRANCH  82  83
BRANCH  82  87
ATOM     87  C   UNK A   2     153.728 161.935 187.976  0.00  0.00    +0.073 C 
ATOM     88  H   UNK A   2     154.005 160.890 187.802  0.00  0.00    +0.059 HD
ATOM     89  H   UNK A   2     154.509 162.578 187.554  0.00  0.00    +0.059 HD
BRANCH  87  90
ATOM     90  O   UNK A   2     153.709 162.201 189.377  0.00  0.00    -0.392 OA
ATOM     91  H   UNK A   2     154.200 163.040 189.500  0.00  0.00    +0.210 HD
ENDBRANCH  87  90
ENDBRANCH  82  87
BRANCH  82  92
ATOM     92  O   UNK A   2     152.290 161.724 186.038  0.00  0.00    -0.387 OA
ATOM     93  H   UNK A   2     152.591 162.449 185.446  0.00  0.00    +0.210 HD
ENDBRANCH  82  92
ENDBRANCH  79  82
ENDBRANCH  40  79
BRANCH  23  94
ATOM     94  OD  HYP A   6     142.875 164.155 188.025  0.00  0.00    -0.390 OA
ATOM     95  HD  HYP A   6     142.590 163.331 187.587  0.00  0.00    +0.210 HD
ENDBRANCH  23  94
BRANCH  32  96
ATOM     96  CB  THR A   4     148.108 165.441 194.681  0.00  0.00    +0.079 C 
ATOM     97  HB  THR A   4     147.304 164.714 194.509  0.00  0.00    +0.061 HD
BRANCH  96  98
ATOM     98  CG2 THR A   4     147.957 166.043 196.074  0.00  0.00    -0.037 C 
ATOM     99 HG21 THR A   4     148.485 165.426 196.810  0.00  0.00    +0.026 HD
ATOM    100 HG22 THR A   4     146.908 166.118 196.375  0.00  0.00    +0.026 HD
ATOM    101 HG23 THR A   4     148.407 167.040 196.122  0.00  0.00    +0.026 HD
ENDBRANCH  96  98
BRANCH  96 102
ATOM    102  OG1 THR A   4     149.334 164.691 194.651  0.00  0.00    -0.390 OA
ATOM    103  HG1 THR A   4     149.657 164.679 193.732  0.00  0.00    +0.210 HD
ENDBRANCH  96 102
ENDBRANCH  32  96
TORSDOF 12
ENDMDL
MODEL 6
REMARK VINA RESULT:      -5.3     18.680     22.493
REMARK  Name = Phalloidin_conf1
REMARK  12 active torsions:
REMARK  status: ('A' for Active; 'I' for Inactive)
REMARK    1  A    between atoms: CB_1  and  CA_2
REMARK    2  A    between atoms: CG_24  and  OD_30
REMARK    3  A    between atoms: CA_34  and  CB_53
REMARK    4  A    between atoms: CA_38  and  CB_52
REMARK    5  A    between atoms: C_42  and  C_46
REMARK    6  A    between atoms: C_46  and  C_47
REMARK    7  A    between atoms: C_47  and  C_48
REMARK    8  A    between atoms: C_47  and  C_49
REMARK    9  A    between atoms: C_47  and  O_51
REMARK   10  A    between atoms: C_49  and  O_50
REMARK   11  A    between atoms: CB_53  and  CG2_54
REMARK   12  A    between atoms: CB_53  and  OG1_55
REMARK                            x       y       z     vdW  Elec       q    Type
REMARK                         _______ _______ _______ _____ _____    ______ ____
ROOT
ATOM      1  CA  ALA A   7     135.990 154.052 198.422  0.00  0.00    +0.097 C 
ATOM      2  C   ALA A   7     135.619 155.351 197.676  0.00  0.00    +0.234 C 
ATOM      3  O   ALA A   7     136.469 156.064 197.140  0.00  0.00    -0.274 OA
ATOM      4  N   UNK A   1     134.270 155.586 197.549  0.00  0.00    -0.302 N 
ATOM      5  C   UNK A   1     133.721 156.640 196.696  0.00  0.00    +0.103 C 
ATOM      6  C   UNK A   1     132.472 156.170 195.927  0.00  0.00    +0.002 C 
ATOM      7  C   UNK A   1     132.516 154.748 195.433  0.00  0.00    -0.006 A 
ATOM      8  C   UNK A   5     131.589 153.759 195.694  0.00  0.00    +0.078 A 
ATOM      9  N   UNK A   5     131.950 152.626 195.022  0.00  0.00    -0.349 N 
ATOM     10  C   UNK A   5     133.148 152.818 194.379  0.00  0.00    +0.048 A 
ATOM     11  C   UNK A   5     133.910 151.928 193.614  0.00  0.00    -0.038 A 
ATOM     12  C   UNK A   5     135.100 152.407 193.056  0.00  0.00    -0.060 A 
ATOM     13  C   UNK A   5     135.499 153.725 193.248  0.00  0.00    -0.061 A 
ATOM     14  C   UNK A   5     134.716 154.606 194.007  0.00  0.00    -0.052 A 
ATOM     15  C   UNK A   5     133.519 154.147 194.596  0.00  0.00    +0.004 A 
ATOM     16  S   UNK A   5     130.111 153.775 196.598  0.00  0.00    -0.105 S 
ATOM     17  C   UNK A   5     130.402 152.492 197.863  0.00  0.00    +0.027 C 
ATOM     18  C   UNK A   5     130.357 152.980 199.315  0.00  0.00    +0.109 C 
ATOM     19  C   UNK A   5     131.657 153.715 199.718  0.00  0.00    +0.237 C 
ATOM     20  O   UNK A   5     131.911 154.862 199.330  0.00  0.00    -0.274 OA
ATOM     21  N   HYP A   6     132.512 153.065 200.584  0.00  0.00    -0.286 N 
ATOM     22  CD  HYP A   6     132.406 151.695 201.073  0.00  0.00    +0.042 C 
ATOM     23  CG  HYP A   6     133.716 151.466 201.824  0.00  0.00    +0.073 C 
ATOM     24  CB  HYP A   6     134.006 152.838 202.423  0.00  0.00    +0.002 C 
ATOM     25  CA  HYP A   6     133.517 153.816 201.347  0.00  0.00    +0.105 C 
ATOM     26  C   HYP A   6     134.696 154.332 200.512  0.00  0.00    +0.234 C 
ATOM     27  O   HYP A   6     135.424 155.238 200.910  0.00  0.00    -0.274 OA
ATOM     28  N   ALA A   7     134.928 153.654 199.340  0.00  0.00    -0.303 N 
ATOM     29  N   UNK A   5     129.260 153.884 199.631  0.00  0.00    -0.302 N 
ATOM     30  C   THR A   4     128.880 154.090 200.942  0.00  0.00    +0.237 C 
ATOM     31  O   THR A   4     129.250 153.338 201.844  0.00  0.00    -0.274 OA
ATOM     32  CA  THR A   4     127.957 155.306 201.169  0.00  0.00    +0.125 C 
ATOM     33  N   THR A   4     128.649 156.521 200.716  0.00  0.00    -0.300 N 
ATOM     34  C   ALA A   3     128.682 156.916 199.399  0.00  0.00    +0.234 C 
ATOM     35  O   ALA A   3     128.174 156.229 198.516  0.00  0.00    -0.274 OA
ATOM     36  CA  ALA A   3     129.416 158.243 199.155  0.00  0.00    +0.097 C 
ATOM     37  N   ALA A   3     130.836 158.074 199.443  0.00  0.00    -0.303 N 
ATOM     38  C   UNK A   2     131.627 159.158 199.777  0.00  0.00    +0.234 C 
ATOM     39  O   UNK A   2     131.132 160.221 200.152  0.00  0.00    -0.274 OA
ATOM     40  C   UNK A   2     133.157 158.876 199.794  0.00  0.00    +0.102 C 
ATOM     41  N   UNK A   2     133.497 157.812 198.854  0.00  0.00    -0.302 N 
ATOM     42  C   UNK A   1     133.336 157.904 197.490  0.00  0.00    +0.234 C 
ATOM     43  O   UNK A   1     132.863 158.896 196.939  0.00  0.00    -0.274 OA
ATOM     44  HA  ALA A   7     136.896 154.251 199.005  0.00  0.00    +0.059 HD
ATOM     45  H   UNK A   1     133.617 155.036 198.102  0.00  0.00    +0.150 HD
ATOM     46  H   UNK A   1     134.496 156.949 195.986  0.00  0.00    +0.060 HD
ATOM     47  H   UNK A   1     131.590 156.301 196.567  0.00  0.00    +0.034 HD
ATOM     48  H   UNK A   1     132.306 156.833 195.065  0.00  0.00    +0.034 HD
ATOM     49  H   UNK A   5     131.406 151.778 194.989  0.00  0.00    +0.166 HD
ATOM     50  H   UNK A   5     133.598 150.903 193.451  0.00  0.00    +0.064 HD
ATOM     51  H   UNK A   5     135.717 151.740 192.458  0.00  0.00    +0.062 HD
ATOM     52  H   UNK A   5     136.425 154.082 192.804  0.00  0.00    +0.062 HD
ATOM     53  H   UNK A   5     135.048 155.631 194.139  0.00  0.00    +0.062 HD
ATOM     54  H   UNK A   5     129.599 151.759 197.721  0.00  0.00    +0.040 HD
ATOM     55  H   UNK A   5     131.346 151.968 197.676  0.00  0.00    +0.040 HD
ATOM     56  H   UNK A   5     130.225 152.097 199.945  0.00  0.00    +0.060 HD
ATOM     57  HD1 HYP A   6     132.257 151.012 200.232  0.00  0.00    +0.049 HD
ATOM     58  HD2 HYP A   6     131.550 151.647 201.753  0.00  0.00    +0.049 HD
ATOM     59  HG  HYP A   6     133.634 150.672 202.573  0.00  0.00    +0.061 HD
ATOM     60  HB1 HYP A   6     133.406 152.972 203.333  0.00  0.00    +0.031 HD
ATOM     61  HB2 HYP A   6     135.061 152.976 202.678  0.00  0.00    +0.031 HD
ATOM     62  HA  HYP A   6     133.034 154.695 201.793  0.00  0.00    +0.060 HD
ATOM     63  H   ALA A   7     134.392 152.810 199.161  0.00  0.00    +0.149 HD
ATOM     64  H   UNK A   5     128.949 154.550 198.918  0.00  0.00    +0.150 HD
ATOM     65  HA  THR A   4     127.058 155.182 200.551  0.00  0.00    +0.062 HD
ATOM     66  H   THR A   4     129.098 157.108 201.414  0.00  0.00    +0.150 HD
ATOM     67  HA  ALA A   3     128.997 158.987 199.843  0.00  0.00    +0.059 HD
ATOM     68  H   ALA A   3     131.297 157.195 199.219  0.00  0.00    +0.149 HD
ATOM     69  H   UNK A   2     133.357 158.460 200.789  0.00  0.00    +0.060 HD
ATOM     70  H   UNK A   2     134.130 157.087 199.187  0.00  0.00    +0.150 HD
ENDROOT
BRANCH   1  71
ATOM     71  CB  ALA A   7     136.240 152.948 197.403  0.00  0.00    -0.038 C 
ATOM     72  HB1 ALA A   7     135.305 152.619 196.937  0.00  0.00    +0.025 HD
ATOM     73  HB2 ALA A   7     136.918 153.291 196.616  0.00  0.00    +0.025 HD
ATOM     74  HB3 ALA A   7     136.702 152.078 197.880  0.00  0.00    +0.025 HD
ENDBRANCH   1  71
BRANCH  36  75
ATOM     75  CB  ALA A   3     129.215 158.726 197.723  0.00  0.00    -0.038 C 
ATOM     76  HB1 ALA A   3     130.077 158.469 197.098  0.00  0.00    +0.025 HD
ATOM     77  HB2 ALA A   3     128.330 158.266 197.269  0.00  0.00    +0.025 HD
ATOM     78  HB3 ALA A   3     129.082 159.812 197.690  0.00  0.00    +0.025 HD
ENDBRANCH  36  75
BRANCH  40  79
ATOM     79  C   UNK A   2     133.956 160.177 199.614  0.00  0.00    +0.005 C 
ATOM     80  H   UNK A   2     133.375 160.811 198.927  0.00  0.00    +0.032 HD
ATOM     81  H   UNK A   2     134.901 159.976 199.094  0.00  0.00    +0.032 HD
BRANCH  79  82
ATOM     82  C   UNK A   2     134.231 161.025 200.875  0.00  0.00    +0.088 C 
BRANCH  82  83
ATOM     83  C   UNK A   2     135.582 161.733 200.705  0.00  0.00    -0.034 C 
ATOM     84  H   UNK A   2     136.398 161.133 201.126  0.00  0.00    +0.026 HD
ATOM     85  H   UNK A   2     135.821 161.867 199.644  0.00  0.00    +0.026 HD
ATOM     86  H   UNK A   2     135.585 162.715 201.189  0.00  0.00    +0.026 HD
ENDBRANCH  82  83
BRANCH  82  87
ATOM     87  C   UNK A   2     134.260 160.214 202.188  0.00  0.00    +0.073 C 
ATOM     88  H   UNK A   2     134.610 159.189 202.023  0.00  0.00    +0.059 HD
ATOM     89  H   UNK A   2     134.914 160.691 202.925  0.00  0.00    +0.059 HD
BRANCH  87  90
ATOM     90  O   UNK A   2     132.957 160.191 202.767  0.00  0.00    -0.392 OA
ATOM     91  H   UNK A   2     132.744 161.122 202.990  0.00  0.00    +0.210 HD
ENDBRANCH  87  90
ENDBRANCH  82  87
BRANCH  82  92
ATOM     92  O   UNK A   2     133.228 162.046 200.985  0.00  0.00    -0.387 OA
ATOM     93  H   UNK A   2     133.178 162.255 201.945  0.00  0.00    +0.210 HD
ENDBRANCH  82  92
ENDBRANCH  79  82
ENDBRANCH  40  79
BRANCH  23  94
ATOM     94  OD  HYP A   6     134.734 151.102 200.892  0.00  0.00    -0.390 OA
ATOM     95  HD  HYP A   6     134.294 150.876 200.050  0.00  0.00    +0.210 HD
ENDBRANCH  23  94
BRANCH  32  96
ATOM     96  CB  THR A   4     127.562 155.437 202.657  0.00  0.00    +0.079 C 
ATOM     97  HB  THR A   4     128.387 155.103 203.300  0.00  0.00    +0.061 HD
BRANCH  96  98
ATOM     98  CG2 THR A   4     126.302 154.651 203.000  0.00  0.00    -0.037 C 
ATOM     99 HG21 THR A   4     126.445 154.099 203.936  0.00  0.00    +0.026 HD
ATOM    100 HG22 THR A   4     126.038 153.937 202.214  0.00  0.00    +0.026 HD
ATOM    101 HG23 THR A   4     125.452 155.323 203.161  0.00  0.00    +0.026 HD
ENDBRANCH  96  98
BRANCH  96 102
ATOM    102  OG1 THR A   4     127.332 156.816 202.992  0.00  0.00    -0.390 OA
ATOM    103  HG1 THR A   4     127.881 157.033 203.767  0.00  0.00    +0.210 HD
ENDBRANCH  96 102
ENDBRANCH  32  96
TORSDOF 12
ENDMDL
MODEL 7
REMARK VINA RESULT:      -5.3      2.460      7.639
REMARK  Name = Phalloidin_conf1
REMARK  12 active torsions:
REMARK  status: ('A' for Active; 'I' for Inactive)
REMARK    1  A    between atoms: CB_1  and  CA_2
REMARK    2  A    between atoms: CG_24  and  OD_30
REMARK    3  A    between atoms: CA_34  and  CB_53
REMARK    4  A    between atoms: CA_38  and  CB_52
REMARK    5  A    between atoms: C_42  and  C_46
REMARK    6  A    between atoms: C_46  and  C_47
REMARK    7  A    between atoms: C_47  and  C_48
REMARK    8  A    between atoms: C_47  and  C_49
REMARK    9  A    between atoms: C_47  and  O_51
REMARK   10  A    between atoms: C_49  and  O_50
REMARK   11  A    between atoms: CB_53  and  CG2_54
REMARK   12  A    between atoms: CB_53  and  OG1_55
REMARK                            x       y       z     vdW  Elec       q    Type
REMARK                         _______ _______ _______ _____ _____    ______ ____
ROOT
ATOM      1  CA  ALA A   7     143.773 172.694 188.541  0.00  0.00    +0.097 C 
ATOM      2  C   ALA A   7     144.006 171.739 189.730  0.00  0.00    +0.234 C 
ATOM      3  O   ALA A   7     143.985 172.129 190.898  0.00  0.00    -0.274 OA
ATOM      4  N   UNK A   1     144.115 170.409 189.397  0.00  0.00    -0.302 N 
ATOM      5  C   UNK A   1     144.121 169.335 190.391  0.00  0.00    +0.103 C 
ATOM      6  C   UNK A   1     143.285 168.124 189.940  0.00  0.00    +0.002 C 
ATOM      7  C   UNK A   1     142.017 168.455 189.198  0.00  0.00    -0.006 A 
ATOM      8  C   UNK A   5     141.655 167.998 187.946  0.00  0.00    +0.078 A 
ATOM      9  N   UNK A   5     140.412 168.474 187.645  0.00  0.00    -0.349 N 
ATOM     10  C   UNK A   5     139.969 169.308 188.641  0.00  0.00    +0.048 A 
ATOM     11  C   UNK A   5     138.783 170.045 188.737  0.00  0.00    -0.038 A 
ATOM     12  C   UNK A   5     138.585 170.809 189.891  0.00  0.00    -0.060 A 
ATOM     13  C   UNK A   5     139.531 170.821 190.911  0.00  0.00    -0.061 A 
ATOM     14  C   UNK A   5     140.707 170.067 190.804  0.00  0.00    -0.052 A 
ATOM     15  C   UNK A   5     140.943 169.299 189.643  0.00  0.00    +0.004 A 
ATOM     16  S   UNK A   5     142.444 166.924 186.839  0.00  0.00    -0.105 S 
ATOM     17  C   UNK A   5     142.632 167.955 185.345  0.00  0.00    +0.027 C 
ATOM     18  C   UNK A   5     144.076 168.194 184.890  0.00  0.00    +0.109 C 
ATOM     19  C   UNK A   5     144.785 169.263 185.754  0.00  0.00    +0.237 C 
ATOM     20  O   UNK A   5     145.177 169.025 186.903  0.00  0.00    -0.274 OA
ATOM     21  N   HYP A   6     145.024 170.492 185.175  0.00  0.00    -0.286 N 
ATOM     22  CD  HYP A   6     144.567 170.962 183.872  0.00  0.00    +0.042 C 
ATOM     23  CG  HYP A   6     144.954 172.439 183.854  0.00  0.00    +0.073 C 
ATOM     24  CB  HYP A   6     146.258 172.457 184.644  0.00  0.00    +0.002 C 
ATOM     25  CA  HYP A   6     146.039 171.396 185.730  0.00  0.00    +0.105 C 
ATOM     26  C   HYP A   6     145.647 172.057 187.058  0.00  0.00    +0.234 C 
ATOM     27  O   HYP A   6     146.485 172.553 187.806  0.00  0.00    -0.274 OA
ATOM     28  N   ALA A   7     144.298 172.128 187.303  0.00  0.00    -0.303 N 
ATOM     29  N   UNK A   5     144.933 167.017 184.907  0.00  0.00    -0.302 N 
ATOM     30  C   THR A   4     146.107 166.998 184.182  0.00  0.00    +0.237 C 
ATOM     31  O   THR A   4     146.334 167.830 183.304  0.00  0.00    -0.274 OA
ATOM     32  CA  THR A   4     147.079 165.856 184.547  0.00  0.00    +0.125 C 
ATOM     33  N   THR A   4     147.441 165.974 185.967  0.00  0.00    -0.300 N 
ATOM     34  C   ALA A   3     146.650 165.493 186.983  0.00  0.00    +0.234 C 
ATOM     35  O   ALA A   3     145.556 164.983 186.751  0.00  0.00    -0.274 OA
ATOM     36  CA  ALA A   3     147.243 165.677 188.388  0.00  0.00    +0.097 C 
ATOM     37  N   ALA A   3     147.299 167.098 188.711  0.00  0.00    -0.303 N 
ATOM     38  C   UNK A   2     148.193 167.579 189.650  0.00  0.00    +0.234 C 
ATOM     39  O   UNK A   2     149.167 166.915 190.005  0.00  0.00    -0.274 OA
ATOM     40  C   UNK A   2     147.961 169.054 190.086  0.00  0.00    +0.102 C 
ATOM     41  N   UNK A   2     146.550 169.411 189.970  0.00  0.00    -0.302 N 
ATOM     42  C   UNK A   1     145.544 168.833 190.711  0.00  0.00    +0.234 C 
ATOM     43  O   UNK A   1     145.745 167.937 191.529  0.00  0.00    -0.274 OA
ATOM     44  HA  ALA A   7     144.311 173.625 188.752  0.00  0.00    +0.059 HD
ATOM     45  H   UNK A   1     144.240 170.151 188.421  0.00  0.00    +0.150 HD
ATOM     46  H   UNK A   1     143.718 169.731 191.330  0.00  0.00    +0.060 HD
ATOM     47  H   UNK A   1     143.910 167.475 189.312  0.00  0.00    +0.034 HD
ATOM     48  H   UNK A   1     143.026 167.515 190.818  0.00  0.00    +0.034 HD
ATOM     49  H   UNK A   5     139.887 168.233 186.818  0.00  0.00    +0.166 HD
ATOM     50  H   UNK A   5     138.037 170.030 187.950  0.00  0.00    +0.064 HD
ATOM     51  H   UNK A   5     137.675 171.395 189.996  0.00  0.00    +0.062 HD
ATOM     52  H   UNK A   5     139.359 171.417 191.803  0.00  0.00    +0.062 HD
ATOM     53  H   UNK A   5     141.429 170.090 191.615  0.00  0.00    +0.062 HD
ATOM     54  H   UNK A   5     142.105 167.412 184.552  0.00  0.00    +0.040 HD
ATOM     55  H   UNK A   5     142.117 168.915 185.468  0.00  0.00    +0.040 HD
ATOM     56  H   UNK A   5     144.031 168.533 183.852  0.00  0.00    +0.060 HD
ATOM     57  HD1 HYP A   6     143.491 170.789 183.772  0.00  0.00    +0.049 HD
ATOM     58  HD2 HYP A   6     145.111 170.404 183.105  0.00  0.00    +0.049 HD
ATOM     59  HG  HYP A   6     145.056 172.831 182.837  0.00  0.00    +0.061 HD
ATOM     60  HB1 HYP A   6     147.083 172.142 183.992  0.00  0.00    +0.031 HD
ATOM     61  HB2 HYP A   6     146.494 173.444 185.053  0.00  0.00    +0.031 HD
ATOM     62  HA  HYP A   6     146.955 170.821 185.919  0.00  0.00    +0.060 HD
ATOM     63  H   ALA A   7     143.660 171.850 186.562  0.00  0.00    +0.149 HD
ATOM     64  H   UNK A   5     144.798 166.320 185.646  0.00  0.00    +0.150 HD
ATOM     65  HA  THR A   4     146.560 164.898 184.413  0.00  0.00    +0.062 HD
ATOM     66  H   THR A   4     148.331 166.406 186.203  0.00  0.00    +0.150 HD
ATOM     67  HA  ALA A   3     148.262 165.272 188.375  0.00  0.00    +0.059 HD
ATOM     68  H   ALA A   3     146.559 167.719 188.392  0.00  0.00    +0.149 HD
ATOM     69  H   UNK A   2     148.477 169.657 189.328  0.00  0.00    +0.060 HD
ATOM     70  H   UNK A   2     146.334 170.305 189.533  0.00  0.00    +0.150 HD
ENDROOT
BRANCH   1  71
ATOM     71  CB  ALA A   7     142.279 172.959 188.402  0.00  0.00    -0.038 C 
ATOM     72  HB1 ALA A   7     141.783 172.954 189.379  0.00  0.00    +0.025 HD
ATOM     73  HB2 ALA A   7     142.098 173.926 187.925  0.00  0.00    +0.025 HD
ATOM     74  HB3 ALA A   7     141.806 172.191 187.781  0.00  0.00    +0.025 HD
ENDBRANCH   1  71
BRANCH  36  75
ATOM     75  CB  ALA A   3     146.426 164.923 189.431  0.00  0.00    -0.038 C 
ATOM     76  HB1 ALA A   3     146.761 163.884 189.517  0.00  0.00    +0.025 HD
ATOM     77  HB2 ALA A   3     146.523 165.384 190.421  0.00  0.00    +0.025 HD
ATOM     78  HB3 ALA A   3     145.363 164.917 189.169  0.00  0.00    +0.025 HD
ENDBRANCH  36  75
BRANCH  40  79
ATOM     79  C   UNK A   2     148.585 169.322 191.465  0.00  0.00    +0.005 C 
ATOM     80  H   UNK A   2     149.475 168.680 191.539  0.00  0.00    +0.032 HD
ATOM     81  H   UNK A   2     147.913 168.980 192.261  0.00  0.00    +0.032 HD
BRANCH  79  82
ATOM     82  C   UNK A   2     149.051 170.763 191.767  0.00  0.00    +0.088 C 
BRANCH  82  83
ATOM     83  C   UNK A   2     150.431 170.702 192.436  0.00  0.00    -0.034 C 
ATOM     84  H   UNK A   2     150.343 170.455 193.501  0.00  0.00    +0.026 HD
ATOM     85  H   UNK A   2     151.045 169.911 191.992  0.00  0.00    +0.026 HD
ATOM     86  H   UNK A   2     150.967 171.653 192.341  0.00  0.00    +0.026 HD
ENDBRANCH  82  83
BRANCH  82  87
ATOM     87  C   UNK A   2     148.094 171.558 192.681  0.00  0.00    +0.073 C 
ATOM     88  H   UNK A   2     147.853 171.004 193.594  0.00  0.00    +0.059 HD
ATOM     89  H   UNK A   2     148.535 172.521 192.963  0.00  0.00    +0.059 HD
BRANCH  87  90
ATOM     90  O   UNK A   2     146.895 171.862 191.972  0.00  0.00    -0.392 OA
ATOM     91  H   UNK A   2     146.282 172.250 192.632  0.00  0.00    +0.210 HD
ENDBRANCH  87  90
ENDBRANCH  82  87
BRANCH  82  92
ATOM     92  O   UNK A   2     149.209 171.477 190.532  0.00  0.00    -0.387 OA
ATOM     93  H   UNK A   2     150.164 171.710 190.491  0.00  0.00    +0.210 HD
ENDBRANCH  82  92
ENDBRANCH  79  82
ENDBRANCH  40  79
BRANCH  23  94
ATOM     94  OD  HYP A   6     143.949 173.196 184.529  0.00  0.00    -0.390 OA
ATOM     95  HD  HYP A   6     143.345 172.563 184.961  0.00  0.00    +0.210 HD
ENDBRANCH  23  94
BRANCH  32  96
ATOM     96  CB  THR A   4     148.347 165.899 183.665  0.00  0.00    +0.079 C 
ATOM     97  HB  THR A   4     148.548 166.927 183.336  0.00  0.00    +0.061 HD
BRANCH  96  98
ATOM     98  CG2 THR A   4     148.244 164.988 182.447  0.00  0.00    -0.037 C 
ATOM     99 HG21 THR A   4     149.167 165.041 181.858  0.00  0.00    +0.026 HD
ATOM    100 HG22 THR A   4     147.406 165.264 181.800  0.00  0.00    +0.026 HD
ATOM    101 HG23 THR A   4     148.124 163.942 182.747  0.00  0.00    +0.026 HD
ENDBRANCH  96  98
BRANCH  96 102
ATOM    102  OG1 THR A   4     149.498 165.495 184.427  0.00  0.00    -0.390 OA
ATOM    103  HG1 THR A   4     150.292 165.821 183.967  0.00  0.00    +0.210 HD
ENDBRANCH  96 102
ENDBRANCH  32  96
TORSDOF 12
ENDMDL
MODEL 8
REMARK VINA RESULT:      -5.2     12.830     17.461
REMARK  Name = Phalloidin_conf1
REMARK  12 active torsions:
REMARK  status: ('A' for Active; 'I' for Inactive)
REMARK    1  A    between atoms: CB_1  and  CA_2
REMARK    2  A    between atoms: CG_24  and  OD_30
REMARK    3  A    between atoms: CA_34  and  CB_53
REMARK    4  A    between atoms: CA_38  and  CB_52
REMARK    5  A    between atoms: C_42  and  C_46
REMARK    6  A    between atoms: C_46  and  C_47
REMARK    7  A    between atoms: C_47  and  C_48
REMARK    8  A    between atoms: C_47  and  C_49
REMARK    9  A    between atoms: C_47  and  O_51
REMARK   10  A    between atoms: C_49  and  O_50
REMARK   11  A    between atoms: CB_53  and  CG2_54
REMARK   12  A    between atoms: CB_53  and  OG1_55
REMARK                            x       y       z     vdW  Elec       q    Type
REMARK                         _______ _______ _______ _____ _____    ______ ____
ROOT
ATOM      1  CA  ALA A   7     146.093 184.991 183.091  0.00  0.00    +0.097 C 
ATOM      2  C   ALA A   7     146.873 183.723 183.493  0.00  0.00    +0.234 C 
ATOM      3  O   ALA A   7     147.139 182.833 182.683  0.00  0.00    -0.274 OA
ATOM      4  N   UNK A   1     147.354 183.717 184.782  0.00  0.00    -0.302 N 
ATOM      5  C   UNK A   1     148.293 182.712 185.278  0.00  0.00    +0.103 C 
ATOM      6  C   UNK A   1     149.385 183.330 186.171  0.00  0.00    +0.002 C 
ATOM      7  C   UNK A   1     149.889 184.680 185.732  0.00  0.00    -0.006 A 
ATOM      8  C   UNK A   5     149.917 185.833 186.491  0.00  0.00    +0.078 A 
ATOM      9  N   UNK A   5     150.498 186.829 185.760  0.00  0.00    -0.349 N 
ATOM     10  C   UNK A   5     150.787 186.382 184.495  0.00  0.00    +0.048 A 
ATOM     11  C   UNK A   5     151.343 187.062 183.405  0.00  0.00    -0.038 A 
ATOM     12  C   UNK A   5     151.544 186.341 182.224  0.00  0.00    -0.060 A 
ATOM     13  C   UNK A   5     151.213 184.992 182.146  0.00  0.00    -0.061 A 
ATOM     14  C   UNK A   5     150.670 184.324 183.250  0.00  0.00    -0.052 A 
ATOM     15  C   UNK A   5     150.440 185.029 184.451  0.00  0.00    +0.004 A 
ATOM     16  S   UNK A   5     149.447 186.145 188.129  0.00  0.00    -0.105 S 
ATOM     17  C   UNK A   5     148.187 187.453 187.941  0.00  0.00    +0.027 C 
ATOM     18  C   UNK A   5     146.788 187.096 188.454  0.00  0.00    +0.109 C 
ATOM     19  C   UNK A   5     146.028 186.179 187.468  0.00  0.00    +0.237 C 
ATOM     20  O   UNK A   5     146.299 184.979 187.342  0.00  0.00    -0.274 OA
ATOM     21  N   HYP A   6     144.982 186.736 186.760  0.00  0.00    -0.286 N 
ATOM     22  CD  HYP A   6     144.579 188.138 186.730  0.00  0.00    +0.042 C 
ATOM     23  CG  HYP A   6     143.509 188.193 185.642  0.00  0.00    +0.073 C 
ATOM     24  CB  HYP A   6     142.814 186.842 185.783  0.00  0.00    +0.002 C 
ATOM     25  CA  HYP A   6     143.954 185.883 186.150  0.00  0.00    +0.105 C 
ATOM     26  C   HYP A   6     144.423 185.106 184.913  0.00  0.00    +0.234 C 
ATOM     27  O   HYP A   6     143.818 184.121 184.499  0.00  0.00    -0.274 OA
ATOM     28  N   ALA A   7     145.508 185.639 184.261  0.00  0.00    -0.303 N 
ATOM     29  N   UNK A   5     146.756 186.425 189.746  0.00  0.00    -0.302 N 
ATOM     30  C   THR A   4     145.591 186.391 190.486  0.00  0.00    +0.237 C 
ATOM     31  O   THR A   4     144.645 187.135 190.229  0.00  0.00    -0.274 OA
ATOM     32  CA  THR A   4     145.588 185.377 191.649  0.00  0.00    +0.125 C 
ATOM     33  N   THR A   4     145.801 184.028 191.106  0.00  0.00    -0.300 N 
ATOM     34  C   ALA A   3     147.048 183.531 190.805  0.00  0.00    +0.234 C 
ATOM     35  O   ALA A   3     148.055 184.224 190.927  0.00  0.00    -0.274 OA
ATOM     36  CA  ALA A   3     147.046 182.082 190.298  0.00  0.00    +0.097 C 
ATOM     37  N   ALA A   3     146.389 182.022 188.997  0.00  0.00    -0.303 N 
ATOM     38  C   UNK A   2     145.822 180.846 188.539  0.00  0.00    +0.234 C 
ATOM     39  O   UNK A   2     145.565 179.919 189.307  0.00  0.00    -0.274 OA
ATOM     40  C   UNK A   2     145.400 180.857 187.042  0.00  0.00    +0.102 C 
ATOM     41  N   UNK A   2     146.243 181.770 186.275  0.00  0.00    -0.302 N 
ATOM     42  C   UNK A   1     147.596 181.600 186.089  0.00  0.00    +0.234 C 
ATOM     43  O   UNK A   1     148.227 180.666 186.580  0.00  0.00    -0.274 OA
ATOM     44  HA  ALA A   7     145.280 184.684 182.422  0.00  0.00    +0.059 HD
ATOM     45  H   UNK A   1     147.014 184.415 185.440  0.00  0.00    +0.150 HD
ATOM     46  H   UNK A   1     148.758 182.218 184.418  0.00  0.00    +0.060 HD
ATOM     47  H   UNK A   1     149.003 183.405 187.198  0.00  0.00    +0.034 HD
ATOM     48  H   UNK A   1     150.240 182.641 186.229  0.00  0.00    +0.034 HD
ATOM     49  H   UNK A   5     150.702 187.754 186.106  0.00  0.00    +0.166 HD
ATOM     50  H   UNK A   5     151.613 188.110 183.465  0.00  0.00    +0.064 HD
ATOM     51  H   UNK A   5     151.972 186.841 181.358  0.00  0.00    +0.062 HD
ATOM     52  H   UNK A   5     151.380 184.446 181.220  0.00  0.00    +0.062 HD
ATOM     53  H   UNK A   5     150.423 183.270 183.165  0.00  0.00    +0.062 HD
ATOM     54  H   UNK A   5     148.563 188.301 188.526  0.00  0.00    +0.040 HD
ATOM     55  H   UNK A   5     148.127 187.788 186.899  0.00  0.00    +0.040 HD
ATOM     56  H   UNK A   5     146.243 188.035 188.576  0.00  0.00    +0.060 HD
ATOM     57  HD1 HYP A   6     145.449 188.768 186.522  0.00  0.00    +0.049 HD
ATOM     58  HD2 HYP A   6     144.158 188.387 187.708  0.00  0.00    +0.049 HD
ATOM     59  HG  HYP A   6     142.833 189.045 185.765  0.00  0.00    +0.061 HD
ATOM     60  HB1 HYP A   6     142.098 186.887 186.613  0.00  0.00    +0.031 HD
ATOM     61  HB2 HYP A   6     142.279 186.543 184.876  0.00  0.00    +0.031 HD
ATOM     62  HA  HYP A   6     143.630 185.140 186.889  0.00  0.00    +0.060 HD
ATOM     63  H   ALA A   7     145.850 186.547 184.562  0.00  0.00    +0.149 HD
ATOM     64  H   UNK A   5     147.507 185.769 189.980  0.00  0.00    +0.150 HD
ATOM     65  HA  THR A   4     146.429 185.606 192.316  0.00  0.00    +0.062 HD
ATOM     66  H   THR A   4     144.991 183.428 190.973  0.00  0.00    +0.150 HD
ATOM     67  HA  ALA A   3     146.476 181.478 191.014  0.00  0.00    +0.059 HD
ATOM     68  H   ALA A   3     146.505 182.787 188.336  0.00  0.00    +0.149 HD
ATOM     69  H   UNK A   2     144.400 181.309 187.034  0.00  0.00    +0.060 HD
ATOM     70  H   UNK A   2     145.772 182.397 185.625  0.00  0.00    +0.150 HD
ENDROOT
BRANCH   1  71
ATOM     71  CB  ALA A   7     147.037 185.952 182.380  0.00  0.00    -0.038 C 
ATOM     72  HB1 ALA A   7     146.959 185.851 181.292  0.00  0.00    +0.025 HD
ATOM     73  HB2 ALA A   7     146.814 186.988 182.650  0.00  0.00    +0.025 HD
ATOM     74  HB3 ALA A   7     148.076 185.753 182.663  0.00  0.00    +0.025 HD
ENDBRANCH   1  71
BRANCH  36  75
ATOM     75  CB  ALA A   3     148.464 181.530 190.206  0.00  0.00    -0.038 C 
ATOM     76  HB1 ALA A   3     148.730 181.302 189.168  0.00  0.00    +0.025 HD
ATOM     77  HB2 ALA A   3     149.197 182.253 190.583  0.00  0.00    +0.025 HD
ATOM     78  HB3 ALA A   3     148.568 180.613 190.794  0.00  0.00    +0.025 HD
ENDBRANCH  36  75
BRANCH  40  79
ATOM     79  C   UNK A   2     145.320 179.427 186.485  0.00  0.00    +0.005 C 
ATOM     80  H   UNK A   2     144.641 178.868 187.146  0.00  0.00    +0.032 HD
ATOM     81  H   UNK A   2     146.292 178.926 186.578  0.00  0.00    +0.032 HD
BRANCH  79  82
ATOM     82  C   UNK A   2     144.786 179.252 185.047  0.00  0.00    +0.088 C 
BRANCH  82  83
ATOM     83  C   UNK A   2     143.725 178.142 185.050  0.00  0.00    -0.034 C 
ATOM     84  H   UNK A   2     143.508 177.806 186.071  0.00  0.00    +0.026 HD
ATOM     85  H   UNK A   2     142.776 178.509 184.644  0.00  0.00    +0.026 HD
ATOM     86  H   UNK A   2     144.045 177.278 184.459  0.00  0.00    +0.026 HD
ENDBRANCH  82  83
BRANCH  82  87
ATOM     87  C   UNK A   2     145.870 178.895 184.009  0.00  0.00    +0.073 C 
ATOM     88  H   UNK A   2     146.668 178.289 184.448  0.00  0.00    +0.059 HD
ATOM     89  H   UNK A   2     145.437 178.344 183.167  0.00  0.00    +0.059 HD
BRANCH  87  90
ATOM     90  O   UNK A   2     146.421 180.091 183.460  0.00  0.00    -0.392 OA
ATOM     91  H   UNK A   2     145.796 180.380 182.761  0.00  0.00    +0.210 HD
ENDBRANCH  87  90
ENDBRANCH  82  87
BRANCH  82  92
ATOM     92  O   UNK A   2     144.132 180.462 184.636  0.00  0.00    -0.387 OA
ATOM     93  H   UNK A   2     143.623 180.218 183.831  0.00  0.00    +0.210 HD
ENDBRANCH  82  92
ENDBRANCH  79  82
ENDBRANCH  40  79
BRANCH  23  94
ATOM     94  OD  HYP A   6     144.141 188.300 184.366  0.00  0.00    -0.390 OA
ATOM     95  HD  HYP A   6     145.069 188.559 184.520  0.00  0.00    +0.210 HD
ENDBRANCH  23  94
BRANCH  32  96
ATOM     96  CB  THR A   4     144.259 185.433 192.435  0.00  0.00    +0.079 C 
ATOM     97  HB  THR A   4     144.027 186.468 192.718  0.00  0.00    +0.061 HD
BRANCH  96  98
ATOM     98  CG2 THR A   4     144.280 184.559 193.685  0.00  0.00    -0.037 C 
ATOM     99 HG21 THR A   4     143.372 184.724 194.275  0.00  0.00    +0.026 HD
ATOM    100 HG22 THR A   4     145.146 184.772 194.318  0.00  0.00    +0.026 HD
ATOM    101 HG23 THR A   4     144.292 183.497 193.421  0.00  0.00    +0.026 HD
ENDBRANCH  96  98
BRANCH  96 102
ATOM    102  OG1 THR A   4     143.170 184.996 191.605  0.00  0.00    -0.390 OA
ATOM    103  HG1 THR A   4     143.433 185.119 190.675  0.00  0.00    +0.210 HD
ENDBRANCH  96 102
ENDBRANCH  32  96
TORSDOF 12
ENDMDL
MODEL 9
REMARK VINA RESULT:      -5.2      6.387     10.165
REMARK  Name = Phalloidin_conf1
REMARK  12 active torsions:
REMARK  status: ('A' for Active; 'I' for Inactive)
REMARK    1  A    between atoms: CB_1  and  CA_2
REMARK    2  A    between atoms: CG_24  and  OD_30
REMARK    3  A    between atoms: CA_34  and  CB_53
REMARK    4  A    between atoms: CA_38  and  CB_52
REMARK    5  A    between atoms: C_42  and  C_46
REMARK    6  A    between atoms: C_46  and  C_47
REMARK    7  A    between atoms: C_47  and  C_48
REMARK    8  A    between atoms: C_47  and  C_49
REMARK    9  A    between atoms: C_47  and  O_51
REMARK   10  A    between atoms: C_49  and  O_50
REMARK   11  A    between atoms: CB_53  and  CG2_54
REMARK   12  A    between atoms: CB_53  and  OG1_55
REMARK                            x       y       z     vdW  Elec       q    Type
REMARK                         _______ _______ _______ _____ _____    ______ ____
ROOT
ATOM      1  CA  ALA A   7     150.548 161.870 184.696  0.00  0.00    +0.097 C 
ATOM      2  C   ALA A   7     150.551 162.048 186.229  0.00  0.00    +0.234 C 
ATOM      3  O   ALA A   7     149.563 161.796 186.920  0.00  0.00    -0.274 OA
ATOM      4  N   UNK A   1     151.767 162.390 186.773  0.00  0.00    -0.302 N 
ATOM      5  C   UNK A   1     152.023 162.392 188.214  0.00  0.00    +0.103 C 
ATOM      6  C   UNK A   1     153.407 161.811 188.557  0.00  0.00    +0.002 C 
ATOM      7  C   UNK A   1     153.840 160.638 187.717  0.00  0.00    -0.006 A 
ATOM      8  C   UNK A   5     155.007 160.538 186.985  0.00  0.00    +0.078 A 
ATOM      9  N   UNK A   5     155.062 159.302 186.408  0.00  0.00    -0.349 N 
ATOM     10  C   UNK A   5     153.913 158.601 186.678  0.00  0.00    +0.048 A 
ATOM     11  C   UNK A   5     153.519 157.324 186.262  0.00  0.00    -0.038 A 
ATOM     12  C   UNK A   5     152.283 156.848 186.710  0.00  0.00    -0.060 A 
ATOM     13  C   UNK A   5     151.484 157.616 187.550  0.00  0.00    -0.061 A 
ATOM     14  C   UNK A   5     151.900 158.887 187.967  0.00  0.00    -0.052 A 
ATOM     15  C   UNK A   5     153.134 159.402 187.518  0.00  0.00    +0.004 A 
ATOM     16  S   UNK A   5     156.339 161.628 186.785  0.00  0.00    -0.105 S 
ATOM     17  C   UNK A   5     156.369 161.898 184.980  0.00  0.00    +0.027 C 
ATOM     18  C   UNK A   5     156.157 163.347 184.530  0.00  0.00    +0.109 C 
ATOM     19  C   UNK A   5     154.668 163.761 184.597  0.00  0.00    +0.237 C 
ATOM     20  O   UNK A   5     154.100 164.002 185.670  0.00  0.00    -0.274 OA
ATOM     21  N   HYP A   6     153.996 163.913 183.402  0.00  0.00    -0.286 N 
ATOM     22  CD  HYP A   6     154.485 163.600 182.064  0.00  0.00    +0.042 C 
ATOM     23  CG  HYP A   6     153.260 163.778 181.170  0.00  0.00    +0.073 C 
ATOM     24  CB  HYP A   6     152.518 164.931 181.838  0.00  0.00    +0.002 C 
ATOM     25  CA  HYP A   6     152.756 164.697 183.336  0.00  0.00    +0.105 C 
ATOM     26  C   HYP A   6     151.538 164.019 183.976  0.00  0.00    +0.234 C 
ATOM     27  O   HYP A   6     150.540 164.655 184.302  0.00  0.00    -0.274 OA
ATOM     28  N   ALA A   7     151.612 162.651 184.076  0.00  0.00    -0.303 N 
ATOM     29  N   UNK A   5     156.895 164.346 185.289  0.00  0.00    -0.302 N 
ATOM     30  C   THR A   4     157.098 165.608 184.770  0.00  0.00    +0.237 C 
ATOM     31  O   THR A   4     156.915 165.850 183.577  0.00  0.00    -0.274 OA
ATOM     32  CA  THR A   4     157.582 166.662 185.789  0.00  0.00    +0.125 C 
ATOM     33  N   THR A   4     156.583 166.783 186.860  0.00  0.00    -0.300 N 
ATOM     34  C   ALA A   3     156.523 165.919 187.929  0.00  0.00    +0.234 C 
ATOM     35  O   ALA A   3     157.281 164.955 188.011  0.00  0.00    -0.274 OA
ATOM     36  CA  ALA A   3     155.435 166.260 188.957  0.00  0.00    +0.097 C 
ATOM     37  N   ALA A   3     154.120 166.068 188.356  0.00  0.00    -0.303 N 
ATOM     38  C   UNK A   2     153.010 166.733 188.846  0.00  0.00    +0.234 C 
ATOM     39  O   UNK A   2     153.125 167.723 189.568  0.00  0.00    -0.274 OA
ATOM     40  C   UNK A   2     151.645 166.236 188.290  0.00  0.00    +0.102 C 
ATOM     41  N   UNK A   2     151.720 164.823 187.928  0.00  0.00    -0.302 N 
ATOM     42  C   UNK A   1     151.941 163.805 188.827  0.00  0.00    +0.234 C 
ATOM     43  O   UNK A   1     152.123 164.000 190.028  0.00  0.00    -0.274 OA
ATOM     44  HA  ALA A   7     149.585 162.236 184.321  0.00  0.00    +0.059 HD
ATOM     45  H   UNK A   1     152.517 162.697 186.158  0.00  0.00    +0.150 HD
ATOM     46  H   UNK A   1     151.244 161.800 188.705  0.00  0.00    +0.060 HD
ATOM     47  H   UNK A   1     154.157 162.608 188.474  0.00  0.00    +0.034 HD
ATOM     48  H   UNK A   1     153.421 161.507 189.613  0.00  0.00    +0.034 HD
ATOM     49  H   UNK A   5     155.843 158.948 185.877  0.00  0.00    +0.166 HD
ATOM     50  H   UNK A   5     154.144 156.716 185.618  0.00  0.00    +0.064 HD
ATOM     51  H   UNK A   5     151.947 155.860 186.403  0.00  0.00    +0.062 HD
ATOM     52  H   UNK A   5     150.527 157.229 187.892  0.00  0.00    +0.062 HD
ATOM     53  H   UNK A   5     151.259 159.466 188.625  0.00  0.00    +0.062 HD
ATOM     54  H   UNK A   5     157.367 161.579 184.658  0.00  0.00    +0.040 HD
ATOM     55  H   UNK A   5     155.649 161.243 184.477  0.00  0.00    +0.040 HD
ATOM     56  H   UNK A   5     156.510 163.415 183.498  0.00  0.00    +0.060 HD
ATOM     57  HD1 HYP A   6     154.897 162.587 182.048  0.00  0.00    +0.049 HD
ATOM     58  HD2 HYP A   6     155.263 164.328 181.813  0.00  0.00    +0.049 HD
ATOM     59  HG  HYP A   6     153.529 163.979 180.128  0.00  0.00    +0.061 HD
ATOM     60  HB1 HYP A   6     152.980 165.881 181.542  0.00  0.00    +0.031 HD
ATOM     61  HB2 HYP A   6     151.457 164.962 181.574  0.00  0.00    +0.031 HD
ATOM     62  HA  HYP A   6     152.911 165.643 183.869  0.00  0.00    +0.060 HD
ATOM     63  H   ALA A   7     152.394 162.179 183.630  0.00  0.00    +0.149 HD
ATOM     64  H   UNK A   5     157.035 164.198 186.293  0.00  0.00    +0.150 HD
ATOM     65  HA  THR A   4     158.517 166.307 186.242  0.00  0.00    +0.062 HD
ATOM     66  H   THR A   4     155.926 167.558 186.821  0.00  0.00    +0.150 HD
ATOM     67  HA  ALA A   3     155.553 167.315 189.231  0.00  0.00    +0.059 HD
ATOM     68  H   ALA A   3     153.970 165.307 187.698  0.00  0.00    +0.149 HD
ATOM     69  H   UNK A   2     151.513 166.772 187.343  0.00  0.00    +0.060 HD
ATOM     70  H   UNK A   2     151.319 164.555 187.031  0.00  0.00    +0.150 HD
ENDROOT
BRANCH   1  71
ATOM     71  CB  ALA A   7     150.724 160.393 184.368  0.00  0.00    -0.038 C 
ATOM     72  HB1 ALA A   7     150.839 160.238 183.290  0.00  0.00    +0.025 HD
ATOM     73  HB2 ALA A   7     151.605 159.985 184.873  0.00  0.00    +0.025 HD
ATOM     74  HB3 ALA A   7     149.855 159.816 184.701  0.00  0.00    +0.025 HD
ENDBRANCH   1  71
BRANCH  36  75
ATOM     75  CB  ALA A   3     155.578 165.405 190.211  0.00  0.00    -0.038 C 
ATOM     76  HB1 ALA A   3     156.438 164.732 190.131  0.00  0.00    +0.025 HD
ATOM     77  HB2 ALA A   3     155.728 166.027 191.101  0.00  0.00    +0.025 HD
ATOM     78  HB3 ALA A   3     154.684 164.796 190.376  0.00  0.00    +0.025 HD
ENDBRANCH  36  75
BRANCH  40  79
ATOM     79  C   UNK A   2     150.499 166.598 189.248  0.00  0.00    +0.005 C 
ATOM     80  H   UNK A   2     150.773 167.553 189.720  0.00  0.00    +0.032 HD
ATOM     81  H   UNK A   2     150.444 165.873 190.070  0.00  0.00    +0.032 HD
BRANCH  79  82
ATOM     82  C   UNK A   2     149.095 166.791 188.637  0.00  0.00    +0.088 C 
BRANCH  82  83
ATOM     83  C   UNK A   2     148.235 167.591 189.626  0.00  0.00    -0.034 C 
ATOM     84  H   UNK A   2     147.272 167.866 189.179  0.00  0.00    +0.026 HD
ATOM     85  H   UNK A   2     147.997 166.990 190.510  0.00  0.00    +0.026 HD
ATOM     86  H   UNK A   2     148.742 168.505 189.952  0.00  0.00    +0.026 HD
ENDBRANCH  82  83
BRANCH  82  87
ATOM     87  C   UNK A   2     148.365 165.473 188.301  0.00  0.00    +0.073 C 
ATOM     88  H   UNK A   2     148.492 164.727 189.092  0.00  0.00    +0.059 HD
ATOM     89  H   UNK A   2     147.292 165.648 188.157  0.00  0.00    +0.059 HD
BRANCH  87  90
ATOM     90  O   UNK A   2     148.853 164.955 187.066  0.00  0.00    -0.392 OA
ATOM     91  H   UNK A   2     148.060 164.720 186.539  0.00  0.00    +0.210 HD
ENDBRANCH  87  90
ENDBRANCH  82  87
BRANCH  82  92
ATOM     92  O   UNK A   2     149.204 167.576 187.439  0.00  0.00    -0.387 OA
ATOM     93  H   UNK A   2     148.284 167.663 187.104  0.00  0.00    +0.210 HD
ENDBRANCH  82  92
ENDBRANCH  79  82
ENDBRANCH  40  79
BRANCH  23  94
ATOM     94  OD  HYP A   6     152.474 162.587 181.209  0.00  0.00    -0.390 OA
ATOM     95  HD  HYP A   6     153.089 161.830 181.250  0.00  0.00    +0.210 HD
ENDBRANCH  23  94
BRANCH  32  96
ATOM     96  CB  THR A   4     157.809 168.032 185.111  0.00  0.00    +0.079 C 
ATOM     97  HB  THR A   4     157.787 167.924 184.019  0.00  0.00    +0.061 HD
BRANCH  96  98
ATOM     98  CG2 THR A   4     159.124 168.681 185.530  0.00  0.00    -0.037 C 
ATOM     99 HG21 THR A   4     158.961 169.736 185.778  0.00  0.00    +0.026 HD
ATOM    100 HG22 THR A   4     159.878 168.625 184.739  0.00  0.00    +0.026 HD
ATOM    101 HG23 THR A   4     159.526 168.207 186.431  0.00  0.00    +0.026 HD
ENDBRANCH  96  98
BRANCH  96 102
ATOM    102  OG1 THR A   4     156.741 168.935 185.442  0.00  0.00    -0.390 OA
ATOM    103  HG1 THR A   4     156.470 168.756 186.361  0.00  0.00    +0.210 HD
ENDBRANCH  96 102
ENDBRANCH  32  96
TORSDOF 12
ENDMDL
MODEL 10
REMARK VINA RESULT:      -5.2     13.579     18.409
REMARK  Name = Phalloidin_conf1
REMARK  12 active torsions:
REMARK  status: ('A' for Active; 'I' for Inactive)
REMARK    1  A    between atoms: CB_1  and  CA_2
REMARK    2  A    between atoms: CG_24  and  OD_30
REMARK    3  A    between atoms: CA_34  and  CB_53
REMARK    4  A    between atoms: CA_38  and  CB_52
REMARK    5  A    between atoms: C_42  and  C_46
REMARK    6  A    between atoms: C_46  and  C_47
REMARK    7  A    between atoms: C_47  and  C_48
REMARK    8  A    between atoms: C_47  and  C_49
REMARK    9  A    between atoms: C_47  and  O_51
REMARK   10  A    between atoms: C_49  and  O_50
REMARK   11  A    between atoms: CB_53  and  CG2_54
REMARK   12  A    between atoms: CB_53  and  OG1_55
REMARK                            x       y       z     vdW  Elec       q    Type
REMARK                         _______ _______ _______ _____ _____    ______ ____
ROOT
ATOM      1  CA  ALA A   7     147.490 186.772 188.974  0.00  0.00    +0.097 C 
ATOM      2  C   ALA A   7     146.185 186.030 188.619  0.00  0.00    +0.234 C 
ATOM      3  O   ALA A   7     145.288 185.852 189.443  0.00  0.00    -0.274 OA
ATOM      4  N   UNK A   1     146.048 185.694 187.292  0.00  0.00    -0.302 N 
ATOM      5  C   UNK A   1     144.800 185.185 186.723  0.00  0.00    +0.103 C 
ATOM      6  C   UNK A   1     144.504 185.794 185.340  0.00  0.00    +0.002 C 
ATOM      7  C   UNK A   1     144.865 187.248 185.184  0.00  0.00    -0.006 A 
ATOM      8  C   UNK A   5     145.690 187.791 184.219  0.00  0.00    +0.078 A 
ATOM      9  N   UNK A   5     145.721 189.146 184.376  0.00  0.00    -0.349 N 
ATOM     10  C   UNK A   5     144.994 189.513 185.481  0.00  0.00    +0.048 A 
ATOM     11  C   UNK A   5     144.786 190.778 186.043  0.00  0.00    -0.038 A 
ATOM     12  C   UNK A   5     143.974 190.858 187.178  0.00  0.00    -0.060 A 
ATOM     13  C   UNK A   5     143.385 189.719 187.717  0.00  0.00    -0.061 A 
ATOM     14  C   UNK A   5     143.594 188.462 187.135  0.00  0.00    -0.052 A 
ATOM     15  C   UNK A   5     144.422 188.347 185.998  0.00  0.00    +0.004 A 
ATOM     16  S   UNK A   5     146.542 187.070 182.894  0.00  0.00    -0.105 S 
ATOM     17  C   UNK A   5     148.277 187.510 183.246  0.00  0.00    +0.027 C 
ATOM     18  C   UNK A   5     149.226 186.325 183.455  0.00  0.00    +0.109 C 
ATOM     19  C   UNK A   5     149.068 185.698 184.860  0.00  0.00    +0.237 C 
ATOM     20  O   UNK A   5     148.100 184.988 185.158  0.00  0.00    -0.274 OA
ATOM     21  N   HYP A   6     150.084 185.911 185.769  0.00  0.00    -0.286 N 
ATOM     22  CD  HYP A   6     151.248 186.776 185.611  0.00  0.00    +0.042 C 
ATOM     23  CG  HYP A   6     151.905 186.769 186.989  0.00  0.00    +0.073 C 
ATOM     24  CB  HYP A   6     151.636 185.352 187.485  0.00  0.00    +0.002 C 
ATOM     25  CA  HYP A   6     150.238 185.034 186.937  0.00  0.00    +0.105 C 
ATOM     26  C   HYP A   6     149.175 185.230 188.025  0.00  0.00    +0.234 C 
ATOM     27  O   HYP A   6     148.961 184.375 188.881  0.00  0.00    -0.274 OA
ATOM     28  N   ALA A   7     148.550 186.452 188.024  0.00  0.00    -0.303 N 
ATOM     29  N   UNK A   5     149.075 185.236 182.501  0.00  0.00    -0.302 N 
ATOM     30  C   THR A   4     150.084 184.309 182.333  0.00  0.00    +0.237 C 
ATOM     31  O   THR A   4     151.221 184.513 182.759  0.00  0.00    -0.274 OA
ATOM     32  CA  THR A   4     149.676 183.034 181.565  0.00  0.00    +0.125 C 
ATOM     33  N   THR A   4     148.585 182.369 182.292  0.00  0.00    -0.300 N 
ATOM     34  C   ALA A   3     147.268 182.745 182.171  0.00  0.00    +0.234 C 
ATOM     35  O   ALA A   3     146.942 183.708 181.481  0.00  0.00    -0.274 OA
ATOM     36  CA  ALA A   3     146.287 181.882 182.978  0.00  0.00    +0.097 C 
ATOM     37  N   ALA A   3     146.518 182.087 184.404  0.00  0.00    -0.303 N 
ATOM     38  C   UNK A   2     146.148 181.129 185.330  0.00  0.00    +0.234 C 
ATOM     39  O   UNK A   2     145.916 179.968 184.990  0.00  0.00    -0.274 OA
ATOM     40  C   UNK A   2     146.206 181.589 186.814  0.00  0.00    +0.102 C 
ATOM     41  N   UNK A   2     145.978 183.028 186.918  0.00  0.00    -0.302 N 
ATOM     42  C   UNK A   1     144.801 183.651 186.572  0.00  0.00    +0.234 C 
ATOM     43  O   UNK A   1     143.832 183.045 186.115  0.00  0.00    -0.274 OA
ATOM     44  HA  ALA A   7     147.804 186.436 189.969  0.00  0.00    +0.059 HD
ATOM     45  H   UNK A   1     146.857 185.758 186.678  0.00  0.00    +0.150 HD
ATOM     46  H   UNK A   1     143.983 185.425 187.412  0.00  0.00    +0.060 HD
ATOM     47  H   UNK A   1     145.030 185.209 184.575  0.00  0.00    +0.034 HD
ATOM     48  H   UNK A   1     143.435 185.674 185.112  0.00  0.00    +0.034 HD
ATOM     49  H   UNK A   5     146.196 189.787 183.759  0.00  0.00    +0.166 HD
ATOM     50  H   UNK A   5     145.232 191.670 185.619  0.00  0.00    +0.064 HD
ATOM     51  H   UNK A   5     143.794 191.826 187.640  0.00  0.00    +0.062 HD
ATOM     52  H   UNK A   5     142.753 189.801 188.598  0.00  0.00    +0.062 HD
ATOM     53  H   UNK A   5     143.121 187.589 187.573  0.00  0.00    +0.062 HD
ATOM     54  H   UNK A   5     148.616 188.073 182.369  0.00  0.00    +0.040 HD
ATOM     55  H   UNK A   5     148.339 188.191 184.103  0.00  0.00    +0.040 HD
ATOM     56  H   UNK A   5     150.244 186.706 183.336  0.00  0.00    +0.060 HD
ATOM     57  HD1 HYP A   6     150.929 187.769 185.282  0.00  0.00    +0.049 HD
ATOM     58  HD2 HYP A   6     151.903 186.323 184.861  0.00  0.00    +0.049 HD
ATOM     59  HG  HYP A   6     152.970 187.019 186.945  0.00  0.00    +0.061 HD
ATOM     60  HB1 HYP A   6     152.365 184.665 187.036  0.00  0.00    +0.031 HD
ATOM     61  HB2 HYP A   6     151.698 185.264 188.574  0.00  0.00    +0.031 HD
ATOM     62  HA  HYP A   6     150.166 183.991 186.604  0.00  0.00    +0.060 HD
ATOM     63  H   ALA A   7     148.900 187.169 187.394  0.00  0.00    +0.149 HD
ATOM     64  H   UNK A   5     148.138 185.012 182.152  0.00  0.00    +0.150 HD
ATOM     65  HA  THR A   4     149.292 183.327 180.579  0.00  0.00    +0.062 HD
ATOM     66  H   THR A   4     148.815 181.578 182.887  0.00  0.00    +0.150 HD
ATOM     67  HA  ALA A   3     146.485 180.832 182.732  0.00  0.00    +0.059 HD
ATOM     68  H   ALA A   3     146.777 183.009 184.747  0.00  0.00    +0.149 HD
ATOM     69  H   UNK A   2     147.249 181.437 187.116  0.00  0.00    +0.060 HD
ATOM     70  H   UNK A   2     146.606 183.551 187.524  0.00  0.00    +0.150 HD
ENDROOT
BRANCH   1  71
ATOM     71  CB  ALA A   7     147.224 188.272 188.975  0.00  0.00    -0.038 C 
ATOM     72  HB1 ALA A   7     147.234 188.676 189.993  0.00  0.00    +0.025 HD
ATOM     73  HB2 ALA A   7     147.978 188.801 188.384  0.00  0.00    +0.025 HD
ATOM     74  HB3 ALA A   7     146.246 188.492 188.535  0.00  0.00    +0.025 HD
ENDBRANCH   1  71
BRANCH  36  75
ATOM     75  CB  ALA A   3     144.843 182.210 182.618  0.00  0.00    -0.038 C 
ATOM     76  HB1 ALA A   3     144.363 182.794 183.411  0.00  0.00    +0.025 HD
ATOM     77  HB2 ALA A   3     144.787 182.799 181.695  0.00  0.00    +0.025 HD
ATOM     78  HB3 ALA A   3     144.258 181.297 182.467  0.00  0.00    +0.025 HD
ENDBRANCH  36  75
BRANCH  40  79
ATOM     79  C   UNK A   2     145.288 180.724 187.692  0.00  0.00    +0.005 C 
ATOM     80  H   UNK A   2     145.446 179.680 187.382  0.00  0.00    +0.032 HD
ATOM     81  H   UNK A   2     144.235 180.937 187.469  0.00  0.00    +0.032 HD
BRANCH  79  82
ATOM     82  C   UNK A   2     145.510 180.772 189.219  0.00  0.00    +0.088 C 
BRANCH  82  83
ATOM     83  C   UNK A   2     144.514 181.769 189.829  0.00  0.00    -0.034 C 
ATOM     84  H   UNK A   2     144.441 181.639 190.915  0.00  0.00    +0.026 HD
ATOM     85  H   UNK A   2     144.846 182.800 189.669  0.00  0.00    +0.026 HD
ATOM     86  H   UNK A   2     143.515 181.654 189.395  0.00  0.00    +0.026 HD
ENDBRANCH  82  83
BRANCH  82  87
ATOM     87  C   UNK A   2     146.938 181.183 189.638  0.00  0.00    +0.073 C 
ATOM     88  H   UNK A   2     147.318 182.008 189.025  0.00  0.00    +0.059 HD
ATOM     89  H   UNK A   2     146.962 181.490 190.689  0.00  0.00    +0.059 HD
BRANCH  87  90
ATOM     90  O   UNK A   2     147.811 180.061 189.530  0.00  0.00    -0.392 OA
ATOM     91  H   UNK A   2     148.227 179.957 190.413  0.00  0.00    +0.210 HD
ENDBRANCH  87  90
ENDBRANCH  82  87
BRANCH  82  92
ATOM     92  O   UNK A   2     145.218 179.483 189.780  0.00  0.00    -0.387 OA
ATOM     93  H   UNK A   2     146.082 179.141 190.100  0.00  0.00    +0.210 HD
ENDBRANCH  82  92
ENDBRANCH  79  82
ENDBRANCH  40  79
BRANCH  23  94
ATOM     94  OD  HYP A   6     151.253 187.724 187.826  0.00  0.00    -0.390 OA
ATOM     95  HD  HYP A   6     151.563 188.610 187.557  0.00  0.00    +0.210 HD
ENDBRANCH  23  94
BRANCH  32  96
ATOM     96  CB  THR A   4     150.875 182.073 181.402  0.00  0.00    +0.079 C 
ATOM     97  HB  THR A   4     151.724 182.597 180.943  0.00  0.00    +0.061 HD
BRANCH  96  98
ATOM     98  CG2 THR A   4     150.530 180.843 180.570  0.00  0.00    -0.037 C 
ATOM     99 HG21 THR A   4     151.182 180.788 179.691  0.00  0.00    +0.026 HD
ATOM    100 HG22 THR A   4     149.491 180.858 180.229  0.00  0.00    +0.026 HD
ATOM    101 HG23 THR A   4     150.698 179.923 181.141  0.00  0.00    +0.026 HD
ENDBRANCH  96  98
BRANCH  96 102
ATOM    102  OG1 THR A   4     151.334 181.626 182.689  0.00  0.00    -0.390 OA
ATOM    103  HG1 THR A   4     152.058 182.214 182.971  0.00  0.00    +0.210 HD
ENDBRANCH  96 102
ENDBRANCH  32  96
TORSDOF 12
ENDMDL
