MODEL 1
REMARK VINA RESULT:      -5.2      0.000      0.000
REMARK  Name = Reidispongiolide A_conf1
REMARK  33 active torsions:
REMARK  status: ('A' for Active; 'I' for Inactive)
REMARK    1  A    between atoms: C_1  and  C_2
REMARK    2  A    between atoms: C_5  and  O_67
REMARK    3  A    between atoms: C_7  and  O_65
REMARK    4  A    between atoms: C_8  and  C_64
REMARK    5  A    between atoms: C_17  and  O_62
REMARK    6  A    between atoms: C_19  and  C_61
REMARK    7  A    between atoms: C_26  and  C_38
REMARK    8  A    between atoms: C_27  and  C_37
REMARK    9  A    between atoms: C_30  and  O_35
REMARK   10  A    between atoms: C_32  and  O_33
REMARK   11  A    between atoms: O_33  and  C_34
REMARK   12  A    between atoms: O_35  and  C_36
REMARK   13  A    between atoms: C_38  and  C_39
REMARK   14  A    between atoms: C_38  and  C_40
REMARK   15  A    between atoms: C_40  and  C_41
REMARK   16  A    between atoms: C_40  and  O_59
REMARK   17  A    between atoms: C_41  and  C_42
REMARK   18  A    between atoms: C_41  and  C_43
REMARK   19  A    between atoms: C_43  and  C_44
REMARK   20  A    between atoms: C_44  and  C_45
REMARK   21  A    between atoms: C_45  and  C_47
REMARK   22  A    between atoms: C_47  and  C_48
REMARK   23  A    between atoms: C_47  and  C_49
REMARK   24  A    between atoms: C_49  and  C_50
REMARK   25  A    between atoms: C_49  and  O_57
REMARK   26  A    between atoms: C_50  and  C_51
REMARK   27  A    between atoms: C_52  and  N_53
REMARK   28  A    between atoms: N_53  and  C_54
REMARK   29  A    between atoms: O_57  and  C_58
REMARK   30  A    between atoms: O_59  and  C_60
REMARK   31  A    between atoms: O_62  and  C_63
REMARK   32  A    between atoms: O_65  and  C_66
REMARK   33  A    between atoms: O_67  and  C_68
REMARK                            x       y       z     vdW  Elec       q    Type
REMARK                         _______ _______ _______ _____ _____    ______ ____
ROOT
ATOM      1  C   UNL     1     152.510 161.808 185.550  0.00  0.00    +0.001 C 
ATOM      2  C   UNL     1     151.030 161.990 185.262  0.00  0.00    -0.080 C 
ATOM      3  C   UNL     1     150.176 162.634 186.074  0.00  0.00    -0.059 C 
ATOM      4  C   UNL     1     148.700 162.765 185.809  0.00  0.00    +0.079 C 
ATOM      5  C   UNL     1     148.033 163.934 186.556  0.00  0.00    +0.004 C 
ATOM      6  C   UNL     1     148.504 165.335 186.115  0.00  0.00    +0.067 C 
ATOM      7  C   UNL     1     147.324 166.315 185.810  0.00  0.00    +0.020 C 
ATOM      8  C   UNL     1     146.254 166.445 186.941  0.00  0.00    +0.112 C 
ATOM      9  C   UNL     1     146.686 167.180 188.219  0.00  0.00    +0.006 C 
ATOM     10  C   UNL     1     146.607 168.676 188.068  0.00  0.00    -0.057 C 
ATOM     11  C   UNL     1     145.826 169.211 187.118  0.00  0.00    +0.022 C 
ATOM     12  C   UNL     1     144.954 168.391 186.263  0.00  0.00    +0.332 C 
ATOM     13  O   UNL     1     144.156 168.914 185.496  0.00  0.00    -0.246 OA
ATOM     14  O   UNL     1     145.048 167.048 186.409  0.00  0.00    -0.458 OA
ATOM     15  C   UNL     1     147.404 169.539 189.026  0.00  0.00    -0.004 C 
ATOM     16  C   UNL     1     146.955 169.399 190.504  0.00  0.00    +0.066 C 
ATOM     17  C   UNL     1     147.938 170.107 191.475  0.00  0.00    -0.005 C 
ATOM     18  C   UNL     1     149.358 169.563 191.618  0.00  0.00    -0.070 C 
ATOM     19  C   UNL     1     149.715 168.355 191.149  0.00  0.00    -0.062 C 
ATOM     20  C   UNL     1     151.021 167.758 191.071  0.00  0.00    -0.055 C 
ATOM     21  C   UNL     1     151.817 167.400 192.091  0.00  0.00    +0.023 C 
ATOM     22  C   UNL     1     153.019 166.559 191.866  0.00  0.00    +0.332 C 
ATOM     23  O   UNL     1     153.598 165.967 192.761  0.00  0.00    -0.246 OA
ATOM     24  O   UNL     1     153.286 166.471 190.544  0.00  0.00    -0.457 OA
ATOM     25  C   UNL     1     154.093 165.363 190.049  0.00  0.00    +0.114 C 
ATOM     26  C   UNL     1     153.161 164.097 190.050  0.00  0.00    +0.012 C 
ATOM     27  C   UNL     1     153.842 162.792 189.684  0.00  0.00    -0.079 C 
ATOM     28  C   UNL     1     153.336 161.830 188.890  0.00  0.00    -0.059 C 
ATOM     29  C   UNL     1     153.970 160.521 188.486  0.00  0.00    +0.079 C 
ATOM     30  C   UNL     1     154.119 160.372 186.955  0.00  0.00    +0.004 C 
ATOM     31  C   UNL     1     152.772 160.409 186.193  0.00  0.00    +0.067 C 
ATOM     32  H   UNL     1     152.812 162.587 186.258  0.00  0.00    +0.037 HD
ATOM     33  H   UNL     1     150.655 161.517 184.354  0.00  0.00    +0.057 HD
ATOM     34  H   UNL     1     150.532 163.060 187.006  0.00  0.00    +0.059 HD
ATOM     35  H   UNL     1     148.517 162.887 184.731  0.00  0.00    +0.064 HD
ATOM     36  H   UNL     1     148.174 163.805 187.638  0.00  0.00    +0.032 HD
ATOM     37  H   UNL     1     146.957 163.809 186.390  0.00  0.00    +0.032 HD
ATOM     38  H   UNL     1     149.111 165.236 185.205  0.00  0.00    +0.060 HD
ATOM     39  H   UNL     1     147.737 167.317 185.641  0.00  0.00    +0.036 HD
ATOM     40  H   UNL     1     145.941 165.442 187.247  0.00  0.00    +0.074 HD
ATOM     41  H   UNL     1     147.684 166.874 188.535  0.00  0.00    +0.035 HD
ATOM     42  H   UNL     1     146.001 166.898 189.033  0.00  0.00    +0.035 HD
ATOM     43  H   UNL     1     145.727 170.282 186.983  0.00  0.00    +0.069 HD
ATOM     44  H   UNL     1     148.460 169.276 188.902  0.00  0.00    +0.034 HD
ATOM     45  H   UNL     1     147.313 170.593 188.730  0.00  0.00    +0.034 HD
ATOM     46  H   UNL     1     146.861 168.340 190.772  0.00  0.00    +0.060 HD
ATOM     47  H   UNL     1     147.995 171.161 191.164  0.00  0.00    +0.034 HD
ATOM     48  H   UNL     1     147.492 170.130 192.478  0.00  0.00    +0.034 HD
ATOM     49  H   UNL     1     148.975 167.726 190.652  0.00  0.00    +0.062 HD
ATOM     50  H   UNL     1     151.286 167.492 190.049  0.00  0.00    +0.062 HD
ATOM     51  H   UNL     1     151.557 167.582 193.126  0.00  0.00    +0.069 HD
ATOM     52  H   UNL     1     154.934 165.210 190.735  0.00  0.00    +0.074 HD
ATOM     53  H   UNL     1     152.843 163.960 191.095  0.00  0.00    +0.038 HD
ATOM     54  H   UNL     1     154.815 162.623 190.141  0.00  0.00    +0.057 HD
ATOM     55  H   UNL     1     152.332 161.956 188.492  0.00  0.00    +0.059 HD
ATOM     56  H   UNL     1     153.319 159.720 188.866  0.00  0.00    +0.064 HD
ATOM     57  H   UNL     1     154.797 161.151 186.583  0.00  0.00    +0.032 HD
ATOM     58  H   UNL     1     154.650 159.436 186.746  0.00  0.00    +0.032 HD
ATOM     59  H   UNL     1     151.949 160.169 186.882  0.00  0.00    +0.060 HD
ENDROOT
BRANCH   1  60
ATOM     60  C   UNL     1     153.301 162.031 184.254  0.00  0.00    -0.057 C 
ATOM     61  H   UNL     1     154.205 161.413 184.214  0.00  0.00    +0.024 HD
ATOM     62  H   UNL     1     152.692 161.775 183.382  0.00  0.00    +0.024 HD
ATOM     63  H   UNL     1     153.608 163.077 184.150  0.00  0.00    +0.024 HD
ENDBRANCH   1  60
BRANCH  26  64
ATOM     64  C   UNL     1     151.858 164.355 189.271  0.00  0.00    -0.056 C 
ATOM     65  H   UNL     1     151.262 163.448 189.151  0.00  0.00    +0.024 HD
ATOM     66  H   UNL     1     151.231 165.102 189.769  0.00  0.00    +0.024 HD
ATOM     67  H   UNL     1     152.067 164.702 188.252  0.00  0.00    +0.024 HD
ENDBRANCH  26  64
BRANCH  18  68
ATOM     68  C   UNL     1     150.303 170.527 192.289  0.00  0.00    -0.043 C 
ATOM     69  H   UNL     1     151.337 170.276 192.029  0.00  0.00    +0.027 HD
ATOM     70  H   UNL     1     150.200 170.460 193.379  0.00  0.00    +0.027 HD
ATOM     71  H   UNL     1     150.136 171.568 192.008  0.00  0.00    +0.027 HD
ENDBRANCH  18  68
BRANCH   7  72
ATOM     72  C   UNL     1     146.680 165.896 184.474  0.00  0.00    -0.057 C 
ATOM     73  H   UNL     1     145.654 165.548 184.634  0.00  0.00    +0.023 HD
ATOM     74  H   UNL     1     146.651 166.725 183.761  0.00  0.00    +0.023 HD
ATOM     75  H   UNL     1     147.224 165.069 184.007  0.00  0.00    +0.023 HD
ENDBRANCH   7  72
BRANCH  25  76
ATOM     76  C   UNL     1     154.636 165.853 188.671  0.00  0.00    +0.020 C 
ATOM     77  H   UNL     1     154.269 165.148 187.911  0.00  0.00    +0.036 HD
BRANCH  76  78
ATOM     78  C   UNL     1     153.965 167.185 188.275  0.00  0.00    -0.057 C 
ATOM     79  H   UNL     1     154.378 167.554 187.330  0.00  0.00    +0.023 HD
ATOM     80  H   UNL     1     154.132 167.973 189.013  0.00  0.00    +0.023 HD
ATOM     81  H   UNL     1     152.889 167.066 188.125  0.00  0.00    +0.023 HD
ENDBRANCH  76  78
BRANCH  76  82
ATOM     82  C   UNL     1     156.181 165.882 188.514  0.00  0.00    +0.067 C 
ATOM     83  H   UNL     1     156.450 166.904 188.228  0.00  0.00    +0.060 HD
BRANCH  82  84
ATOM     84  C   UNL     1     156.833 164.916 187.474  0.00  0.00    -0.017 C 
ATOM     85  H   UNL     1     157.266 164.070 188.017  0.00  0.00    +0.032 HD
BRANCH  84  86
ATOM     86  C   UNL     1     155.704 164.355 186.589  0.00  0.00    -0.060 C 
ATOM     87  H   UNL     1     155.012 165.143 186.280  0.00  0.00    +0.023 HD
ATOM     88  H   UNL     1     156.098 163.882 185.684  0.00  0.00    +0.023 HD
ATOM     89  H   UNL     1     155.103 163.623 187.132  0.00  0.00    +0.023 HD
ENDBRANCH  84  86
BRANCH  84  90
ATOM     90  C   UNL     1     157.944 165.572 186.612  0.00  0.00    -0.041 C 
ATOM     91  H   UNL     1     158.922 165.245 186.976  0.00  0.00    +0.027 HD
ATOM     92  H   UNL     1     157.905 166.659 186.760  0.00  0.00    +0.027 HD
BRANCH  90  93
ATOM     93  C   UNL     1     157.900 165.335 185.101  0.00  0.00    +0.007 C 
ATOM     94  H   UNL     1     157.089 164.616 184.907  0.00  0.00    +0.034 HD
ATOM     95  H   UNL     1     158.796 164.858 184.693  0.00  0.00    +0.034 HD
BRANCH  93  96
ATOM     96  C   UNL     1     157.558 166.564 184.277  0.00  0.00    +0.139 C 
ATOM     97  O   UNL     1     157.704 166.534 183.052  0.00  0.00    -0.297 OA
BRANCH  96  98
ATOM     98  C   UNL     1     157.075 167.813 185.010  0.00  0.00    +0.041 C 
ATOM     99  H   UNL     1     157.411 167.741 186.050  0.00  0.00    +0.040 HD
BRANCH  98 100
ATOM    100  C   UNL     1     155.547 167.815 185.012  0.00  0.00    -0.053 C 
ATOM    101  H   UNL     1     155.140 168.614 184.387  0.00  0.00    +0.024 HD
ATOM    102  H   UNL     1     155.166 167.946 186.031  0.00  0.00    +0.024 HD
ATOM    103  H   UNL     1     155.155 166.870 184.626  0.00  0.00    +0.024 HD
ENDBRANCH  98 100
BRANCH  98 104
ATOM    104  C   UNL     1     157.661 169.119 184.415  0.00  0.00    +0.071 C 
ATOM    105  H   UNL     1     157.352 169.153 183.360  0.00  0.00    +0.061 HD
BRANCH 104 106
ATOM    106  C   UNL     1     157.151 170.399 185.121  0.00  0.00    -0.006 C 
ATOM    107  H   UNL     1     156.217 170.193 185.660  0.00  0.00    +0.033 HD
ATOM    108  H   UNL     1     157.860 170.691 185.906  0.00  0.00    +0.033 HD
BRANCH 106 109
ATOM    109  C   UNL     1     156.928 171.555 184.177  0.00  0.00    -0.067 C 
ATOM    110  C   UNL     1     157.851 172.500 183.947  0.00  0.00    -0.005 C 
ATOM    111  H   UNL     1     155.961 171.582 183.690  0.00  0.00    +0.059 HD
ATOM    112  H   UNL     1     158.802 172.439 184.479  0.00  0.00    +0.078 HD
BRANCH 110 113
ATOM    113  N   UNL     1     157.756 173.577 183.080  0.00  0.00    -0.284 N 
ATOM    114  C   UNL     1     158.818 174.152 182.387  0.00  0.00    +0.206 C 
ATOM    115  O   UNL     1     158.757 175.131 181.651  0.00  0.00    -0.279 OA
ATOM    116  H   UNL     1     159.781 173.647 182.547  0.00  0.00    +0.126 HD
BRANCH 113 117
ATOM    117  C   UNL     1     156.436 174.172 182.898  0.00  0.00    +0.007 C 
ATOM    118  H   UNL     1     156.078 174.538 183.867  0.00  0.00    +0.043 HD
ATOM    119  H   UNL     1     156.506 175.008 182.192  0.00  0.00    +0.043 HD
ATOM    120  H   UNL     1     155.707 173.455 182.509  0.00  0.00    +0.043 HD
ENDBRANCH 113 117
ENDBRANCH 110 113
ENDBRANCH 106 109
ENDBRANCH 104 106
BRANCH 104 121
ATOM    121  O   UNL     1     159.092 169.066 184.461  0.00  0.00    -0.379 OA
BRANCH 121 122
ATOM    122  C   UNL     1     159.640 169.320 185.747  0.00  0.00    +0.037 C 
ATOM    123  H   UNL     1     159.267 168.608 186.487  0.00  0.00    +0.052 HD
ATOM    124  H   UNL     1     159.415 170.343 186.061  0.00  0.00    +0.052 HD
ATOM    125  H   UNL     1     160.726 169.212 185.682  0.00  0.00    +0.052 HD
ENDBRANCH 121 122
ENDBRANCH 104 121
ENDBRANCH  98 104
ENDBRANCH  96  98
ENDBRANCH  93  96
ENDBRANCH  90  93
ENDBRANCH  84  90
ENDBRANCH  82  84
BRANCH  82 126
ATOM    126  O   UNL     1     156.787 165.621 189.795  0.00  0.00    -0.379 OA
BRANCH 126 127
ATOM    127  C   UNL     1     157.291 164.301 189.922  0.00  0.00    +0.037 C 
ATOM    128  H   UNL     1     157.459 164.071 190.978  0.00  0.00    +0.052 HD
ATOM    129  H   UNL     1     156.607 163.571 189.478  0.00  0.00    +0.052 HD
ATOM    130  H   UNL     1     158.251 164.247 189.399  0.00  0.00    +0.052 HD
ENDBRANCH 126 127
ENDBRANCH  82 126
ENDBRANCH  76  82
ENDBRANCH  25  76
BRANCH  31 131
ATOM    131  O   UNL     1     152.781 159.419 185.145  0.00  0.00    -0.379 OA
BRANCH 131 132
ATOM    132  C   UNL     1     152.073 158.234 185.491  0.00  0.00    +0.037 C 
ATOM    133  H   UNL     1     151.042 158.288 185.125  0.00  0.00    +0.052 HD
ATOM    134  H   UNL     1     152.080 158.071 186.571  0.00  0.00    +0.052 HD
ATOM    135  H   UNL     1     152.569 157.389 185.010  0.00  0.00    +0.052 HD
ENDBRANCH 131 132
ENDBRANCH  31 131
BRANCH  29 136
ATOM    136  O   UNL     1     155.262 160.421 189.097  0.00  0.00    -0.376 OA
BRANCH 136 137
ATOM    137  C   UNL     1     155.472 159.162 189.725  0.00  0.00    +0.037 C 
ATOM    138  H   UNL     1     155.342 159.240 190.809  0.00  0.00    +0.052 HD
ATOM    139  H   UNL     1     154.736 158.457 189.331  0.00  0.00    +0.052 HD
ATOM    140  H   UNL     1     156.471 158.778 189.490  0.00  0.00    +0.052 HD
ENDBRANCH 136 137
ENDBRANCH  29 136
BRANCH  16 141
ATOM    141  O   UNL     1     145.663 170.030 190.616  0.00  0.00    -0.379 OA
BRANCH 141 142
ATOM    142  C   UNL     1     145.718 171.440 190.441  0.00  0.00    +0.037 C 
ATOM    143  H   UNL     1     144.990 171.719 189.675  0.00  0.00    +0.052 HD
ATOM    144  H   UNL     1     145.450 171.940 191.377  0.00  0.00    +0.052 HD
ATOM    145  H   UNL     1     146.711 171.765 190.115  0.00  0.00    +0.052 HD
ENDBRANCH 141 142
ENDBRANCH  16 141
BRANCH   6 146
ATOM    146  O   UNL     1     149.337 165.859 187.161  0.00  0.00    -0.379 OA
BRANCH 146 147
ATOM    147  C   UNL     1     150.156 166.944 186.740  0.00  0.00    +0.037 C 
ATOM    148  H   UNL     1     149.747 167.334 185.805  0.00  0.00    +0.052 HD
ATOM    149  H   UNL     1     150.139 167.746 187.486  0.00  0.00    +0.052 HD
ATOM    150  H   UNL     1     151.183 166.620 186.556  0.00  0.00    +0.052 HD
ENDBRANCH 146 147
ENDBRANCH   6 146
BRANCH   4 151
ATOM    151  O   UNL     1     148.081 161.569 186.307  0.00  0.00    -0.376 OA
BRANCH 151 152
ATOM    152  C   UNL     1     147.458 161.760 187.570  0.00  0.00    +0.037 C 
ATOM    153  H   UNL     1     147.500 162.826 187.816  0.00  0.00    +0.052 HD
ATOM    154  H   UNL     1     147.981 161.203 188.354  0.00  0.00    +0.052 HD
ATOM    155  H   UNL     1     146.407 161.457 187.528  0.00  0.00    +0.052 HD
ENDBRANCH 151 152
ENDBRANCH   4 151
TORSDOF 33
ENDMDL
MODEL 2
REMARK VINA RESULT:      -5.2      3.758     10.193
REMARK  Name = Reidispongiolide A_conf1
REMARK  33 active torsions:
REMARK  status: ('A' for Active; 'I' for Inactive)
REMARK    1  A    between atoms: C_1  and  C_2
REMARK    2  A    between atoms: C_5  and  O_67
REMARK    3  A    between atoms: C_7  and  O_65
REMARK    4  A    between atoms: C_8  and  C_64
REMARK    5  A    between atoms: C_17  and  O_62
REMARK    6  A    between atoms: C_19  and  C_61
REMARK    7  A    between atoms: C_26  and  C_38
REMARK    8  A    between atoms: C_27  and  C_37
REMARK    9  A    between atoms: C_30  and  O_35
REMARK   10  A    between atoms: C_32  and  O_33
REMARK   11  A    between atoms: O_33  and  C_34
REMARK   12  A    between atoms: O_35  and  C_36
REMARK   13  A    between atoms: C_38  and  C_39
REMARK   14  A    between atoms: C_38  and  C_40
REMARK   15  A    between atoms: C_40  and  C_41
REMARK   16  A    between atoms: C_40  and  O_59
REMARK   17  A    between atoms: C_41  and  C_42
REMARK   18  A    between atoms: C_41  and  C_43
REMARK   19  A    between atoms: C_43  and  C_44
REMARK   20  A    between atoms: C_44  and  C_45
REMARK   21  A    between atoms: C_45  and  C_47
REMARK   22  A    between atoms: C_47  and  C_48
REMARK   23  A    between atoms: C_47  and  C_49
REMARK   24  A    between atoms: C_49  and  C_50
REMARK   25  A    between atoms: C_49  and  O_57
REMARK   26  A    between atoms: C_50  and  C_51
REMARK   27  A    between atoms: C_52  and  N_53
REMARK   28  A    between atoms: N_53  and  C_54
REMARK   29  A    between atoms: O_57  and  C_58
REMARK   30  A    between atoms: O_59  and  C_60
REMARK   31  A    between atoms: O_62  and  C_63
REMARK   32  A    between atoms: O_65  and  C_66
REMARK   33  A    between atoms: O_67  and  C_68
REMARK                            x       y       z     vdW  Elec       q    Type
REMARK                         _______ _______ _______ _____ _____    ______ ____
ROOT
ATOM      1  C   UNL     1     156.914 164.252 188.624  0.00  0.00    +0.001 C 
ATOM      2  C   UNL     1     157.741 165.329 187.945  0.00  0.00    -0.080 C 
ATOM      3  C   UNL     1     157.642 165.651 186.645  0.00  0.00    -0.059 C 
ATOM      4  C   UNL     1     158.502 166.682 185.966  0.00  0.00    +0.079 C 
ATOM      5  C   UNL     1     157.895 167.243 184.667  0.00  0.00    +0.004 C 
ATOM      6  C   UNL     1     156.604 168.065 184.860  0.00  0.00    +0.067 C 
ATOM      7  C   UNL     1     156.637 169.447 184.129  0.00  0.00    +0.020 C 
ATOM      8  C   UNL     1     157.011 169.392 182.613  0.00  0.00    +0.112 C 
ATOM      9  C   UNL     1     155.966 168.786 181.665  0.00  0.00    +0.006 C 
ATOM     10  C   UNL     1     154.894 169.776 181.293  0.00  0.00    -0.057 C 
ATOM     11  C   UNL     1     155.128 171.091 181.416  0.00  0.00    +0.022 C 
ATOM     12  C   UNL     1     156.441 171.623 181.814  0.00  0.00    +0.332 C 
ATOM     13  O   UNL     1     156.664 172.826 181.791  0.00  0.00    -0.246 OA
ATOM     14  O   UNL     1     157.387 170.715 182.153  0.00  0.00    -0.458 OA
ATOM     15  C   UNL     1     153.577 169.246 180.760  0.00  0.00    -0.004 C 
ATOM     16  C   UNL     1     153.715 168.489 179.415  0.00  0.00    +0.066 C 
ATOM     17  C   UNL     1     152.400 167.763 179.024  0.00  0.00    -0.005 C 
ATOM     18  C   UNL     1     151.911 166.601 179.886  0.00  0.00    -0.070 C 
ATOM     19  C   UNL     1     152.694 166.011 180.807  0.00  0.00    -0.062 C 
ATOM     20  C   UNL     1     152.354 165.018 181.789  0.00  0.00    -0.055 C 
ATOM     21  C   UNL     1     151.963 163.752 181.569  0.00  0.00    +0.023 C 
ATOM     22  C   UNL     1     151.899 162.767 182.677  0.00  0.00    +0.332 C 
ATOM     23  O   UNL     1     151.843 161.562 182.499  0.00  0.00    -0.246 OA
ATOM     24  O   UNL     1     152.023 163.394 183.868  0.00  0.00    -0.457 OA
ATOM     25  C   UNL     1     152.453 162.636 185.035  0.00  0.00    +0.114 C 
ATOM     26  C   UNL     1     154.001 162.413 184.876  0.00  0.00    +0.012 C 
ATOM     27  C   UNL     1     154.640 161.530 185.931  0.00  0.00    -0.079 C 
ATOM     28  C   UNL     1     155.824 161.746 186.534  0.00  0.00    -0.059 C 
ATOM     29  C   UNL     1     156.501 160.908 187.592  0.00  0.00    +0.079 C 
ATOM     30  C   UNL     1     156.780 161.695 188.893  0.00  0.00    +0.004 C 
ATOM     31  C   UNL     1     157.715 162.913 188.695  0.00  0.00    +0.067 C 
ATOM     32  H   UNL     1     156.011 164.094 188.025  0.00  0.00    +0.037 HD
ATOM     33  H   UNL     1     158.488 165.824 188.565  0.00  0.00    +0.057 HD
ATOM     34  H   UNL     1     156.939 165.123 186.009  0.00  0.00    +0.059 HD
ATOM     35  H   UNL     1     158.703 167.519 186.650  0.00  0.00    +0.064 HD
ATOM     36  H   UNL     1     157.725 166.422 183.958  0.00  0.00    +0.032 HD
ATOM     37  H   UNL     1     158.686 167.852 184.216  0.00  0.00    +0.032 HD
ATOM     38  H   UNL     1     156.455 168.247 185.933  0.00  0.00    +0.060 HD
ATOM     39  H   UNL     1     155.641 169.902 184.199  0.00  0.00    +0.036 HD
ATOM     40  H   UNL     1     157.922 168.798 182.496  0.00  0.00    +0.074 HD
ATOM     41  H   UNL     1     155.528 167.880 182.084  0.00  0.00    +0.035 HD
ATOM     42  H   UNL     1     156.470 168.488 180.734  0.00  0.00    +0.035 HD
ATOM     43  H   UNL     1     154.392 171.840 181.147  0.00  0.00    +0.069 HD
ATOM     44  H   UNL     1     153.145 168.607 181.537  0.00  0.00    +0.034 HD
ATOM     45  H   UNL     1     152.876 170.081 180.624  0.00  0.00    +0.034 HD
ATOM     46  H   UNL     1     154.540 167.769 179.468  0.00  0.00    +0.060 HD
ATOM     47  H   UNL     1     151.609 168.527 178.983  0.00  0.00    +0.034 HD
ATOM     48  H   UNL     1     152.491 167.392 177.994  0.00  0.00    +0.034 HD
ATOM     49  H   UNL     1     153.719 166.358 180.949  0.00  0.00    +0.062 HD
ATOM     50  H   UNL     1     152.565 165.358 182.802  0.00  0.00    +0.062 HD
ATOM     51  H   UNL     1     151.811 163.353 180.574  0.00  0.00    +0.069 HD
ATOM     52  H   UNL     1     151.934 161.671 185.036  0.00  0.00    +0.074 HD
ATOM     53  H   UNL     1     154.129 161.856 183.934  0.00  0.00    +0.038 HD
ATOM     54  H   UNL     1     154.089 160.627 186.187  0.00  0.00    +0.057 HD
ATOM     55  H   UNL     1     156.417 162.603 186.227  0.00  0.00    +0.059 HD
ATOM     56  H   UNL     1     157.455 160.565 187.166  0.00  0.00    +0.064 HD
ATOM     57  H   UNL     1     155.825 162.007 189.335  0.00  0.00    +0.032 HD
ATOM     58  H   UNL     1     157.202 161.006 189.633  0.00  0.00    +0.032 HD
ATOM     59  H   UNL     1     158.294 162.789 187.768  0.00  0.00    +0.060 HD
ENDROOT
BRANCH   1  60
ATOM     60  C   UNL     1     156.470 164.759 190.002  0.00  0.00    -0.057 C 
ATOM     61  H   UNL     1     156.229 163.936 190.685  0.00  0.00    +0.024 HD
ATOM     62  H   UNL     1     157.263 165.349 190.470  0.00  0.00    +0.024 HD
ATOM     63  H   UNL     1     155.583 165.397 189.925  0.00  0.00    +0.024 HD
ENDBRANCH   1  60
BRANCH  26  64
ATOM     64  C   UNL     1     154.744 163.744 184.651  0.00  0.00    -0.056 C 
ATOM     65  H   UNL     1     155.352 164.028 185.512  0.00  0.00    +0.024 HD
ATOM     66  H   UNL     1     155.404 163.695 183.778  0.00  0.00    +0.024 HD
ATOM     67  H   UNL     1     154.039 164.571 184.506  0.00  0.00    +0.024 HD
ENDBRANCH  26  64
BRANCH  18  68
ATOM     68  C   UNL     1     150.475 166.227 179.628  0.00  0.00    -0.043 C 
ATOM     69  H   UNL     1     149.937 166.139 180.578  0.00  0.00    +0.027 HD
ATOM     70  H   UNL     1     150.422 165.259 179.116  0.00  0.00    +0.027 HD
ATOM     71  H   UNL     1     149.939 166.953 179.013  0.00  0.00    +0.027 HD
ENDBRANCH  18  68
BRANCH   7  72
ATOM     72  C   UNL     1     157.581 170.383 184.907  0.00  0.00    -0.057 C 
ATOM     73  H   UNL     1     158.554 170.449 184.409  0.00  0.00    +0.023 HD
ATOM     74  H   UNL     1     157.171 171.394 184.990  0.00  0.00    +0.023 HD
ATOM     75  H   UNL     1     157.770 170.012 185.920  0.00  0.00    +0.023 HD
ENDBRANCH   7  72
BRANCH  25  76
ATOM     76  C   UNL     1     151.973 163.481 186.256  0.00  0.00    +0.020 C 
ATOM     77  H   UNL     1     152.874 163.826 186.784  0.00  0.00    +0.036 HD
BRANCH  76  78
ATOM     78  C   UNL     1     151.318 164.792 185.774  0.00  0.00    -0.057 C 
ATOM     79  H   UNL     1     151.420 165.573 186.536  0.00  0.00    +0.023 HD
ATOM     80  H   UNL     1     150.247 164.681 185.589  0.00  0.00    +0.023 HD
ATOM     81  H   UNL     1     151.794 165.171 184.867  0.00  0.00    +0.023 HD
ENDBRANCH  76  78
BRANCH  76  82
ATOM     82  C   UNL     1     151.119 162.731 187.315  0.00  0.00    +0.067 C 
ATOM     83  H   UNL     1     150.357 163.436 187.663  0.00  0.00    +0.060 HD
BRANCH  82  84
ATOM     84  C   UNL     1     151.845 162.162 188.576  0.00  0.00    -0.017 C 
ATOM     85  H   UNL     1     151.164 162.241 189.429  0.00  0.00    +0.032 HD
BRANCH  84  86
ATOM     86  C   UNL     1     152.093 160.662 188.332  0.00  0.00    -0.060 C 
ATOM     87  H   UNL     1     152.832 160.504 187.542  0.00  0.00    +0.023 HD
ATOM     88  H   UNL     1     152.455 160.160 189.234  0.00  0.00    +0.023 HD
ATOM     89  H   UNL     1     151.182 160.160 187.996  0.00  0.00    +0.023 HD
ENDBRANCH  84  86
BRANCH  84  90
ATOM     90  C   UNL     1     153.166 162.895 188.929  0.00  0.00    -0.041 C 
ATOM     91  H   UNL     1     153.532 163.423 188.043  0.00  0.00    +0.027 HD
ATOM     92  H   UNL     1     153.927 162.145 189.179  0.00  0.00    +0.027 HD
BRANCH  90  93
ATOM     93  C   UNL     1     153.135 163.891 190.090  0.00  0.00    +0.007 C 
ATOM     94  H   UNL     1     154.177 164.060 190.403  0.00  0.00    +0.034 HD
ATOM     95  H   UNL     1     152.634 163.520 190.990  0.00  0.00    +0.034 HD
BRANCH  93  96
ATOM     96  C   UNL     1     152.592 165.263 189.734  0.00  0.00    +0.139 C 
ATOM     97  O   UNL     1     153.221 165.982 188.954  0.00  0.00    -0.297 OA
BRANCH  96  98
ATOM     98  C   UNL     1     151.290 165.716 190.391  0.00  0.00    +0.041 C 
ATOM     99  H   UNL     1     150.840 164.845 190.878  0.00  0.00    +0.040 HD
BRANCH  98 100
ATOM    100  C   UNL     1     150.331 166.186 189.298  0.00  0.00    -0.053 C 
ATOM    101  H   UNL     1     149.814 167.108 189.578  0.00  0.00    +0.024 HD
ATOM    102  H   UNL     1     149.579 165.417 189.091  0.00  0.00    +0.024 HD
ATOM    103  H   UNL     1     150.870 166.388 188.368  0.00  0.00    +0.024 HD
ENDBRANCH  98 100
BRANCH  98 104
ATOM    104  C   UNL     1     151.514 166.800 191.478  0.00  0.00    +0.071 C 
ATOM    105  H   UNL     1     150.608 166.816 192.101  0.00  0.00    +0.061 HD
BRANCH 104 106
ATOM    106  C   UNL     1     152.735 166.514 192.386  0.00  0.00    -0.006 C 
ATOM    107  H   UNL     1     153.433 165.832 191.886  0.00  0.00    +0.033 HD
ATOM    108  H   UNL     1     153.310 167.438 192.528  0.00  0.00    +0.033 HD
BRANCH 106 109
ATOM    109  C   UNL     1     152.359 165.934 193.728  0.00  0.00    -0.067 C 
ATOM    110  C   UNL     1     151.088 165.765 194.122  0.00  0.00    -0.005 C 
ATOM    111  H   UNL     1     153.188 165.662 194.369  0.00  0.00    +0.059 HD
ATOM    112  H   UNL     1     150.289 166.074 193.446  0.00  0.00    +0.078 HD
BRANCH 110 113
ATOM    113  N   UNL     1     150.642 165.214 195.313  0.00  0.00    -0.284 N 
ATOM    114  C   UNL     1     151.074 164.009 195.858  0.00  0.00    +0.206 C 
ATOM    115  O   UNL     1     150.658 163.489 196.888  0.00  0.00    -0.279 OA
ATOM    116  H   UNL     1     151.863 163.512 195.275  0.00  0.00    +0.126 HD
BRANCH 113 117
ATOM    117  C   UNL     1     149.616 165.951 196.043  0.00  0.00    +0.007 C 
ATOM    118  H   UNL     1     148.637 165.513 195.814  0.00  0.00    +0.043 HD
ATOM    119  H   UNL     1     149.808 165.875 197.120  0.00  0.00    +0.043 HD
ATOM    120  H   UNL     1     149.592 167.010 195.772  0.00  0.00    +0.043 HD
ENDBRANCH 113 117
ENDBRANCH 110 113
ENDBRANCH 106 109
ENDBRANCH 104 106
BRANCH 104 121
ATOM    121  O   UNL     1     151.652 168.082 190.854  0.00  0.00    -0.379 OA
BRANCH 121 122
ATOM    122  C   UNL     1     151.431 169.179 191.729  0.00  0.00    +0.037 C 
ATOM    123  H   UNL     1     152.342 169.764 191.872  0.00  0.00    +0.052 HD
ATOM    124  H   UNL     1     151.054 168.827 192.692  0.00  0.00    +0.052 HD
ATOM    125  H   UNL     1     150.673 169.826 191.279  0.00  0.00    +0.052 HD
ENDBRANCH 121 122
ENDBRANCH 104 121
ENDBRANCH  98 104
ENDBRANCH  96  98
ENDBRANCH  93  96
ENDBRANCH  90  93
ENDBRANCH  84  90
ENDBRANCH  82  84
BRANCH  82 126
ATOM    126  O   UNL     1     150.433 161.637 186.674  0.00  0.00    -0.379 OA
BRANCH 126 127
ATOM    127  C   UNL     1     149.044 161.870 186.496  0.00  0.00    +0.037 C 
ATOM    128  H   UNL     1     148.472 161.106 187.029  0.00  0.00    +0.052 HD
ATOM    129  H   UNL     1     148.762 162.869 186.842  0.00  0.00    +0.052 HD
ATOM    130  H   UNL     1     148.817 161.790 185.428  0.00  0.00    +0.052 HD
ENDBRANCH 126 127
ENDBRANCH  82 126
ENDBRANCH  76  82
ENDBRANCH  25  76
BRANCH  31 131
ATOM    131  O   UNL     1     158.644 162.993 189.795  0.00  0.00    -0.379 OA
BRANCH 131 132
ATOM    132  C   UNL     1     158.888 161.735 190.413  0.00  0.00    +0.037 C 
ATOM    133  H   UNL     1     159.936 161.661 190.721  0.00  0.00    +0.052 HD
ATOM    134  H   UNL     1     158.634 160.910 189.743  0.00  0.00    +0.052 HD
ATOM    135  H   UNL     1     158.258 161.665 191.303  0.00  0.00    +0.052 HD
ENDBRANCH 131 132
ENDBRANCH  31 131
BRANCH  29 136
ATOM    136  O   UNL     1     155.673 159.779 187.892  0.00  0.00    -0.376 OA
BRANCH 136 137
ATOM    137  C   UNL     1     155.596 159.516 189.289  0.00  0.00    +0.037 C 
ATOM    138  H   UNL     1     155.696 160.440 189.866  0.00  0.00    +0.052 HD
ATOM    139  H   UNL     1     154.619 159.072 189.499  0.00  0.00    +0.052 HD
ATOM    140  H   UNL     1     156.368 158.798 189.587  0.00  0.00    +0.052 HD
ENDBRANCH 136 137
ENDBRANCH  29 136
BRANCH  16 141
ATOM    141  O   UNL     1     154.015 169.474 178.404  0.00  0.00    -0.379 OA
BRANCH 141 142
ATOM    142  C   UNL     1     155.151 169.135 177.619  0.00  0.00    +0.037 C 
ATOM    143  H   UNL     1     156.012 169.683 178.010  0.00  0.00    +0.052 HD
ATOM    144  H   UNL     1     155.352 168.063 177.701  0.00  0.00    +0.052 HD
ATOM    145  H   UNL     1     155.009 169.411 176.569  0.00  0.00    +0.052 HD
ENDBRANCH 141 142
ENDBRANCH  16 141
BRANCH   6 146
ATOM    146  O   UNL     1     155.509 167.267 184.381  0.00  0.00    -0.379 OA
BRANCH 146 147
ATOM    147  C   UNL     1     154.585 166.906 185.401  0.00  0.00    +0.037 C 
ATOM    148  H   UNL     1     155.053 166.144 186.027  0.00  0.00    +0.052 HD
ATOM    149  H   UNL     1     154.352 167.774 186.027  0.00  0.00    +0.052 HD
ATOM    150  H   UNL     1     153.668 166.488 184.978  0.00  0.00    +0.052 HD
ENDBRANCH 146 147
ENDBRANCH   6 146
BRANCH   4 151
ATOM    151  O   UNL     1     159.718 166.022 185.583  0.00  0.00    -0.376 OA
BRANCH 151 152
ATOM    152  C   UNL     1     159.516 165.038 184.578  0.00  0.00    +0.037 C 
ATOM    153  H   UNL     1     160.198 164.203 184.775  0.00  0.00    +0.052 HD
ATOM    154  H   UNL     1     159.739 165.440 183.585  0.00  0.00    +0.052 HD
ATOM    155  H   UNL     1     158.490 164.661 184.613  0.00  0.00    +0.052 HD
ENDBRANCH 151 152
ENDBRANCH   4 151
TORSDOF 33
ENDMDL
MODEL 3
REMARK VINA RESULT:      -5.2      2.656      4.287
REMARK  Name = Reidispongiolide A_conf1
REMARK  33 active torsions:
REMARK  status: ('A' for Active; 'I' for Inactive)
REMARK    1  A    between atoms: C_1  and  C_2
REMARK    2  A    between atoms: C_5  and  O_67
REMARK    3  A    between atoms: C_7  and  O_65
REMARK    4  A    between atoms: C_8  and  C_64
REMARK    5  A    between atoms: C_17  and  O_62
REMARK    6  A    between atoms: C_19  and  C_61
REMARK    7  A    between atoms: C_26  and  C_38
REMARK    8  A    between atoms: C_27  and  C_37
REMARK    9  A    between atoms: C_30  and  O_35
REMARK   10  A    between atoms: C_32  and  O_33
REMARK   11  A    between atoms: O_33  and  C_34
REMARK   12  A    between atoms: O_35  and  C_36
REMARK   13  A    between atoms: C_38  and  C_39
REMARK   14  A    between atoms: C_38  and  C_40
REMARK   15  A    between atoms: C_40  and  C_41
REMARK   16  A    between atoms: C_40  and  O_59
REMARK   17  A    between atoms: C_41  and  C_42
REMARK   18  A    between atoms: C_41  and  C_43
REMARK   19  A    between atoms: C_43  and  C_44
REMARK   20  A    between atoms: C_44  and  C_45
REMARK   21  A    between atoms: C_45  and  C_47
REMARK   22  A    between atoms: C_47  and  C_48
REMARK   23  A    between atoms: C_47  and  C_49
REMARK   24  A    between atoms: C_49  and  C_50
REMARK   25  A    between atoms: C_49  and  O_57
REMARK   26  A    between atoms: C_50  and  C_51
REMARK   27  A    between atoms: C_52  and  N_53
REMARK   28  A    between atoms: N_53  and  C_54
REMARK   29  A    between atoms: O_57  and  C_58
REMARK   30  A    between atoms: O_59  and  C_60
REMARK   31  A    between atoms: O_62  and  C_63
REMARK   32  A    between atoms: O_65  and  C_66
REMARK   33  A    between atoms: O_67  and  C_68
REMARK                            x       y       z     vdW  Elec       q    Type
REMARK                         _______ _______ _______ _____ _____    ______ ____
ROOT
ATOM      1  C   UNL     1     150.816 164.298 182.563  0.00  0.00    +0.001 C 
ATOM      2  C   UNL     1     149.436 164.359 183.193  0.00  0.00    -0.080 C 
ATOM      3  C   UNL     1     149.202 164.246 184.511  0.00  0.00    -0.059 C 
ATOM      4  C   UNL     1     147.828 164.253 185.125  0.00  0.00    +0.079 C 
ATOM      5  C   UNL     1     147.813 164.625 186.618  0.00  0.00    +0.004 C 
ATOM      6  C   UNL     1     148.246 166.073 186.928  0.00  0.00    +0.067 C 
ATOM      7  C   UNL     1     147.252 166.826 187.871  0.00  0.00    +0.020 C 
ATOM      8  C   UNL     1     146.898 166.081 189.199  0.00  0.00    +0.112 C 
ATOM      9  C   UNL     1     148.009 165.986 190.255  0.00  0.00    +0.006 C 
ATOM     10  C   UNL     1     148.125 167.244 191.073  0.00  0.00    -0.057 C 
ATOM     11  C   UNL     1     147.089 168.092 191.144  0.00  0.00    +0.022 C 
ATOM     12  C   UNL     1     145.787 167.798 190.525  0.00  0.00    +0.332 C 
ATOM     13  O   UNL     1     144.822 168.526 190.716  0.00  0.00    -0.246 OA
ATOM     14  O   UNL     1     145.708 166.666 189.786  0.00  0.00    -0.458 OA
ATOM     15  C   UNL     1     149.419 167.501 191.821  0.00  0.00    -0.004 C 
ATOM     16  C   UNL     1     149.719 166.445 192.916  0.00  0.00    +0.066 C 
ATOM     17  C   UNL     1     151.152 166.603 193.492  0.00  0.00    -0.005 C 
ATOM     18  C   UNL     1     152.349 166.331 192.584  0.00  0.00    -0.070 C 
ATOM     19  C   UNL     1     152.224 165.712 191.396  0.00  0.00    -0.062 C 
ATOM     20  C   UNL     1     153.207 165.508 190.368  0.00  0.00    -0.055 C 
ATOM     21  C   UNL     1     154.321 164.761 190.439  0.00  0.00    +0.023 C 
ATOM     22  C   UNL     1     155.103 164.433 189.221  0.00  0.00    +0.332 C 
ATOM     23  O   UNL     1     155.929 163.538 189.177  0.00  0.00    -0.246 OA
ATOM     24  O   UNL     1     154.682 165.185 188.180  0.00  0.00    -0.457 OA
ATOM     25  C   UNL     1     154.949 164.738 186.819  0.00  0.00    +0.114 C 
ATOM     26  C   UNL     1     153.931 163.577 186.524  0.00  0.00    +0.012 C 
ATOM     27  C   UNL     1     154.117 162.876 185.192  0.00  0.00    -0.079 C 
ATOM     28  C   UNL     1     153.135 162.495 184.353  0.00  0.00    -0.059 C 
ATOM     29  C   UNL     1     153.263 161.804 183.017  0.00  0.00    +0.079 C 
ATOM     30  C   UNL     1     152.629 162.611 181.861  0.00  0.00    +0.004 C 
ATOM     31  C   UNL     1     151.111 162.858 182.034  0.00  0.00    +0.067 C 
ATOM     32  H   UNL     1     151.550 164.550 183.336  0.00  0.00    +0.037 HD
ATOM     33  H   UNL     1     148.596 164.454 182.505  0.00  0.00    +0.057 HD
ATOM     34  H   UNL     1     150.029 164.095 185.197  0.00  0.00    +0.059 HD
ATOM     35  H   UNL     1     147.173 164.951 184.582  0.00  0.00    +0.064 HD
ATOM     36  H   UNL     1     148.432 163.911 187.179  0.00  0.00    +0.032 HD
ATOM     37  H   UNL     1     146.787 164.440 186.954  0.00  0.00    +0.032 HD
ATOM     38  H   UNL     1     148.314 166.633 185.985  0.00  0.00    +0.060 HD
ATOM     39  H   UNL     1     147.698 167.788 188.151  0.00  0.00    +0.036 HD
ATOM     40  H   UNL     1     146.604 165.055 188.959  0.00  0.00    +0.074 HD
ATOM     41  H   UNL     1     148.967 165.729 189.801  0.00  0.00    +0.035 HD
ATOM     42  H   UNL     1     147.763 165.168 190.949  0.00  0.00    +0.035 HD
ATOM     43  H   UNL     1     147.122 169.003 191.732  0.00  0.00    +0.069 HD
ATOM     44  H   UNL     1     150.222 167.546 191.078  0.00  0.00    +0.034 HD
ATOM     45  H   UNL     1     149.379 168.493 192.291  0.00  0.00    +0.034 HD
ATOM     46  H   UNL     1     149.586 165.434 192.514  0.00  0.00    +0.060 HD
ATOM     47  H   UNL     1     151.233 167.629 193.881  0.00  0.00    +0.034 HD
ATOM     48  H   UNL     1     151.254 165.956 194.374  0.00  0.00    +0.034 HD
ATOM     49  H   UNL     1     151.241 165.379 191.060  0.00  0.00    +0.062 HD
ATOM     50  H   UNL     1     152.899 165.943 189.419  0.00  0.00    +0.062 HD
ATOM     51  H   UNL     1     154.626 164.253 191.345  0.00  0.00    +0.069 HD
ATOM     52  H   UNL     1     155.975 164.357 186.772  0.00  0.00    +0.074 HD
ATOM     53  H   UNL     1     154.136 162.800 187.277  0.00  0.00    +0.038 HD
ATOM     54  H   UNL     1     155.145 162.639 184.922  0.00  0.00    +0.057 HD
ATOM     55  H   UNL     1     152.103 162.657 184.651  0.00  0.00    +0.059 HD
ATOM     56  H   UNL     1     152.748 160.836 183.107  0.00  0.00    +0.064 HD
ATOM     57  H   UNL     1     153.167 163.561 181.750  0.00  0.00    +0.032 HD
ATOM     58  H   UNL     1     152.825 162.085 180.919  0.00  0.00    +0.032 HD
ATOM     59  H   UNL     1     150.693 162.123 182.737  0.00  0.00    +0.060 HD
ENDROOT
BRANCH   1  60
ATOM     60  C   UNL     1     150.912 165.371 181.470  0.00  0.00    -0.057 C 
ATOM     61  H   UNL     1     151.948 165.683 181.292  0.00  0.00    +0.024 HD
ATOM     62  H   UNL     1     150.519 164.992 180.522  0.00  0.00    +0.024 HD
ATOM     63  H   UNL     1     150.337 166.263 181.735  0.00  0.00    +0.024 HD
ENDBRANCH   1  60
BRANCH  26  64
ATOM     64  C   UNL     1     152.479 164.016 186.794  0.00  0.00    -0.056 C 
ATOM     65  H   UNL     1     152.327 165.080 186.604  0.00  0.00    +0.024 HD
ATOM     66  H   UNL     1     151.768 163.461 186.173  0.00  0.00    +0.024 HD
ATOM     67  H   UNL     1     152.210 163.867 187.846  0.00  0.00    +0.024 HD
ENDBRANCH  26  64
BRANCH  18  68
ATOM     68  C   UNL     1     153.649 166.860 193.132  0.00  0.00    -0.043 C 
ATOM     69  H   UNL     1     153.690 167.947 193.009  0.00  0.00    +0.027 HD
ATOM     70  H   UNL     1     154.495 166.424 192.587  0.00  0.00    +0.027 HD
ATOM     71  H   UNL     1     153.796 166.643 194.192  0.00  0.00    +0.027 HD
ENDBRANCH  18  68
BRANCH   7  72
ATOM     72  C   UNL     1     145.985 167.169 187.065  0.00  0.00    -0.057 C 
ATOM     73  H   UNL     1     145.511 166.258 186.686  0.00  0.00    +0.023 HD
ATOM     74  H   UNL     1     145.251 167.707 187.673  0.00  0.00    +0.023 HD
ATOM     75  H   UNL     1     146.219 167.789 186.194  0.00  0.00    +0.023 HD
ENDBRANCH   7  72
BRANCH  25  76
ATOM     76  C   UNL     1     154.837 166.028 185.948  0.00  0.00    +0.020 C 
ATOM     77  H   UNL     1     153.981 165.887 185.272  0.00  0.00    +0.036 HD
BRANCH  76  78
ATOM     78  C   UNL     1     154.410 167.226 186.820  0.00  0.00    -0.057 C 
ATOM     79  H   UNL     1     153.986 166.878 187.768  0.00  0.00    +0.023 HD
ATOM     80  H   UNL     1     153.639 167.836 186.344  0.00  0.00    +0.023 HD
ATOM     81  H   UNL     1     155.259 167.866 187.070  0.00  0.00    +0.023 HD
ENDBRANCH  76  78
BRANCH  76  82
ATOM     82  C   UNL     1     156.053 166.345 185.035  0.00  0.00    +0.067 C 
ATOM     83  H   UNL     1     156.329 167.387 185.229  0.00  0.00    +0.060 HD
BRANCH  82  84
ATOM     84  C   UNL     1     155.876 166.185 183.491  0.00  0.00    -0.017 C 
ATOM     85  H   UNL     1     156.457 165.316 183.168  0.00  0.00    +0.032 HD
BRANCH  84  86
ATOM     86  C   UNL     1     154.393 165.862 183.225  0.00  0.00    -0.060 C 
ATOM     87  H   UNL     1     153.802 165.917 184.144  0.00  0.00    +0.023 HD
ATOM     88  H   UNL     1     153.953 166.554 182.502  0.00  0.00    +0.023 HD
ATOM     89  H   UNL     1     154.272 164.843 182.851  0.00  0.00    +0.023 HD
ENDBRANCH  84  86
BRANCH  84  90
ATOM     90  C   UNL     1     156.333 167.420 182.672  0.00  0.00    -0.041 C 
ATOM     91  H   UNL     1     155.799 167.436 181.717  0.00  0.00    +0.027 HD
ATOM     92  H   UNL     1     157.397 167.306 182.430  0.00  0.00    +0.027 HD
BRANCH  90  93
ATOM     93  C   UNL     1     156.178 168.797 183.320  0.00  0.00    +0.007 C 
ATOM     94  H   UNL     1     156.270 168.657 184.408  0.00  0.00    +0.034 HD
ATOM     95  H   UNL     1     155.193 169.253 183.183  0.00  0.00    +0.034 HD
BRANCH  93  96
ATOM     96  C   UNL     1     157.257 169.798 182.947  0.00  0.00    +0.139 C 
ATOM     97  O   UNL     1     157.764 169.754 181.823  0.00  0.00    -0.297 OA
BRANCH  96  98
ATOM     98  C   UNL     1     157.700 170.809 184.002  0.00  0.00    +0.041 C 
ATOM     99  H   UNL     1     158.779 170.691 184.146  0.00  0.00    +0.040 HD
BRANCH  98 100
ATOM    100  C   UNL     1     157.013 170.466 185.324  0.00  0.00    -0.053 C 
ATOM    101  H   UNL     1     156.832 169.393 185.423  0.00  0.00    +0.024 HD
ATOM    102  H   UNL     1     156.053 170.987 185.402  0.00  0.00    +0.024 HD
ATOM    103  H   UNL     1     157.630 170.770 186.173  0.00  0.00    +0.024 HD
ENDBRANCH  98 100
BRANCH  98 104
ATOM    104  C   UNL     1     157.440 172.276 183.571  0.00  0.00    +0.071 C 
ATOM    105  H   UNL     1     157.202 172.252 182.497  0.00  0.00    +0.061 HD
BRANCH 104 106
ATOM    106  C   UNL     1     156.261 172.937 184.325  0.00  0.00    -0.006 C 
ATOM    107  H   UNL     1     155.966 172.326 185.187  0.00  0.00    +0.033 HD
ATOM    108  H   UNL     1     156.594 173.886 184.764  0.00  0.00    +0.033 HD
BRANCH 106 109
ATOM    109  C   UNL     1     155.051 173.174 183.454  0.00  0.00    -0.067 C 
ATOM    110  C   UNL     1     154.773 172.434 182.371  0.00  0.00    -0.005 C 
ATOM    111  H   UNL     1     154.411 173.994 183.755  0.00  0.00    +0.059 HD
ATOM    112  H   UNL     1     155.462 171.633 182.098  0.00  0.00    +0.078 HD
BRANCH 110 113
ATOM    113  N   UNL     1     153.677 172.550 181.529  0.00  0.00    -0.284 N 
ATOM    114  C   UNL     1     153.225 171.567 180.654  0.00  0.00    +0.206 C 
ATOM    115  O   UNL     1     152.284 171.670 179.874  0.00  0.00    -0.279 OA
ATOM    116  H   UNL     1     153.795 170.629 180.702  0.00  0.00    +0.126 HD
BRANCH 113 117
ATOM    117  C   UNL     1     152.955 173.817 181.548  0.00  0.00    +0.007 C 
ATOM    118  H   UNL     1     152.208 173.785 182.349  0.00  0.00    +0.043 HD
ATOM    119  H   UNL     1     153.659 174.636 181.735  0.00  0.00    +0.043 HD
ATOM    120  H   UNL     1     152.440 174.016 180.603  0.00  0.00    +0.043 HD
ENDBRANCH 113 117
ENDBRANCH 110 113
ENDBRANCH 106 109
ENDBRANCH 104 106
BRANCH 104 121
ATOM    121  O   UNL     1     158.635 173.045 183.748  0.00  0.00    -0.379 OA
BRANCH 121 122
ATOM    122  C   UNL     1     159.143 173.611 182.549  0.00  0.00    +0.037 C 
ATOM    123  H   UNL     1     159.049 174.700 182.550  0.00  0.00    +0.052 HD
ATOM    124  H   UNL     1     158.628 173.191 181.681  0.00  0.00    +0.052 HD
ATOM    125  H   UNL     1     160.204 173.357 182.475  0.00  0.00    +0.052 HD
ENDBRANCH 121 122
ENDBRANCH 104 121
ENDBRANCH  98 104
ENDBRANCH  96  98
ENDBRANCH  93  96
ENDBRANCH  90  93
ENDBRANCH  84  90
ENDBRANCH  82  84
BRANCH  82 126
ATOM    126  O   UNL     1     157.167 165.524 185.436  0.00  0.00    -0.379 OA
BRANCH 126 127
ATOM    127  C   UNL     1     158.305 166.272 185.835  0.00  0.00    +0.037 C 
ATOM    128  H   UNL     1     157.985 167.183 186.349  0.00  0.00    +0.052 HD
ATOM    129  H   UNL     1     158.962 165.681 186.481  0.00  0.00    +0.052 HD
ATOM    130  H   UNL     1     158.861 166.558 184.936  0.00  0.00    +0.052 HD
ENDBRANCH 126 127
ENDBRANCH  82 126
ENDBRANCH  76  82
ENDBRANCH  25  76
BRANCH  31 131
ATOM    131  O   UNL     1     150.446 162.692 180.766  0.00  0.00    -0.379 OA
BRANCH 131 132
ATOM    132  C   UNL     1     149.662 161.507 180.697  0.00  0.00    +0.037 C 
ATOM    133  H   UNL     1     149.231 161.280 181.678  0.00  0.00    +0.052 HD
ATOM    134  H   UNL     1     150.257 160.660 180.345  0.00  0.00    +0.052 HD
ATOM    135  H   UNL     1     148.848 161.677 179.990  0.00  0.00    +0.052 HD
ENDBRANCH 131 132
ENDBRANCH  31 131
BRANCH  29 136
ATOM    136  O   UNL     1     154.650 161.587 182.735  0.00  0.00    -0.376 OA
BRANCH 136 137
ATOM    137  C   UNL     1     155.103 162.339 181.615  0.00  0.00    +0.037 C 
ATOM    138  H   UNL     1     154.824 163.392 181.713  0.00  0.00    +0.052 HD
ATOM    139  H   UNL     1     156.192 162.265 181.572  0.00  0.00    +0.052 HD
ATOM    140  H   UNL     1     154.696 161.925 180.685  0.00  0.00    +0.052 HD
ENDBRANCH 136 137
ENDBRANCH  29 136
BRANCH  16 141
ATOM    141  O   UNL     1     148.770 166.659 193.981  0.00  0.00    -0.379 OA
BRANCH 141 142
ATOM    142  C   UNL     1     149.086 165.930 195.160  0.00  0.00    +0.037 C 
ATOM    143  H   UNL     1     148.851 166.558 196.024  0.00  0.00    +0.052 HD
ATOM    144  H   UNL     1     148.475 165.024 195.211  0.00  0.00    +0.052 HD
ATOM    145  H   UNL     1     150.148 165.669 195.197  0.00  0.00    +0.052 HD
ENDBRANCH 141 142
ENDBRANCH  16 141
BRANCH   6 146
ATOM    146  O   UNL     1     149.555 166.016 187.516  0.00  0.00    -0.379 OA
BRANCH 146 147
ATOM    147  C   UNL     1     150.437 167.021 187.030  0.00  0.00    +0.037 C 
ATOM    148  H   UNL     1     150.665 166.796 185.986  0.00  0.00    +0.052 HD
ATOM    149  H   UNL     1     149.954 168.004 187.075  0.00  0.00    +0.052 HD
ATOM    150  H   UNL     1     151.374 167.034 187.592  0.00  0.00    +0.052 HD
ENDBRANCH 146 147
ENDBRANCH   6 146
BRANCH   4 151
ATOM    151  O   UNL     1     147.330 162.909 185.045  0.00  0.00    -0.376 OA
BRANCH 151 152
ATOM    152  C   UNL     1     146.105 162.819 184.328  0.00  0.00    +0.037 C 
ATOM    153  H   UNL     1     146.090 161.863 183.795  0.00  0.00    +0.052 HD
ATOM    154  H   UNL     1     146.021 163.627 183.594  0.00  0.00    +0.052 HD
ATOM    155  H   UNL     1     145.256 162.844 185.018  0.00  0.00    +0.052 HD
ENDBRANCH 151 152
ENDBRANCH   4 151
TORSDOF 33
ENDMDL
MODEL 4
REMARK VINA RESULT:      -5.1      3.656     10.337
REMARK  Name = Reidispongiolide A_conf1
REMARK  33 active torsions:
REMARK  status: ('A' for Active; 'I' for Inactive)
REMARK    1  A    between atoms: C_1  and  C_2
REMARK    2  A    between atoms: C_5  and  O_67
REMARK    3  A    between atoms: C_7  and  O_65
REMARK    4  A    between atoms: C_8  and  C_64
REMARK    5  A    between atoms: C_17  and  O_62
REMARK    6  A    between atoms: C_19  and  C_61
REMARK    7  A    between atoms: C_26  and  C_38
REMARK    8  A    between atoms: C_27  and  C_37
REMARK    9  A    between atoms: C_30  and  O_35
REMARK   10  A    between atoms: C_32  and  O_33
REMARK   11  A    between atoms: O_33  and  C_34
REMARK   12  A    between atoms: O_35  and  C_36
REMARK   13  A    between atoms: C_38  and  C_39
REMARK   14  A    between atoms: C_38  and  C_40
REMARK   15  A    between atoms: C_40  and  C_41
REMARK   16  A    between atoms: C_40  and  O_59
REMARK   17  A    between atoms: C_41  and  C_42
REMARK   18  A    between atoms: C_41  and  C_43
REMARK   19  A    between atoms: C_43  and  C_44
REMARK   20  A    between atoms: C_44  and  C_45
REMARK   21  A    between atoms: C_45  and  C_47
REMARK   22  A    between atoms: C_47  and  C_48
REMARK   23  A    between atoms: C_47  and  C_49
REMARK   24  A    between atoms: C_49  and  C_50
REMARK   25  A    between atoms: C_49  and  O_57
REMARK   26  A    between atoms: C_50  and  C_51
REMARK   27  A    between atoms: C_52  and  N_53
REMARK   28  A    between atoms: N_53  and  C_54
REMARK   29  A    between atoms: O_57  and  C_58
REMARK   30  A    between atoms: O_59  and  C_60
REMARK   31  A    between atoms: O_62  and  C_63
REMARK   32  A    between atoms: O_65  and  C_66
REMARK   33  A    between atoms: O_67  and  C_68
REMARK                            x       y       z     vdW  Elec       q    Type
REMARK                         _______ _______ _______ _____ _____    ______ ____
ROOT
ATOM      1  C   UNL     1     157.402 163.352 188.656  0.00  0.00    +0.001 C 
ATOM      2  C   UNL     1     158.418 164.316 188.071  0.00  0.00    -0.080 C 
ATOM      3  C   UNL     1     158.403 164.751 186.800  0.00  0.00    -0.059 C 
ATOM      4  C   UNL     1     159.443 165.664 186.211  0.00  0.00    +0.079 C 
ATOM      5  C   UNL     1     158.971 166.423 184.957  0.00  0.00    +0.004 C 
ATOM      6  C   UNL     1     157.840 167.442 185.208  0.00  0.00    +0.067 C 
ATOM      7  C   UNL     1     158.129 168.849 184.591  0.00  0.00    +0.020 C 
ATOM      8  C   UNL     1     158.518 168.848 183.078  0.00  0.00    +0.112 C 
ATOM      9  C   UNL     1     157.402 168.512 182.078  0.00  0.00    +0.006 C 
ATOM     10  C   UNL     1     156.528 169.701 181.780  0.00  0.00    -0.057 C 
ATOM     11  C   UNL     1     156.987 170.940 182.010  0.00  0.00    +0.022 C 
ATOM     12  C   UNL     1     158.364 171.200 182.457  0.00  0.00    +0.332 C 
ATOM     13  O   UNL     1     158.795 172.342 182.532  0.00  0.00    -0.246 OA
ATOM     14  O   UNL     1     159.129 170.116 182.728  0.00  0.00    -0.458 OA
ATOM     15  C   UNL     1     155.150 169.455 181.199  0.00  0.00    -0.004 C 
ATOM     16  C   UNL     1     155.180 168.792 179.798  0.00  0.00    +0.066 C 
ATOM     17  C   UNL     1     153.766 168.342 179.342  0.00  0.00    -0.005 C 
ATOM     18  C   UNL     1     153.064 167.221 180.105  0.00  0.00    -0.070 C 
ATOM     19  C   UNL     1     153.712 166.432 180.981  0.00  0.00    -0.062 C 
ATOM     20  C   UNL     1     153.184 165.441 181.878  0.00  0.00    -0.055 C 
ATOM     21  C   UNL     1     152.582 164.285 181.555  0.00  0.00    +0.023 C 
ATOM     22  C   UNL     1     152.324 163.243 182.579  0.00  0.00    +0.332 C 
ATOM     23  O   UNL     1     152.062 162.085 182.304  0.00  0.00    -0.246 OA
ATOM     24  O   UNL     1     152.532 163.744 183.817  0.00  0.00    -0.457 OA
ATOM     25  C   UNL     1     152.799 162.833 184.922  0.00  0.00    +0.114 C 
ATOM     26  C   UNL     1     154.287 162.354 184.755  0.00  0.00    +0.012 C 
ATOM     27  C   UNL     1     154.740 161.292 185.739  0.00  0.00    -0.079 C 
ATOM     28  C   UNL     1     155.932 161.248 186.365  0.00  0.00    -0.059 C 
ATOM     29  C   UNL     1     156.430 160.225 187.356  0.00  0.00    +0.079 C 
ATOM     30  C   UNL     1     156.816 160.846 188.718  0.00  0.00    +0.004 C 
ATOM     31  C   UNL     1     157.954 161.891 188.624  0.00  0.00    +0.067 C 
ATOM     32  H   UNL     1     156.497 163.403 188.041  0.00  0.00    +0.037 HD
ATOM     33  H   UNL     1     159.228 164.622 188.733  0.00  0.00    +0.057 HD
ATOM     34  H   UNL     1     157.631 164.407 186.119  0.00  0.00    +0.059 HD
ATOM     35  H   UNL     1     159.775 166.397 186.961  0.00  0.00    +0.064 HD
ATOM     36  H   UNL     1     158.674 165.702 184.184  0.00  0.00    +0.032 HD
ATOM     37  H   UNL     1     159.865 166.916 184.562  0.00  0.00    +0.032 HD
ATOM     38  H   UNL     1     157.704 167.563 186.292  0.00  0.00    +0.060 HD
ATOM     39  H   UNL     1     157.227 169.466 184.691  0.00  0.00    +0.036 HD
ATOM     40  H   UNL     1     159.313 168.113 182.919  0.00  0.00    +0.074 HD
ATOM     41  H   UNL     1     156.804 167.666 182.420  0.00  0.00    +0.035 HD
ATOM     42  H   UNL     1     157.864 168.202 181.129  0.00  0.00    +0.035 HD
ATOM     43  H   UNL     1     156.398 171.826 181.797  0.00  0.00    +0.069 HD
ATOM     44  H   UNL     1     154.596 168.843 181.919  0.00  0.00    +0.034 HD
ATOM     45  H   UNL     1     154.609 170.407 181.126  0.00  0.00    +0.034 HD
ATOM     46  H   UNL     1     155.864 167.936 179.798  0.00  0.00    +0.060 HD
ATOM     47  H   UNL     1     153.122 169.234 179.358  0.00  0.00    +0.034 HD
ATOM     48  H   UNL     1     153.810 168.043 178.286  0.00  0.00    +0.034 HD
ATOM     49  H   UNL     1     154.779 166.581 181.156  0.00  0.00    +0.062 HD
ATOM     50  H   UNL     1     153.431 165.659 182.916  0.00  0.00    +0.062 HD
ATOM     51  H   UNL     1     152.382 163.998 180.530  0.00  0.00    +0.069 HD
ATOM     52  H   UNL     1     152.119 161.978 184.843  0.00  0.00    +0.074 HD
ATOM     53  H   UNL     1     154.334 161.858 183.772  0.00  0.00    +0.038 HD
ATOM     54  H   UNL     1     154.034 160.483 185.919  0.00  0.00    +0.057 HD
ATOM     55  H   UNL     1     156.671 162.009 186.131  0.00  0.00    +0.059 HD
ATOM     56  H   UNL     1     157.317 159.753 186.909  0.00  0.00    +0.064 HD
ATOM     57  H   UNL     1     155.922 161.286 189.178  0.00  0.00    +0.032 HD
ATOM     58  H   UNL     1     157.096 160.037 189.403  0.00  0.00    +0.032 HD
ATOM     59  H   UNL     1     158.521 161.740 187.694  0.00  0.00    +0.060 HD
ENDROOT
BRANCH   1  60
ATOM     60  C   UNL     1     157.026 163.821 190.068  0.00  0.00    -0.057 C 
ATOM     61  H   UNL     1     156.105 163.346 190.426  0.00  0.00    +0.024 HD
ATOM     62  H   UNL     1     157.818 163.574 190.780  0.00  0.00    +0.024 HD
ATOM     63  H   UNL     1     156.875 164.904 190.101  0.00  0.00    +0.024 HD
ENDBRANCH   1  60
BRANCH  26  64
ATOM     64  C   UNL     1     155.256 163.546 184.642  0.00  0.00    -0.056 C 
ATOM     65  H   UNL     1     155.220 164.192 185.521  0.00  0.00    +0.024 HD
ATOM     66  H   UNL     1     156.292 163.213 184.516  0.00  0.00    +0.024 HD
ATOM     67  H   UNL     1     154.993 164.191 183.796  0.00  0.00    +0.024 HD
ENDBRANCH  26  64
BRANCH  18  68
ATOM     68  C   UNL     1     151.589 167.127 179.810  0.00  0.00    -0.043 C 
ATOM     69  H   UNL     1     151.106 166.463 180.534  0.00  0.00    +0.027 HD
ATOM     70  H   UNL     1     151.430 166.712 178.808  0.00  0.00    +0.027 HD
ATOM     71  H   UNL     1     151.074 168.089 179.851  0.00  0.00    +0.027 HD
ENDBRANCH  18  68
BRANCH   7  72
ATOM     72  C   UNL     1     159.207 169.541 185.447  0.00  0.00    -0.057 C 
ATOM     73  H   UNL     1     159.166 170.627 185.315  0.00  0.00    +0.023 HD
ATOM     74  H   UNL     1     159.081 169.322 186.512  0.00  0.00    +0.023 HD
ATOM     75  H   UNL     1     160.214 169.226 185.156  0.00  0.00    +0.023 HD
ENDBRANCH   7  72
BRANCH  25  76
ATOM     76  C   UNL     1     152.450 163.652 186.204  0.00  0.00    +0.020 C 
ATOM     77  H   UNL     1     153.390 163.806 186.754  0.00  0.00    +0.036 HD
BRANCH  76  78
ATOM     78  C   UNL     1     152.020 165.084 185.824  0.00  0.00    -0.057 C 
ATOM     79  H   UNL     1     151.345 165.064 184.962  0.00  0.00    +0.023 HD
ATOM     80  H   UNL     1     152.866 165.712 185.537  0.00  0.00    +0.023 HD
ATOM     81  H   UNL     1     151.480 165.572 186.638  0.00  0.00    +0.023 HD
ENDBRANCH  76  78
BRANCH  76  82
ATOM     82  C   UNL     1     151.477 162.973 187.206  0.00  0.00    +0.067 C 
ATOM     83  H   UNL     1     150.779 163.747 187.542  0.00  0.00    +0.060 HD
BRANCH  82  84
ATOM     84  C   UNL     1     152.082 162.301 188.480  0.00  0.00    -0.017 C 
ATOM     85  H   UNL     1     151.369 162.418 189.302  0.00  0.00    +0.032 HD
BRANCH  84  86
ATOM     86  C   UNL     1     152.202 160.792 188.196  0.00  0.00    -0.060 C 
ATOM     87  H   UNL     1     151.381 160.234 188.655  0.00  0.00    +0.023 HD
ATOM     88  H   UNL     1     152.191 160.581 187.123  0.00  0.00    +0.023 HD
ATOM     89  H   UNL     1     153.120 160.382 188.622  0.00  0.00    +0.023 HD
ENDBRANCH  84  86
BRANCH  84  90
ATOM     90  C   UNL     1     153.446 162.896 188.920  0.00  0.00    -0.041 C 
ATOM     91  H   UNL     1     153.943 163.337 188.051  0.00  0.00    +0.027 HD
ATOM     92  H   UNL     1     154.090 162.077 189.263  0.00  0.00    +0.027 HD
BRANCH  90  93
ATOM     93  C   UNL     1     153.435 163.941 190.037  0.00  0.00    +0.007 C 
ATOM     94  H   UNL     1     154.255 163.689 190.727  0.00  0.00    +0.034 HD
ATOM     95  H   UNL     1     152.536 163.927 190.660  0.00  0.00    +0.034 HD
BRANCH  93  96
ATOM     96  C   UNL     1     153.713 165.361 189.579  0.00  0.00    +0.139 C 
ATOM     97  O   UNL     1     154.297 165.551 188.508  0.00  0.00    -0.297 OA
BRANCH  96  98
ATOM     98  C   UNL     1     153.286 166.511 190.489  0.00  0.00    +0.041 C 
ATOM     99  H   UNL     1     153.661 167.441 190.051  0.00  0.00    +0.040 HD
BRANCH  98 100
ATOM    100  C   UNL     1     153.957 166.330 191.849  0.00  0.00    -0.053 C 
ATOM    101  H   UNL     1     153.561 165.466 192.388  0.00  0.00    +0.024 HD
ATOM    102  H   UNL     1     153.810 167.221 192.470  0.00  0.00    +0.024 HD
ATOM    103  H   UNL     1     155.033 166.175 191.735  0.00  0.00    +0.024 HD
ENDBRANCH  98 100
BRANCH  98 104
ATOM    104  C   UNL     1     151.744 166.636 190.609  0.00  0.00    +0.071 C 
ATOM    105  H   UNL     1     151.382 165.689 191.036  0.00  0.00    +0.061 HD
BRANCH 104 106
ATOM    106  C   UNL     1     151.293 167.798 191.526  0.00  0.00    -0.006 C 
ATOM    107  H   UNL     1     152.162 168.361 191.887  0.00  0.00    +0.033 HD
ATOM    108  H   UNL     1     150.720 168.527 190.938  0.00  0.00    +0.033 HD
BRANCH 106 109
ATOM    109  C   UNL     1     150.476 167.342 192.711  0.00  0.00    -0.067 C 
ATOM    110  C   UNL     1     150.517 166.090 193.189  0.00  0.00    -0.005 C 
ATOM    111  H   UNL     1     149.840 168.096 193.158  0.00  0.00    +0.059 HD
ATOM    112  H   UNL     1     151.158 165.362 192.689  0.00  0.00    +0.078 HD
BRANCH 110 113
ATOM    113  N   UNL     1     149.834 165.584 194.284  0.00  0.00    -0.284 N 
ATOM    114  C   UNL     1     150.417 165.180 195.482  0.00  0.00    +0.206 C 
ATOM    115  O   UNL     1     149.832 164.691 196.443  0.00  0.00    -0.279 OA
ATOM    116  H   UNL     1     151.505 165.332 195.524  0.00  0.00    +0.126 HD
BRANCH 113 117
ATOM    117  C   UNL     1     148.388 165.441 194.160  0.00  0.00    +0.007 C 
ATOM    118  H   UNL     1     148.101 165.654 193.123  0.00  0.00    +0.043 HD
ATOM    119  H   UNL     1     148.098 164.415 194.418  0.00  0.00    +0.043 HD
ATOM    120  H   UNL     1     147.844 166.127 194.816  0.00  0.00    +0.043 HD
ENDBRANCH 113 117
ENDBRANCH 110 113
ENDBRANCH 106 109
ENDBRANCH 104 106
BRANCH 104 121
ATOM    121  O   UNL     1     151.174 166.785 189.303  0.00  0.00    -0.379 OA
BRANCH 121 122
ATOM    122  C   UNL     1     150.082 165.914 189.045  0.00  0.00    +0.037 C 
ATOM    123  H   UNL     1     149.179 166.241 189.567  0.00  0.00    +0.052 HD
ATOM    124  H   UNL     1     150.335 164.891 189.334  0.00  0.00    +0.052 HD
ATOM    125  H   UNL     1     149.882 165.928 187.970  0.00  0.00    +0.052 HD
ENDBRANCH 121 122
ENDBRANCH 104 121
ENDBRANCH  98 104
ENDBRANCH  96  98
ENDBRANCH  93  96
ENDBRANCH  90  93
ENDBRANCH  84  90
ENDBRANCH  82  84
BRANCH  82 126
ATOM    126  O   UNL     1     150.707 161.974 186.508  0.00  0.00    -0.379 OA
BRANCH 126 127
ATOM    127  C   UNL     1     149.347 162.336 186.326  0.00  0.00    +0.037 C 
ATOM    128  H   UNL     1     149.233 163.416 186.451  0.00  0.00    +0.052 HD
ATOM    129  H   UNL     1     148.983 162.026 185.340  0.00  0.00    +0.052 HD
ATOM    130  H   UNL     1     148.751 161.833 187.094  0.00  0.00    +0.052 HD
ENDBRANCH 126 127
ENDBRANCH  82 126
ENDBRANCH  76  82
ENDBRANCH  25  76
BRANCH  31 131
ATOM    131  O   UNL     1     158.860 161.721 189.732  0.00  0.00    -0.379 OA
BRANCH 131 132
ATOM    132  C   UNL     1     158.709 160.469 190.390  0.00  0.00    +0.037 C 
ATOM    133  H   UNL     1     159.059 159.656 189.745  0.00  0.00    +0.052 HD
ATOM    134  H   UNL     1     157.669 160.297 190.677  0.00  0.00    +0.052 HD
ATOM    135  H   UNL     1     159.320 160.483 191.294  0.00  0.00    +0.052 HD
ENDBRANCH 131 132
ENDBRANCH  31 131
BRANCH  29 136
ATOM    136  O   UNL     1     155.411 159.239 187.560  0.00  0.00    -0.376 OA
BRANCH 136 137
ATOM    137  C   UNL     1     155.335 158.807 188.914  0.00  0.00    +0.037 C 
ATOM    138  H   UNL     1     156.247 158.280 189.207  0.00  0.00    +0.052 HD
ATOM    139  H   UNL     1     155.217 159.689 189.548  0.00  0.00    +0.052 HD
ATOM    140  H   UNL     1     154.460 158.162 189.061  0.00  0.00    +0.052 HD
ENDBRANCH 136 137
ENDBRANCH  29 136
BRANCH  16 141
ATOM    141  O   UNL     1     155.667 169.784 178.871  0.00  0.00    -0.379 OA
BRANCH 141 142
ATOM    142  C   UNL     1     154.746 170.847 178.660  0.00  0.00    +0.037 C 
ATOM    143  H   UNL     1     155.310 171.780 178.589  0.00  0.00    +0.052 HD
ATOM    144  H   UNL     1     154.208 170.691 177.720  0.00  0.00    +0.052 HD
ATOM    145  H   UNL     1     154.035 170.931 179.489  0.00  0.00    +0.052 HD
ENDBRANCH 141 142
ENDBRANCH  16 141
BRANCH   6 146
ATOM    146  O   UNL     1     156.632 166.889 184.660  0.00  0.00    -0.379 OA
BRANCH 146 147
ATOM    147  C   UNL     1     155.470 167.212 185.415  0.00  0.00    +0.037 C 
ATOM    148  H   UNL     1     155.702 167.065 186.472  0.00  0.00    +0.052 HD
ATOM    149  H   UNL     1     155.197 168.262 185.263  0.00  0.00    +0.052 HD
ATOM    150  H   UNL     1     154.632 166.562 185.154  0.00  0.00    +0.052 HD
ENDBRANCH 146 147
ENDBRANCH   6 146
BRANCH   4 151
ATOM    151  O   UNL     1     160.533 164.832 185.784  0.00  0.00    -0.376 OA
BRANCH 151 152
ATOM    152  C   UNL     1     160.875 165.033 184.419  0.00  0.00    +0.037 C 
ATOM    153  H   UNL     1     161.836 164.543 184.231  0.00  0.00    +0.052 HD
ATOM    154  H   UNL     1     160.979 166.099 184.194  0.00  0.00    +0.052 HD
ATOM    155  H   UNL     1     160.122 164.580 183.766  0.00  0.00    +0.052 HD
ENDBRANCH 151 152
ENDBRANCH   4 151
TORSDOF 33
ENDMDL
MODEL 5
REMARK VINA RESULT:      -5.1      4.327     10.493
REMARK  Name = Reidispongiolide A_conf1
REMARK  33 active torsions:
REMARK  status: ('A' for Active; 'I' for Inactive)
REMARK    1  A    between atoms: C_1  and  C_2
REMARK    2  A    between atoms: C_5  and  O_67
REMARK    3  A    between atoms: C_7  and  O_65
REMARK    4  A    between atoms: C_8  and  C_64
REMARK    5  A    between atoms: C_17  and  O_62
REMARK    6  A    between atoms: C_19  and  C_61
REMARK    7  A    between atoms: C_26  and  C_38
REMARK    8  A    between atoms: C_27  and  C_37
REMARK    9  A    between atoms: C_30  and  O_35
REMARK   10  A    between atoms: C_32  and  O_33
REMARK   11  A    between atoms: O_33  and  C_34
REMARK   12  A    between atoms: O_35  and  C_36
REMARK   13  A    between atoms: C_38  and  C_39
REMARK   14  A    between atoms: C_38  and  C_40
REMARK   15  A    between atoms: C_40  and  C_41
REMARK   16  A    between atoms: C_40  and  O_59
REMARK   17  A    between atoms: C_41  and  C_42
REMARK   18  A    between atoms: C_41  and  C_43
REMARK   19  A    between atoms: C_43  and  C_44
REMARK   20  A    between atoms: C_44  and  C_45
REMARK   21  A    between atoms: C_45  and  C_47
REMARK   22  A    between atoms: C_47  and  C_48
REMARK   23  A    between atoms: C_47  and  C_49
REMARK   24  A    between atoms: C_49  and  C_50
REMARK   25  A    between atoms: C_49  and  O_57
REMARK   26  A    between atoms: C_50  and  C_51
REMARK   27  A    between atoms: C_52  and  N_53
REMARK   28  A    between atoms: N_53  and  C_54
REMARK   29  A    between atoms: O_57  and  C_58
REMARK   30  A    between atoms: O_59  and  C_60
REMARK   31  A    between atoms: O_62  and  C_63
REMARK   32  A    between atoms: O_65  and  C_66
REMARK   33  A    between atoms: O_67  and  C_68
REMARK                            x       y       z     vdW  Elec       q    Type
REMARK                         _______ _______ _______ _____ _____    ______ ____
ROOT
ATOM      1  C   UNL     1     146.512 165.109 189.276  0.00  0.00    +0.001 C 
ATOM      2  C   UNL     1     145.526 163.960 189.383  0.00  0.00    -0.080 C 
ATOM      3  C   UNL     1     145.632 162.807 188.703  0.00  0.00    -0.059 C 
ATOM      4  C   UNL     1     144.623 161.693 188.772  0.00  0.00    +0.079 C 
ATOM      5  C   UNL     1     145.177 160.320 188.347  0.00  0.00    +0.004 C 
ATOM      6  C   UNL     1     146.265 159.747 189.279  0.00  0.00    +0.067 C 
ATOM      7  C   UNL     1     145.997 158.266 189.702  0.00  0.00    +0.020 C 
ATOM      8  C   UNL     1     145.728 157.274 188.526  0.00  0.00    +0.112 C 
ATOM      9  C   UNL     1     146.925 156.923 187.630  0.00  0.00    +0.006 C 
ATOM     10  C   UNL     1     147.796 155.856 188.238  0.00  0.00    -0.057 C 
ATOM     11  C   UNL     1     147.297 155.044 189.182  0.00  0.00    +0.022 C 
ATOM     12  C   UNL     1     145.884 155.087 189.590  0.00  0.00    +0.332 C 
ATOM     13  O   UNL     1     145.426 154.249 190.356  0.00  0.00    -0.246 OA
ATOM     14  O   UNL     1     145.122 156.060 189.038  0.00  0.00    -0.458 OA
ATOM     15  C   UNL     1     149.220 155.716 187.737  0.00  0.00    -0.004 C 
ATOM     16  C   UNL     1     149.313 155.313 186.243  0.00  0.00    +0.066 C 
ATOM     17  C   UNL     1     150.767 155.412 185.708  0.00  0.00    -0.005 C 
ATOM     18  C   UNL     1     151.428 156.784 185.611  0.00  0.00    -0.070 C 
ATOM     19  C   UNL     1     150.729 157.928 185.717  0.00  0.00    -0.062 C 
ATOM     20  C   UNL     1     151.205 159.282 185.793  0.00  0.00    -0.055 C 
ATOM     21  C   UNL     1     151.853 159.975 184.843  0.00  0.00    +0.023 C 
ATOM     22  C   UNL     1     152.050 161.441 184.964  0.00  0.00    +0.332 C 
ATOM     23  O   UNL     1     152.356 162.155 184.023  0.00  0.00    -0.246 OA
ATOM     24  O   UNL     1     151.737 161.854 186.212  0.00  0.00    -0.457 OA
ATOM     25  C   UNL     1     151.401 163.253 186.441  0.00  0.00    +0.114 C 
ATOM     26  C   UNL     1     149.941 163.456 185.896  0.00  0.00    +0.012 C 
ATOM     27  C   UNL     1     149.434 164.885 185.922  0.00  0.00    -0.079 C 
ATOM     28  C   UNL     1     148.197 165.281 186.282  0.00  0.00    -0.059 C 
ATOM     29  C   UNL     1     147.643 166.684 186.334  0.00  0.00    +0.079 C 
ATOM     30  C   UNL     1     147.140 167.078 187.742  0.00  0.00    +0.004 C 
ATOM     31  C   UNL     1     145.993 166.181 188.266  0.00  0.00    +0.067 C 
ATOM     32  H   UNL     1     147.460 164.704 188.908  0.00  0.00    +0.037 HD
ATOM     33  H   UNL     1     144.661 164.126 190.025  0.00  0.00    +0.057 HD
ATOM     34  H   UNL     1     146.461 162.656 188.019  0.00  0.00    +0.059 HD
ATOM     35  H   UNL     1     144.220 161.608 189.792  0.00  0.00    +0.064 HD
ATOM     36  H   UNL     1     145.548 160.379 187.316  0.00  0.00    +0.032 HD
ATOM     37  H   UNL     1     144.307 159.657 188.302  0.00  0.00    +0.032 HD
ATOM     38  H   UNL     1     146.313 160.361 190.189  0.00  0.00    +0.060 HD
ATOM     39  H   UNL     1     146.876 157.893 190.243  0.00  0.00    +0.036 HD
ATOM     40  H   UNL     1     144.962 157.702 187.872  0.00  0.00    +0.074 HD
ATOM     41  H   UNL     1     147.511 157.809 187.386  0.00  0.00    +0.035 HD
ATOM     42  H   UNL     1     146.544 156.527 186.677  0.00  0.00    +0.035 HD
ATOM     43  H   UNL     1     147.883 154.253 189.637  0.00  0.00    +0.069 HD
ATOM     44  H   UNL     1     149.728 156.669 187.927  0.00  0.00    +0.034 HD
ATOM     45  H   UNL     1     149.747 154.963 188.338  0.00  0.00    +0.034 HD
ATOM     46  H   UNL     1     148.647 155.941 185.639  0.00  0.00    +0.060 HD
ATOM     47  H   UNL     1     151.390 154.765 186.345  0.00  0.00    +0.034 HD
ATOM     48  H   UNL     1     150.810 154.954 184.710  0.00  0.00    +0.034 HD
ATOM     49  H   UNL     1     149.649 157.891 185.870  0.00  0.00    +0.062 HD
ATOM     50  H   UNL     1     150.874 159.779 186.704  0.00  0.00    +0.062 HD
ATOM     51  H   UNL     1     152.138 159.538 183.894  0.00  0.00    +0.069 HD
ATOM     52  H   UNL     1     152.102 163.877 185.875  0.00  0.00    +0.074 HD
ATOM     53  H   UNL     1     149.981 163.196 184.826  0.00  0.00    +0.038 HD
ATOM     54  H   UNL     1     150.139 165.643 185.585  0.00  0.00    +0.057 HD
ATOM     55  H   UNL     1     147.463 164.523 186.544  0.00  0.00    +0.059 HD
ATOM     56  H   UNL     1     146.803 166.723 185.626  0.00  0.00    +0.064 HD
ATOM     57  H   UNL     1     147.986 167.073 188.440  0.00  0.00    +0.032 HD
ATOM     58  H   UNL     1     146.823 168.127 187.717  0.00  0.00    +0.032 HD
ATOM     59  H   UNL     1     145.503 165.673 187.421  0.00  0.00    +0.060 HD
ENDROOT
BRANCH   1  60
ATOM     60  C   UNL     1     146.767 165.679 190.678  0.00  0.00    -0.057 C 
ATOM     61  H   UNL     1     146.945 164.889 191.416  0.00  0.00    +0.024 HD
ATOM     62  H   UNL     1     147.649 166.327 190.675  0.00  0.00    +0.024 HD
ATOM     63  H   UNL     1     145.918 166.275 191.026  0.00  0.00    +0.024 HD
ENDBRANCH   1  60
BRANCH  26  64
ATOM     64  C   UNL     1     148.961 162.440 186.513  0.00  0.00    -0.056 C 
ATOM     65  H   UNL     1     148.952 162.485 187.603  0.00  0.00    +0.024 HD
ATOM     66  H   UNL     1     147.936 162.606 186.164  0.00  0.00    +0.024 HD
ATOM     67  H   UNL     1     149.249 161.412 186.267  0.00  0.00    +0.024 HD
ENDBRANCH  26  64
BRANCH  18  68
ATOM     68  C   UNL     1     152.923 156.717 185.433  0.00  0.00    -0.043 C 
ATOM     69  H   UNL     1     153.302 157.689 185.100  0.00  0.00    +0.027 HD
ATOM     70  H   UNL     1     153.180 155.972 184.670  0.00  0.00    +0.027 HD
ATOM     71  H   UNL     1     153.460 156.449 186.345  0.00  0.00    +0.027 HD
ENDBRANCH  18  68
BRANCH   7  72
ATOM     72  C   UNL     1     144.842 158.255 190.722  0.00  0.00    -0.057 C 
ATOM     73  H   UNL     1     143.878 158.164 190.211  0.00  0.00    +0.023 HD
ATOM     74  H   UNL     1     144.933 157.424 191.428  0.00  0.00    +0.023 HD
ATOM     75  H   UNL     1     144.806 159.185 191.299  0.00  0.00    +0.023 HD
ENDBRANCH   7  72
BRANCH  25  76
ATOM     76  C   UNL     1     151.633 163.471 187.968  0.00  0.00    +0.020 C 
ATOM     77  H   UNL     1     150.645 163.622 188.426  0.00  0.00    +0.036 HD
BRANCH  76  78
ATOM     78  C   UNL     1     152.136 162.169 188.625  0.00  0.00    -0.057 C 
ATOM     79  H   UNL     1     153.205 162.243 188.852  0.00  0.00    +0.023 HD
ATOM     80  H   UNL     1     152.019 161.300 187.973  0.00  0.00    +0.023 HD
ATOM     81  H   UNL     1     151.625 161.970 189.570  0.00  0.00    +0.023 HD
ENDBRANCH  76  78
BRANCH  76  82
ATOM     82  C   UNL     1     152.478 164.713 188.362  0.00  0.00    +0.067 C 
ATOM     83  H   UNL     1     153.455 164.341 188.686  0.00  0.00    +0.060 HD
BRANCH  82  84
ATOM     84  C   UNL     1     151.933 165.647 189.489  0.00  0.00    -0.017 C 
ATOM     85  H   UNL     1     152.265 166.669 189.279  0.00  0.00    +0.032 HD
BRANCH  84  86
ATOM     86  C   UNL     1     150.396 165.643 189.393  0.00  0.00    -0.060 C 
ATOM     87  H   UNL     1     149.962 164.830 189.983  0.00  0.00    +0.023 HD
ATOM     88  H   UNL     1     149.966 166.583 189.751  0.00  0.00    +0.023 HD
ATOM     89  H   UNL     1     150.065 165.478 188.365  0.00  0.00    +0.023 HD
ENDBRANCH  84  86
BRANCH  84  90
ATOM     90  C   UNL     1     152.404 165.257 190.915  0.00  0.00    -0.041 C 
ATOM     91  H   UNL     1     153.291 164.621 190.840  0.00  0.00    +0.027 HD
ATOM     92  H   UNL     1     151.623 164.646 191.386  0.00  0.00    +0.027 HD
BRANCH  90  93
ATOM     93  C   UNL     1     152.719 166.391 191.892  0.00  0.00    +0.007 C 
ATOM     94  H   UNL     1     152.484 167.337 191.380  0.00  0.00    +0.034 HD
ATOM     95  H   UNL     1     153.777 166.477 192.158  0.00  0.00    +0.034 HD
BRANCH  93  96
ATOM     96  C   UNL     1     151.876 166.393 193.154  0.00  0.00    +0.139 C 
ATOM     97  O   UNL     1     152.261 165.764 194.143  0.00  0.00    -0.297 OA
BRANCH  96  98
ATOM     98  C   UNL     1     150.552 167.155 193.137  0.00  0.00    +0.041 C 
ATOM     99  H   UNL     1     150.455 167.677 194.094  0.00  0.00    +0.040 HD
BRANCH  98 100
ATOM    100  C   UNL     1     149.410 166.144 193.038  0.00  0.00    -0.053 C 
ATOM    101  H   UNL     1     148.779 166.154 193.930  0.00  0.00    +0.024 HD
ATOM    102  H   UNL     1     149.806 165.131 192.906  0.00  0.00    +0.024 HD
ATOM    103  H   UNL     1     148.766 166.368 192.184  0.00  0.00    +0.024 HD
ENDBRANCH  98 100
BRANCH  98 104
ATOM    104  C   UNL     1     150.491 168.220 192.011  0.00  0.00    +0.071 C 
ATOM    105  H   UNL     1     151.194 167.896 191.230  0.00  0.00    +0.061 HD
BRANCH 104 106
ATOM    106  C   UNL     1     149.084 168.366 191.382  0.00  0.00    -0.006 C 
ATOM    107  H   UNL     1     149.158 168.431 190.289  0.00  0.00    +0.033 HD
ATOM    108  H   UNL     1     148.505 167.452 191.563  0.00  0.00    +0.033 HD
BRANCH 106 109
ATOM    109  C   UNL     1     148.322 169.564 191.894  0.00  0.00    -0.067 C 
ATOM    110  C   UNL     1     147.962 170.591 191.111  0.00  0.00    -0.005 C 
ATOM    111  H   UNL     1     148.081 169.550 192.950  0.00  0.00    +0.059 HD
ATOM    112  H   UNL     1     148.247 170.568 190.058  0.00  0.00    +0.078 HD
BRANCH 110 113
ATOM    113  N   UNL     1     147.237 171.716 191.476  0.00  0.00    -0.284 N 
ATOM    114  C   UNL     1     147.581 172.603 192.492  0.00  0.00    +0.206 C 
ATOM    115  O   UNL     1     146.928 173.576 192.854  0.00  0.00    -0.279 OA
ATOM    116  H   UNL     1     148.534 172.368 192.987  0.00  0.00    +0.126 HD
BRANCH 113 117
ATOM    117  C   UNL     1     145.999 171.975 190.750  0.00  0.00    +0.007 C 
ATOM    118  H   UNL     1     145.722 173.027 190.890  0.00  0.00    +0.043 HD
ATOM    119  H   UNL     1     146.153 171.775 189.682  0.00  0.00    +0.043 HD
ATOM    120  H   UNL     1     145.172 171.351 191.101  0.00  0.00    +0.043 HD
ENDBRANCH 113 117
ENDBRANCH 110 113
ENDBRANCH 106 109
ENDBRANCH 104 106
BRANCH 104 121
ATOM    121  O   UNL     1     150.938 169.481 192.521  0.00  0.00    -0.379 OA
BRANCH 121 122
ATOM    122  C   UNL     1     151.755 170.214 191.619  0.00  0.00    +0.037 C 
ATOM    123  H   UNL     1     151.442 171.259 191.558  0.00  0.00    +0.052 HD
ATOM    124  H   UNL     1     151.732 169.756 190.627  0.00  0.00    +0.052 HD
ATOM    125  H   UNL     1     152.784 170.184 191.988  0.00  0.00    +0.052 HD
ENDBRANCH 121 122
ENDBRANCH 104 121
ENDBRANCH  98 104
ENDBRANCH  96  98
ENDBRANCH  93  96
ENDBRANCH  90  93
ENDBRANCH  84  90
ENDBRANCH  82  84
BRANCH  82 126
ATOM    126  O   UNL     1     152.695 165.523 187.189  0.00  0.00    -0.379 OA
BRANCH 126 127
ATOM    127  C   UNL     1     153.480 166.679 187.439  0.00  0.00    +0.037 C 
ATOM    128  H   UNL     1     154.112 166.890 186.572  0.00  0.00    +0.052 HD
ATOM    129  H   UNL     1     152.849 167.544 187.670  0.00  0.00    +0.052 HD
ATOM    130  H   UNL     1     154.127 166.477 188.298  0.00  0.00    +0.052 HD
ENDBRANCH 126 127
ENDBRANCH  82 126
ENDBRANCH  76  82
ENDBRANCH  25  76
BRANCH  31 131
ATOM    131  O   UNL     1     145.006 166.995 188.930  0.00  0.00    -0.379 OA
BRANCH 131 132
ATOM    132  C   UNL     1     143.814 167.159 188.171  0.00  0.00    +0.037 C 
ATOM    133  H   UNL     1     143.375 168.144 188.362  0.00  0.00    +0.052 HD
ATOM    134  H   UNL     1     143.089 166.375 188.402  0.00  0.00    +0.052 HD
ATOM    135  H   UNL     1     144.072 167.092 187.113  0.00  0.00    +0.052 HD
ENDBRANCH 131 132
ENDBRANCH  31 131
BRANCH  29 136
ATOM    136  O   UNL     1     148.662 167.603 185.924  0.00  0.00    -0.376 OA
BRANCH 136 137
ATOM    137  C   UNL     1     148.145 168.897 185.635  0.00  0.00    +0.037 C 
ATOM    138  H   UNL     1     147.639 168.908 184.666  0.00  0.00    +0.052 HD
ATOM    139  H   UNL     1     147.422 169.157 186.414  0.00  0.00    +0.052 HD
ATOM    140  H   UNL     1     148.947 169.643 185.653  0.00  0.00    +0.052 HD
ENDBRANCH 136 137
ENDBRANCH  29 136
BRANCH  16 141
ATOM    141  O   UNL     1     148.880 153.940 186.148  0.00  0.00    -0.379 OA
BRANCH 141 142
ATOM    142  C   UNL     1     149.945 153.011 186.299  0.00  0.00    +0.037 C 
ATOM    143  H   UNL     1     150.631 153.396 187.058  0.00  0.00    +0.052 HD
ATOM    144  H   UNL     1     149.552 152.048 186.638  0.00  0.00    +0.052 HD
ATOM    145  H   UNL     1     150.498 152.880 185.362  0.00  0.00    +0.052 HD
ENDBRANCH 141 142
ENDBRANCH  16 141
BRANCH   6 146
ATOM    146  O   UNL     1     147.522 159.857 188.593  0.00  0.00    -0.379 OA
BRANCH 146 147
ATOM    147  C   UNL     1     148.632 159.437 189.378  0.00  0.00    +0.037 C 
ATOM    148  H   UNL     1     149.105 160.327 189.798  0.00  0.00    +0.052 HD
ATOM    149  H   UNL     1     148.295 158.801 190.203  0.00  0.00    +0.052 HD
ATOM    150  H   UNL     1     149.372 158.909 188.771  0.00  0.00    +0.052 HD
ENDBRANCH 146 147
ENDBRANCH   6 146
BRANCH   4 151
ATOM    151  O   UNL     1     143.586 162.011 187.831  0.00  0.00    -0.376 OA
BRANCH 151 152
ATOM    152  C   UNL     1     142.321 162.195 188.451  0.00  0.00    +0.037 C 
ATOM    153  H   UNL     1     142.126 163.271 188.518  0.00  0.00    +0.052 HD
ATOM    154  H   UNL     1     142.315 161.777 189.463  0.00  0.00    +0.052 HD
ATOM    155  H   UNL     1     141.530 161.738 187.848  0.00  0.00    +0.052 HD
ENDBRANCH 151 152
ENDBRANCH   4 151
TORSDOF 33
ENDMDL
MODEL 6
REMARK VINA RESULT:      -5.1      4.044     11.450
REMARK  Name = Reidispongiolide A_conf1
REMARK  33 active torsions:
REMARK  status: ('A' for Active; 'I' for Inactive)
REMARK    1  A    between atoms: C_1  and  C_2
REMARK    2  A    between atoms: C_5  and  O_67
REMARK    3  A    between atoms: C_7  and  O_65
REMARK    4  A    between atoms: C_8  and  C_64
REMARK    5  A    between atoms: C_17  and  O_62
REMARK    6  A    between atoms: C_19  and  C_61
REMARK    7  A    between atoms: C_26  and  C_38
REMARK    8  A    between atoms: C_27  and  C_37
REMARK    9  A    between atoms: C_30  and  O_35
REMARK   10  A    between atoms: C_32  and  O_33
REMARK   11  A    between atoms: O_33  and  C_34
REMARK   12  A    between atoms: O_35  and  C_36
REMARK   13  A    between atoms: C_38  and  C_39
REMARK   14  A    between atoms: C_38  and  C_40
REMARK   15  A    between atoms: C_40  and  C_41
REMARK   16  A    between atoms: C_40  and  O_59
REMARK   17  A    between atoms: C_41  and  C_42
REMARK   18  A    between atoms: C_41  and  C_43
REMARK   19  A    between atoms: C_43  and  C_44
REMARK   20  A    between atoms: C_44  and  C_45
REMARK   21  A    between atoms: C_45  and  C_47
REMARK   22  A    between atoms: C_47  and  C_48
REMARK   23  A    between atoms: C_47  and  C_49
REMARK   24  A    between atoms: C_49  and  C_50
REMARK   25  A    between atoms: C_49  and  O_57
REMARK   26  A    between atoms: C_50  and  C_51
REMARK   27  A    between atoms: C_52  and  N_53
REMARK   28  A    between atoms: N_53  and  C_54
REMARK   29  A    between atoms: O_57  and  C_58
REMARK   30  A    between atoms: O_59  and  C_60
REMARK   31  A    between atoms: O_62  and  C_63
REMARK   32  A    between atoms: O_65  and  C_66
REMARK   33  A    between atoms: O_67  and  C_68
REMARK                            x       y       z     vdW  Elec       q    Type
REMARK                         _______ _______ _______ _____ _____    ______ ____
ROOT
ATOM      1  C   UNL     1     158.389 161.760 188.886  0.00  0.00    +0.001 C 
ATOM      2  C   UNL     1     159.714 162.125 188.241  0.00  0.00    -0.080 C 
ATOM      3  C   UNL     1     159.835 162.684 187.026  0.00  0.00    -0.059 C 
ATOM      4  C   UNL     1     161.153 162.993 186.369  0.00  0.00    +0.079 C 
ATOM      5  C   UNL     1     161.065 164.061 185.264  0.00  0.00    +0.004 C 
ATOM      6  C   UNL     1     160.681 165.472 185.758  0.00  0.00    +0.067 C 
ATOM      7  C   UNL     1     161.631 166.593 185.224  0.00  0.00    +0.020 C 
ATOM      8  C   UNL     1     161.839 166.610 183.675  0.00  0.00    +0.112 C 
ATOM      9  C   UNL     1     160.642 167.057 182.823  0.00  0.00    +0.006 C 
ATOM     10  C   UNL     1     160.523 168.557 182.753  0.00  0.00    -0.057 C 
ATOM     11  C   UNL     1     161.591 169.324 183.015  0.00  0.00    +0.022 C 
ATOM     12  C   UNL     1     162.922 168.757 183.279  0.00  0.00    +0.332 C 
ATOM     13  O   UNL     1     163.904 169.480 183.384  0.00  0.00    -0.246 OA
ATOM     14  O   UNL     1     163.005 167.407 183.346  0.00  0.00    -0.458 OA
ATOM     15  C   UNL     1     159.187 169.155 182.359  0.00  0.00    -0.004 C 
ATOM     16  C   UNL     1     158.747 168.788 180.918  0.00  0.00    +0.066 C 
ATOM     17  C   UNL     1     157.281 169.216 180.636  0.00  0.00    -0.005 C 
ATOM     18  C   UNL     1     156.150 168.529 181.398  0.00  0.00    -0.070 C 
ATOM     19  C   UNL     1     156.340 167.400 182.102  0.00  0.00    -0.062 C 
ATOM     20  C   UNL     1     155.435 166.712 182.982  0.00  0.00    -0.055 C 
ATOM     21  C   UNL     1     154.283 166.103 182.655  0.00  0.00    +0.023 C 
ATOM     22  C   UNL     1     153.588 165.213 183.618  0.00  0.00    +0.332 C 
ATOM     23  O   UNL     1     152.725 164.417 183.289  0.00  0.00    -0.246 OA
ATOM     24  O   UNL     1     154.128 165.343 184.849  0.00  0.00    -0.457 OA
ATOM     25  C   UNL     1     153.951 164.277 185.826  0.00  0.00    +0.114 C 
ATOM     26  C   UNL     1     154.931 163.121 185.406  0.00  0.00    +0.012 C 
ATOM     27  C   UNL     1     154.819 161.849 186.225  0.00  0.00    -0.079 C 
ATOM     28  C   UNL     1     155.846 161.098 186.666  0.00  0.00    -0.059 C 
ATOM     29  C   UNL     1     155.793 159.832 187.487  0.00  0.00    +0.079 C 
ATOM     30  C   UNL     1     156.558 159.953 188.825  0.00  0.00    +0.004 C 
ATOM     31  C   UNL     1     158.067 160.250 188.655  0.00  0.00    +0.067 C 
ATOM     32  H   UNL     1     157.609 162.366 188.414  0.00  0.00    +0.037 HD
ATOM     33  H   UNL     1     160.611 161.861 188.802  0.00  0.00    +0.057 HD
ATOM     34  H   UNL     1     158.949 162.898 186.438  0.00  0.00    +0.059 HD
ATOM     35  H   UNL     1     161.884 163.326 187.122  0.00  0.00    +0.064 HD
ATOM     36  H   UNL     1     160.369 163.725 184.485  0.00  0.00    +0.032 HD
ATOM     37  H   UNL     1     162.051 164.066 184.785  0.00  0.00    +0.032 HD
ATOM     38  H   UNL     1     160.717 165.486 186.856  0.00  0.00    +0.060 HD
ATOM     39  H   UNL     1     161.212 167.567 185.503  0.00  0.00    +0.036 HD
ATOM     40  H   UNL     1     162.101 165.600 183.344  0.00  0.00    +0.074 HD
ATOM     41  H   UNL     1     159.713 166.610 183.177  0.00  0.00    +0.035 HD
ATOM     42  H   UNL     1     160.791 166.695 181.795  0.00  0.00    +0.035 HD
ATOM     43  H   UNL     1     161.555 170.407 182.963  0.00  0.00    +0.069 HD
ATOM     44  H   UNL     1     158.450 168.825 183.099  0.00  0.00    +0.034 HD
ATOM     45  H   UNL     1     159.238 170.249 182.443  0.00  0.00    +0.034 HD
ATOM     46  H   UNL     1     158.862 167.711 180.750  0.00  0.00    +0.060 HD
ATOM     47  H   UNL     1     157.221 170.300 180.818  0.00  0.00    +0.034 HD
ATOM     48  H   UNL     1     157.076 169.096 179.563  0.00  0.00    +0.034 HD
ATOM     49  H   UNL     1     157.330 166.942 182.134  0.00  0.00    +0.062 HD
ATOM     50  H   UNL     1     155.841 166.614 183.988  0.00  0.00    +0.062 HD
ATOM     51  H   UNL     1     153.881 166.116 181.650  0.00  0.00    +0.069 HD
ATOM     52  H   UNL     1     152.914 163.926 185.775  0.00  0.00    +0.074 HD
ATOM     53  H   UNL     1     154.627 162.825 184.390  0.00  0.00    +0.038 HD
ATOM     54  H   UNL     1     153.806 161.512 186.438  0.00  0.00    +0.057 HD
ATOM     55  H   UNL     1     156.857 161.384 186.391  0.00  0.00    +0.059 HD
ATOM     56  H   UNL     1     156.250 159.037 186.880  0.00  0.00    +0.064 HD
ATOM     57  H   UNL     1     156.078 160.722 189.444  0.00  0.00    +0.032 HD
ATOM     58  H   UNL     1     156.412 159.027 189.394  0.00  0.00    +0.032 HD
ATOM     59  H   UNL     1     158.389 159.963 187.643  0.00  0.00    +0.060 HD
ENDROOT
BRANCH   1  60
ATOM     60  C   UNL     1     158.435 162.144 190.371  0.00  0.00    -0.057 C 
ATOM     61  H   UNL     1     159.065 161.460 190.952  0.00  0.00    +0.024 HD
ATOM     62  H   UNL     1     158.845 163.151 190.496  0.00  0.00    +0.024 HD
ATOM     63  H   UNL     1     157.435 162.134 190.816  0.00  0.00    +0.024 HD
ENDBRANCH   1  60
BRANCH  26  64
ATOM     64  C   UNL     1     156.376 163.633 185.254  0.00  0.00    -0.056 C 
ATOM     65  H   UNL     1     156.769 163.468 184.249  0.00  0.00    +0.024 HD
ATOM     66  H   UNL     1     156.449 164.705 185.468  0.00  0.00    +0.024 HD
ATOM     67  H   UNL     1     157.058 163.099 185.924  0.00  0.00    +0.024 HD
ENDBRANCH  26  64
BRANCH  18  68
ATOM     68  C   UNL     1     154.838 169.265 181.311  0.00  0.00    -0.043 C 
ATOM     69  H   UNL     1     154.595 169.709 182.283  0.00  0.00    +0.027 HD
ATOM     70  H   UNL     1     154.032 168.571 181.044  0.00  0.00    +0.027 HD
ATOM     71  H   UNL     1     154.836 170.069 180.573  0.00  0.00    +0.027 HD
ENDBRANCH  18  68
BRANCH   7  72
ATOM     72  C   UNL     1     162.975 166.485 185.969  0.00  0.00    -0.057 C 
ATOM     73  H   UNL     1     163.038 165.537 186.515  0.00  0.00    +0.023 HD
ATOM     74  H   UNL     1     163.825 166.540 185.282  0.00  0.00    +0.023 HD
ATOM     75  H   UNL     1     163.089 167.283 186.710  0.00  0.00    +0.023 HD
ENDBRANCH   7  72
BRANCH  25  76
ATOM     76  C   UNL     1     154.197 164.959 187.207  0.00  0.00    +0.020 C 
ATOM     77  H   UNL     1     155.168 164.598 187.577  0.00  0.00    +0.036 HD
BRANCH  76  78
ATOM     78  C   UNL     1     154.426 166.473 187.023  0.00  0.00    -0.057 C 
ATOM     79  H   UNL     1     155.448 166.743 187.311  0.00  0.00    +0.023 HD
ATOM     80  H   UNL     1     153.762 167.076 187.645  0.00  0.00    +0.023 HD
ATOM     81  H   UNL     1     154.301 166.776 185.980  0.00  0.00    +0.023 HD
ENDBRANCH  76  78
BRANCH  76  82
ATOM     82  C   UNL     1     153.169 164.634 188.325  0.00  0.00    +0.067 C 
ATOM     83  H   UNL     1     152.709 165.583 188.617  0.00  0.00    +0.060 HD
BRANCH  82  84
ATOM     84  C   UNL     1     153.690 163.944 189.626  0.00  0.00    -0.017 C 
ATOM     85  H   UNL     1     153.213 162.962 189.709  0.00  0.00    +0.032 HD
BRANCH  84  86
ATOM     86  C   UNL     1     155.200 163.700 189.450  0.00  0.00    -0.060 C 
ATOM     87  H   UNL     1     155.432 163.348 188.441  0.00  0.00    +0.023 HD
ATOM     88  H   UNL     1     155.779 164.611 189.627  0.00  0.00    +0.023 HD
ATOM     89  H   UNL     1     155.557 162.923 190.129  0.00  0.00    +0.023 HD
ENDBRANCH  84  86
BRANCH  84  90
ATOM     90  C   UNL     1     153.402 164.744 190.924  0.00  0.00    -0.041 C 
ATOM     91  H   UNL     1     153.946 164.288 191.756  0.00  0.00    +0.027 HD
ATOM     92  H   UNL     1     152.335 164.653 191.162  0.00  0.00    +0.027 HD
BRANCH  90  93
ATOM     93  C   UNL     1     153.721 166.241 190.918  0.00  0.00    +0.007 C 
ATOM     94  H   UNL     1     153.432 166.632 189.930  0.00  0.00    +0.034 HD
ATOM     95  H   UNL     1     154.785 166.477 191.008  0.00  0.00    +0.034 HD
BRANCH  93  96
ATOM     96  C   UNL     1     152.932 167.060 191.923  0.00  0.00    +0.139 C 
ATOM     97  O   UNL     1     153.228 167.004 193.120  0.00  0.00    -0.297 OA
BRANCH  96  98
ATOM     98  C   UNL     1     151.767 167.905 191.411  0.00  0.00    +0.041 C 
ATOM     99  H   UNL     1     151.971 168.156 190.365  0.00  0.00    +0.040 HD
BRANCH  98 100
ATOM    100  C   UNL     1     151.726 169.210 192.205  0.00  0.00    -0.053 C 
ATOM    101  H   UNL     1     152.683 169.736 192.175  0.00  0.00    +0.024 HD
ATOM    102  H   UNL     1     151.473 169.013 193.253  0.00  0.00    +0.024 HD
ATOM    103  H   UNL     1     150.971 169.889 191.799  0.00  0.00    +0.024 HD
ENDBRANCH  98 100
BRANCH  98 104
ATOM    104  C   UNL     1     150.414 167.148 191.459  0.00  0.00    +0.071 C 
ATOM    105  H   UNL     1     150.642 166.109 191.738  0.00  0.00    +0.061 HD
BRANCH 104 106
ATOM    106  C   UNL     1     149.420 167.732 192.491  0.00  0.00    -0.006 C 
ATOM    107  H   UNL     1     149.779 168.699 192.865  0.00  0.00    +0.033 HD
ATOM    108  H   UNL     1     148.471 167.967 191.993  0.00  0.00    +0.033 HD
BRANCH 106 109
ATOM    109  C   UNL     1     149.169 166.816 193.664  0.00  0.00    -0.067 C 
ATOM    110  C   UNL     1     150.155 166.251 194.375  0.00  0.00    -0.005 C 
ATOM    111  H   UNL     1     148.128 166.634 193.901  0.00  0.00    +0.059 HD
ATOM    112  H   UNL     1     151.188 166.450 194.083  0.00  0.00    +0.078 HD
BRANCH 110 113
ATOM    113  N   UNL     1     150.030 165.426 195.483  0.00  0.00    -0.284 N 
ATOM    114  C   UNL     1     150.870 164.360 195.794  0.00  0.00    +0.206 C 
ATOM    115  O   UNL     1     150.746 163.596 196.746  0.00  0.00    -0.279 OA
ATOM    116  H   UNL     1     151.706 164.230 195.093  0.00  0.00    +0.126 HD
BRANCH 113 117
ATOM    117  C   UNL     1     148.910 165.683 196.382  0.00  0.00    +0.007 C 
ATOM    118  H   UNL     1     148.248 164.809 196.378  0.00  0.00    +0.043 HD
ATOM    119  H   UNL     1     149.288 165.853 197.397  0.00  0.00    +0.043 HD
ATOM    120  H   UNL     1     148.328 166.559 196.081  0.00  0.00    +0.043 HD
ENDBRANCH 113 117
ENDBRANCH 110 113
ENDBRANCH 106 109
ENDBRANCH 104 106
BRANCH 104 121
ATOM    121  O   UNL     1     149.824 167.141 190.153  0.00  0.00    -0.379 OA
BRANCH 121 122
ATOM    122  C   UNL     1     149.875 165.880 189.501  0.00  0.00    +0.037 C 
ATOM    123  H   UNL     1     150.245 165.975 188.478  0.00  0.00    +0.052 HD
ATOM    124  H   UNL     1     148.887 165.412 189.502  0.00  0.00    +0.052 HD
ATOM    125  H   UNL     1     150.561 165.236 190.057  0.00  0.00    +0.052 HD
ENDBRANCH 121 122
ENDBRANCH 104 121
ENDBRANCH  98 104
ENDBRANCH  96  98
ENDBRANCH  93  96
ENDBRANCH  90  93
ENDBRANCH  84  90
ENDBRANCH  82  84
BRANCH  82 126
ATOM    126  O   UNL     1     152.127 163.803 187.775  0.00  0.00    -0.379 OA
BRANCH 126 127
ATOM    127  C   UNL     1     151.954 162.579 188.473  0.00  0.00    +0.037 C 
ATOM    128  H   UNL     1     151.958 162.767 189.551  0.00  0.00    +0.052 HD
ATOM    129  H   UNL     1     151.026 162.081 188.176  0.00  0.00    +0.052 HD
ATOM    130  H   UNL     1     152.798 161.924 188.233  0.00  0.00    +0.052 HD
ENDBRANCH 126 127
ENDBRANCH  82 126
ENDBRANCH  76  82
ENDBRANCH  25  76
BRANCH  31 131
ATOM    131  O   UNL     1     158.824 159.471 189.602  0.00  0.00    -0.379 OA
BRANCH 131 132
ATOM    132  C   UNL     1     158.080 158.394 190.160  0.00  0.00    +0.037 C 
ATOM    133  H   UNL     1     157.009 158.622 190.142  0.00  0.00    +0.052 HD
ATOM    134  H   UNL     1     158.400 158.181 191.183  0.00  0.00    +0.052 HD
ATOM    135  H   UNL     1     158.257 157.506 189.550  0.00  0.00    +0.052 HD
ENDBRANCH 131 132
ENDBRANCH  31 131
BRANCH  29 136
ATOM    136  O   UNL     1     154.424 159.507 187.754  0.00  0.00    -0.376 OA
BRANCH 136 137
ATOM    137  C   UNL     1     154.123 159.518 189.145  0.00  0.00    +0.037 C 
ATOM    138  H   UNL     1     154.949 159.099 189.727  0.00  0.00    +0.052 HD
ATOM    139  H   UNL     1     153.966 160.556 189.452  0.00  0.00    +0.052 HD
ATOM    140  H   UNL     1     153.200 158.961 189.342  0.00  0.00    +0.052 HD
ENDBRANCH 136 137
ENDBRANCH  29 136
BRANCH  16 141
ATOM    141  O   UNL     1     159.616 169.503 180.015  0.00  0.00    -0.379 OA
BRANCH 141 142
ATOM    142  C   UNL     1     159.229 169.373 178.653  0.00  0.00    +0.037 C 
ATOM    143  H   UNL     1     159.329 168.323 178.367  0.00  0.00    +0.052 HD
ATOM    144  H   UNL     1     158.182 169.670 178.535  0.00  0.00    +0.052 HD
ATOM    145  H   UNL     1     159.865 169.976 177.997  0.00  0.00    +0.052 HD
ENDBRANCH 141 142
ENDBRANCH  16 141
BRANCH   6 146
ATOM    146  O   UNL     1     159.327 165.719 185.347  0.00  0.00    -0.379 OA
BRANCH 146 147
ATOM    147  C   UNL     1     158.768 166.894 185.922  0.00  0.00    +0.037 C 
ATOM    148  H   UNL     1     158.881 166.827 187.006  0.00  0.00    +0.052 HD
ATOM    149  H   UNL     1     159.307 167.781 185.572  0.00  0.00    +0.052 HD
ATOM    150  H   UNL     1     157.704 166.982 185.692  0.00  0.00    +0.052 HD
ENDBRANCH 146 147
ENDBRANCH   6 146
BRANCH   4 151
ATOM    151  O   UNL     1     161.589 161.788 185.723  0.00  0.00    -0.376 OA
BRANCH 151 152
ATOM    152  C   UNL     1     162.114 162.021 184.423  0.00  0.00    +0.037 C 
ATOM    153  H   UNL     1     161.417 162.672 183.884  0.00  0.00    +0.052 HD
ATOM    154  H   UNL     1     162.214 161.084 183.866  0.00  0.00    +0.052 HD
ATOM    155  H   UNL     1     163.081 162.528 184.487  0.00  0.00    +0.052 HD
ENDBRANCH 151 152
ENDBRANCH   4 151
TORSDOF 33
ENDMDL
MODEL 7
REMARK VINA RESULT:      -5.1      4.477     11.734
REMARK  Name = Reidispongiolide A_conf1
REMARK  33 active torsions:
REMARK  status: ('A' for Active; 'I' for Inactive)
REMARK    1  A    between atoms: C_1  and  C_2
REMARK    2  A    between atoms: C_5  and  O_67
REMARK    3  A    between atoms: C_7  and  O_65
REMARK    4  A    between atoms: C_8  and  C_64
REMARK    5  A    between atoms: C_17  and  O_62
REMARK    6  A    between atoms: C_19  and  C_61
REMARK    7  A    between atoms: C_26  and  C_38
REMARK    8  A    between atoms: C_27  and  C_37
REMARK    9  A    between atoms: C_30  and  O_35
REMARK   10  A    between atoms: C_32  and  O_33
REMARK   11  A    between atoms: O_33  and  C_34
REMARK   12  A    between atoms: O_35  and  C_36
REMARK   13  A    between atoms: C_38  and  C_39
REMARK   14  A    between atoms: C_38  and  C_40
REMARK   15  A    between atoms: C_40  and  C_41
REMARK   16  A    between atoms: C_40  and  O_59
REMARK   17  A    between atoms: C_41  and  C_42
REMARK   18  A    between atoms: C_41  and  C_43
REMARK   19  A    between atoms: C_43  and  C_44
REMARK   20  A    between atoms: C_44  and  C_45
REMARK   21  A    between atoms: C_45  and  C_47
REMARK   22  A    between atoms: C_47  and  C_48
REMARK   23  A    between atoms: C_47  and  C_49
REMARK   24  A    between atoms: C_49  and  C_50
REMARK   25  A    between atoms: C_49  and  O_57
REMARK   26  A    between atoms: C_50  and  C_51
REMARK   27  A    between atoms: C_52  and  N_53
REMARK   28  A    between atoms: N_53  and  C_54
REMARK   29  A    between atoms: O_57  and  C_58
REMARK   30  A    between atoms: O_59  and  C_60
REMARK   31  A    between atoms: O_62  and  C_63
REMARK   32  A    between atoms: O_65  and  C_66
REMARK   33  A    between atoms: O_67  and  C_68
REMARK                            x       y       z     vdW  Elec       q    Type
REMARK                         _______ _______ _______ _____ _____    ______ ____
ROOT
ATOM      1  C   UNL     1     153.490 160.449 187.768  0.00  0.00    +0.001 C 
ATOM      2  C   UNL     1     154.304 159.536 188.668  0.00  0.00    -0.080 C 
ATOM      3  C   UNL     1     155.646 159.470 188.663  0.00  0.00    -0.059 C 
ATOM      4  C   UNL     1     156.445 158.525 189.518  0.00  0.00    +0.079 C 
ATOM      5  C   UNL     1     157.906 158.960 189.734  0.00  0.00    +0.004 C 
ATOM      6  C   UNL     1     158.079 160.260 190.547  0.00  0.00    +0.067 C 
ATOM      7  C   UNL     1     159.114 160.126 191.711  0.00  0.00    +0.020 C 
ATOM      8  C   UNL     1     160.513 159.566 191.300  0.00  0.00    +0.112 C 
ATOM      9  C   UNL     1     161.406 160.489 190.457  0.00  0.00    +0.006 C 
ATOM     10  C   UNL     1     162.137 161.499 191.302  0.00  0.00    -0.057 C 
ATOM     11  C   UNL     1     162.310 161.273 192.613  0.00  0.00    +0.022 C 
ATOM     12  C   UNL     1     161.895 160.016 193.256  0.00  0.00    +0.332 C 
ATOM     13  O   UNL     1     162.183 159.783 194.422  0.00  0.00    -0.246 OA
ATOM     14  O   UNL     1     161.232 159.127 192.480  0.00  0.00    -0.458 OA
ATOM     15  C   UNL     1     162.682 162.743 190.628  0.00  0.00    -0.004 C 
ATOM     16  C   UNL     1     163.775 162.443 189.571  0.00  0.00    +0.066 C 
ATOM     17  C   UNL     1     164.136 163.705 188.741  0.00  0.00    -0.005 C 
ATOM     18  C   UNL     1     163.083 164.305 187.812  0.00  0.00    -0.070 C 
ATOM     19  C   UNL     1     161.958 163.648 187.481  0.00  0.00    -0.062 C 
ATOM     20  C   UNL     1     160.813 164.115 186.748  0.00  0.00    -0.055 C 
ATOM     21  C   UNL     1     160.764 164.485 185.458  0.00  0.00    +0.023 C 
ATOM     22  C   UNL     1     159.467 164.693 184.769  0.00  0.00    +0.332 C 
ATOM     23  O   UNL     1     159.352 164.735 183.556  0.00  0.00    -0.246 OA
ATOM     24  O   UNL     1     158.458 164.715 185.669  0.00  0.00    -0.457 OA
ATOM     25  C   UNL     1     157.098 164.439 185.227  0.00  0.00    +0.114 C 
ATOM     26  C   UNL     1     157.007 162.885 185.008  0.00  0.00    +0.012 C 
ATOM     27  C   UNL     1     155.699 162.389 184.422  0.00  0.00    -0.079 C 
ATOM     28  C   UNL     1     155.026 161.287 184.806  0.00  0.00    -0.059 C 
ATOM     29  C   UNL     1     153.721 160.754 184.266  0.00  0.00    +0.079 C 
ATOM     30  C   UNL     1     152.626 160.634 185.351  0.00  0.00    +0.004 C 
ATOM     31  C   UNL     1     152.998 159.673 186.506  0.00  0.00    +0.067 C 
ATOM     32  H   UNL     1     154.139 161.271 187.449  0.00  0.00    +0.037 HD
ATOM     33  H   UNL     1     153.737 158.869 189.316  0.00  0.00    +0.057 HD
ATOM     34  H   UNL     1     156.216 160.092 187.980  0.00  0.00    +0.059 HD
ATOM     35  H   UNL     1     155.966 158.404 190.501  0.00  0.00    +0.064 HD
ATOM     36  H   UNL     1     158.409 159.047 188.761  0.00  0.00    +0.032 HD
ATOM     37  H   UNL     1     158.391 158.115 190.234  0.00  0.00    +0.032 HD
ATOM     38  H   UNL     1     157.109 160.540 190.980  0.00  0.00    +0.060 HD
ATOM     39  H   UNL     1     159.280 161.120 192.146  0.00  0.00    +0.036 HD
ATOM     40  H   UNL     1     160.369 158.652 190.716  0.00  0.00    +0.074 HD
ATOM     41  H   UNL     1     160.836 160.983 189.669  0.00  0.00    +0.035 HD
ATOM     42  H   UNL     1     162.168 159.875 189.954  0.00  0.00    +0.035 HD
ATOM     43  H   UNL     1     162.841 161.965 193.257  0.00  0.00    +0.069 HD
ATOM     44  H   UNL     1     161.832 163.274 190.186  0.00  0.00    +0.034 HD
ATOM     45  H   UNL     1     163.102 163.415 191.388  0.00  0.00    +0.034 HD
ATOM     46  H   UNL     1     163.447 161.637 188.905  0.00  0.00    +0.060 HD
ATOM     47  H   UNL     1     164.458 164.479 189.453  0.00  0.00    +0.034 HD
ATOM     48  H   UNL     1     165.026 163.489 188.134  0.00  0.00    +0.034 HD
ATOM     49  H   UNL     1     161.779 162.647 187.876  0.00  0.00    +0.062 HD
ATOM     50  H   UNL     1     159.896 164.030 187.328  0.00  0.00    +0.062 HD
ATOM     51  H   UNL     1     161.643 164.514 184.825  0.00  0.00    +0.069 HD
ATOM     52  H   UNL     1     156.926 164.961 184.279  0.00  0.00    +0.074 HD
ATOM     53  H   UNL     1     157.762 162.645 184.243  0.00  0.00    +0.038 HD
ATOM     54  H   UNL     1     155.300 162.974 183.596  0.00  0.00    +0.057 HD
ATOM     55  H   UNL     1     155.457 160.655 185.577  0.00  0.00    +0.059 HD
ATOM     56  H   UNL     1     153.930 159.757 183.852  0.00  0.00    +0.064 HD
ATOM     57  H   UNL     1     152.394 161.634 185.738  0.00  0.00    +0.032 HD
ATOM     58  H   UNL     1     151.694 160.313 184.871  0.00  0.00    +0.032 HD
ATOM     59  H   UNL     1     153.788 158.984 186.175  0.00  0.00    +0.060 HD
ENDROOT
BRANCH   1  60
ATOM     60  C   UNL     1     152.342 161.059 188.584  0.00  0.00    -0.057 C 
ATOM     61  H   UNL     1     152.036 160.407 189.411  0.00  0.00    +0.024 HD
ATOM     62  H   UNL     1     152.645 162.016 189.018  0.00  0.00    +0.024 HD
ATOM     63  H   UNL     1     151.462 161.240 187.960  0.00  0.00    +0.024 HD
ENDBRANCH   1  60
BRANCH  26  64
ATOM     64  C   UNL     1     157.456 162.110 186.262  0.00  0.00    -0.056 C 
ATOM     65  H   UNL     1     158.525 161.893 186.252  0.00  0.00    +0.024 HD
ATOM     66  H   UNL     1     157.237 162.668 187.180  0.00  0.00    +0.024 HD
ATOM     67  H   UNL     1     156.961 161.135 186.323  0.00  0.00    +0.024 HD
ENDBRANCH  26  64
BRANCH  18  68
ATOM     68  C   UNL     1     163.417 165.701 187.353  0.00  0.00    -0.043 C 
ATOM     69  H   UNL     1     163.321 165.768 186.263  0.00  0.00    +0.027 HD
ATOM     70  H   UNL     1     164.451 165.950 187.619  0.00  0.00    +0.027 HD
ATOM     71  H   UNL     1     162.774 166.469 187.787  0.00  0.00    +0.027 HD
ENDBRANCH  18  68
BRANCH   7  72
ATOM     72  C   UNL     1     158.477 159.280 192.830  0.00  0.00    -0.057 C 
ATOM     73  H   UNL     1     157.615 158.723 192.448  0.00  0.00    +0.023 HD
ATOM     74  H   UNL     1     159.189 158.562 193.249  0.00  0.00    +0.023 HD
ATOM     75  H   UNL     1     158.110 159.907 193.649  0.00  0.00    +0.023 HD
ENDBRANCH   7  72
BRANCH  25  76
ATOM     76  C   UNL     1     156.188 165.062 186.331  0.00  0.00    +0.020 C 
ATOM     77  H   UNL     1     155.678 164.229 186.836  0.00  0.00    +0.036 HD
BRANCH  76  78
ATOM     78  C   UNL     1     157.052 165.682 187.448  0.00  0.00    -0.057 C 
ATOM     79  H   UNL     1     156.484 165.738 188.384  0.00  0.00    +0.023 HD
ATOM     80  H   UNL     1     157.365 166.702 187.217  0.00  0.00    +0.023 HD
ATOM     81  H   UNL     1     157.940 165.079 187.653  0.00  0.00    +0.023 HD
ENDBRANCH  76  78
BRANCH  76  82
ATOM     82  C   UNL     1     155.064 166.012 185.836  0.00  0.00    +0.067 C 
ATOM     83  H   UNL     1     155.068 166.880 186.503  0.00  0.00    +0.060 HD
BRANCH  82  84
ATOM     84  C   UNL     1     153.602 165.462 185.790  0.00  0.00    -0.017 C 
ATOM     85  H   UNL     1     152.920 166.275 186.055  0.00  0.00    +0.032 HD
BRANCH  84  86
ATOM     86  C   UNL     1     153.298 165.075 184.330  0.00  0.00    -0.060 C 
ATOM     87  H   UNL     1     152.252 165.266 184.077  0.00  0.00    +0.023 HD
ATOM     88  H   UNL     1     153.920 165.635 183.626  0.00  0.00    +0.023 HD
ATOM     89  H   UNL     1     153.457 164.007 184.163  0.00  0.00    +0.023 HD
ENDBRANCH  84  86
BRANCH  84  90
ATOM     90  C   UNL     1     153.347 164.268 186.747  0.00  0.00    -0.041 C 
ATOM     91  H   UNL     1     154.268 163.688 186.853  0.00  0.00    +0.027 HD
ATOM     92  H   UNL     1     152.610 163.600 186.285  0.00  0.00    +0.027 HD
BRANCH  90  93
ATOM     93  C   UNL     1     152.827 164.586 188.151  0.00  0.00    +0.007 C 
ATOM     94  H   UNL     1     152.180 163.749 188.456  0.00  0.00    +0.034 HD
ATOM     95  H   UNL     1     152.183 165.468 188.206  0.00  0.00    +0.034 HD
BRANCH  93  96
ATOM     96  C   UNL     1     153.903 164.676 189.219  0.00  0.00    +0.139 C 
ATOM     97  O   UNL     1     154.571 163.676 189.495  0.00  0.00    -0.297 OA
BRANCH  96  98
ATOM     98  C   UNL     1     154.093 166.008 189.941  0.00  0.00    +0.041 C 
ATOM     99  H   UNL     1     154.118 166.798 189.184  0.00  0.00    +0.040 HD
BRANCH  98 100
ATOM    100  C   UNL     1     155.450 165.992 190.643  0.00  0.00    -0.053 C 
ATOM    101  H   UNL     1     155.788 166.999 190.901  0.00  0.00    +0.024 HD
ATOM    102  H   UNL     1     156.207 165.526 190.003  0.00  0.00    +0.024 HD
ATOM    103  H   UNL     1     155.400 165.420 191.574  0.00  0.00    +0.024 HD
ENDBRANCH  98 100
BRANCH  98 104
ATOM    104  C   UNL     1     152.933 166.329 190.919  0.00  0.00    +0.071 C 
ATOM    105  H   UNL     1     152.276 165.446 190.932  0.00  0.00    +0.061 HD
BRANCH 104 106
ATOM    106  C   UNL     1     153.408 166.613 192.364  0.00  0.00    -0.006 C 
ATOM    107  H   UNL     1     154.454 166.307 192.490  0.00  0.00    +0.033 HD
ATOM    108  H   UNL     1     153.418 167.697 192.540  0.00  0.00    +0.033 HD
BRANCH 106 109
ATOM    109  C   UNL     1     152.567 165.932 193.415  0.00  0.00    -0.067 C 
ATOM    110  C   UNL     1     151.290 166.261 193.656  0.00  0.00    -0.005 C 
ATOM    111  H   UNL     1     153.063 165.152 193.979  0.00  0.00    +0.059 HD
ATOM    112  H   UNL     1     150.842 167.069 193.075  0.00  0.00    +0.078 HD
BRANCH 110 113
ATOM    113  N   UNL     1     150.427 165.678 194.572  0.00  0.00    -0.284 N 
ATOM    114  C   UNL     1     150.762 165.305 195.871  0.00  0.00    +0.206 C 
ATOM    115  O   UNL     1     150.023 164.750 196.678  0.00  0.00    -0.279 OA
ATOM    116  H   UNL     1     151.795 165.551 196.155  0.00  0.00    +0.126 HD
BRANCH 113 117
ATOM    117  C   UNL     1     149.064 165.412 194.128  0.00  0.00    +0.007 C 
ATOM    118  H   UNL     1     148.862 164.339 194.232  0.00  0.00    +0.043 HD
ATOM    119  H   UNL     1     148.360 165.980 194.748  0.00  0.00    +0.043 HD
ATOM    120  H   UNL     1     148.905 165.693 193.083  0.00  0.00    +0.043 HD
ENDBRANCH 113 117
ENDBRANCH 110 113
ENDBRANCH 106 109
ENDBRANCH 104 106
BRANCH 104 121
ATOM    121  O   UNL     1     152.179 167.440 190.418  0.00  0.00    -0.379 OA
BRANCH 121 122
ATOM    122  C   UNL     1     150.840 167.121 190.069  0.00  0.00    +0.037 C 
ATOM    123  H   UNL     1     150.128 167.767 190.588  0.00  0.00    +0.052 HD
ATOM    124  H   UNL     1     150.628 166.072 190.291  0.00  0.00    +0.052 HD
ATOM    125  H   UNL     1     150.722 167.275 188.993  0.00  0.00    +0.052 HD
ENDBRANCH 121 122
ENDBRANCH 104 121
ENDBRANCH  98 104
ENDBRANCH  96  98
ENDBRANCH  93  96
ENDBRANCH  90  93
ENDBRANCH  84  90
ENDBRANCH  82  84
BRANCH  82 126
ATOM    126  O   UNL     1     155.396 166.483 184.515  0.00  0.00    -0.379 OA
BRANCH 126 127
ATOM    127  C   UNL     1     155.926 167.800 184.502  0.00  0.00    +0.037 C 
ATOM    128  H   UNL     1     155.108 168.525 184.539  0.00  0.00    +0.052 HD
ATOM    129  H   UNL     1     156.614 167.959 185.339  0.00  0.00    +0.052 HD
ATOM    130  H   UNL     1     156.472 167.942 183.565  0.00  0.00    +0.052 HD
ENDBRANCH 126 127
ENDBRANCH  82 126
ENDBRANCH  76  82
ENDBRANCH  25  76
BRANCH  31 131
ATOM    131  O   UNL     1     151.845 158.888 186.872  0.00  0.00    -0.379 OA
BRANCH 131 132
ATOM    132  C   UNL     1     151.498 157.916 185.894  0.00  0.00    +0.037 C 
ATOM    133  H   UNL     1     152.216 157.934 185.068  0.00  0.00    +0.052 HD
ATOM    134  H   UNL     1     150.487 158.082 185.514  0.00  0.00    +0.052 HD
ATOM    135  H   UNL     1     151.534 156.931 186.364  0.00  0.00    +0.052 HD
ENDBRANCH 131 132
ENDBRANCH  31 131
BRANCH  29 136
ATOM    136  O   UNL     1     153.258 161.621 183.224  0.00  0.00    -0.376 OA
BRANCH 136 137
ATOM    137  C   UNL     1     151.844 161.777 183.233  0.00  0.00    +0.037 C 
ATOM    138  H   UNL     1     151.459 161.908 182.217  0.00  0.00    +0.052 HD
ATOM    139  H   UNL     1     151.403 160.875 183.664  0.00  0.00    +0.052 HD
ATOM    140  H   UNL     1     151.557 162.629 183.860  0.00  0.00    +0.052 HD
ENDBRANCH 136 137
ENDBRANCH  29 136
BRANCH  16 141
ATOM    141  O   UNL     1     164.951 162.013 190.288  0.00  0.00    -0.379 OA
BRANCH 141 142
ATOM    142  C   UNL     1     165.891 163.060 190.490  0.00  0.00    +0.037 C 
ATOM    143  H   UNL     1     166.597 163.052 189.655  0.00  0.00    +0.052 HD
ATOM    144  H   UNL     1     165.376 164.025 190.503  0.00  0.00    +0.052 HD
ATOM    145  H   UNL     1     166.450 162.922 191.421  0.00  0.00    +0.052 HD
ENDBRANCH 141 142
ENDBRANCH  16 141
BRANCH   6 146
ATOM    146  O   UNL     1     158.479 161.292 189.631  0.00  0.00    -0.379 OA
BRANCH 146 147
ATOM    147  C   UNL     1     158.454 162.595 190.203  0.00  0.00    +0.037 C 
ATOM    148  H   UNL     1     158.534 162.490 191.286  0.00  0.00    +0.052 HD
ATOM    149  H   UNL     1     159.307 163.182 189.847  0.00  0.00    +0.052 HD
ATOM    150  H   UNL     1     157.518 163.111 189.975  0.00  0.00    +0.052 HD
ENDBRANCH 146 147
ENDBRANCH   6 146
BRANCH   4 151
ATOM    151  O   UNL     1     156.503 157.275 188.814  0.00  0.00    -0.376 OA
BRANCH 151 152
ATOM    152  C   UNL     1     156.150 156.168 189.633  0.00  0.00    +0.037 C 
ATOM    153  H   UNL     1     155.069 156.013 189.553  0.00  0.00    +0.052 HD
ATOM    154  H   UNL     1     156.396 156.362 190.682  0.00  0.00    +0.052 HD
ATOM    155  H   UNL     1     156.656 155.261 189.288  0.00  0.00    +0.052 HD
ENDBRANCH 151 152
ENDBRANCH   4 151
TORSDOF 33
ENDMDL
MODEL 8
REMARK VINA RESULT:      -5.1      4.152      9.692
REMARK  Name = Reidispongiolide A_conf1
REMARK  33 active torsions:
REMARK  status: ('A' for Active; 'I' for Inactive)
REMARK    1  A    between atoms: C_1  and  C_2
REMARK    2  A    between atoms: C_5  and  O_67
REMARK    3  A    between atoms: C_7  and  O_65
REMARK    4  A    between atoms: C_8  and  C_64
REMARK    5  A    between atoms: C_17  and  O_62
REMARK    6  A    between atoms: C_19  and  C_61
REMARK    7  A    between atoms: C_26  and  C_38
REMARK    8  A    between atoms: C_27  and  C_37
REMARK    9  A    between atoms: C_30  and  O_35
REMARK   10  A    between atoms: C_32  and  O_33
REMARK   11  A    between atoms: O_33  and  C_34
REMARK   12  A    between atoms: O_35  and  C_36
REMARK   13  A    between atoms: C_38  and  C_39
REMARK   14  A    between atoms: C_38  and  C_40
REMARK   15  A    between atoms: C_40  and  C_41
REMARK   16  A    between atoms: C_40  and  O_59
REMARK   17  A    between atoms: C_41  and  C_42
REMARK   18  A    between atoms: C_41  and  C_43
REMARK   19  A    between atoms: C_43  and  C_44
REMARK   20  A    between atoms: C_44  and  C_45
REMARK   21  A    between atoms: C_45  and  C_47
REMARK   22  A    between atoms: C_47  and  C_48
REMARK   23  A    between atoms: C_47  and  C_49
REMARK   24  A    between atoms: C_49  and  C_50
REMARK   25  A    between atoms: C_49  and  O_57
REMARK   26  A    between atoms: C_50  and  C_51
REMARK   27  A    between atoms: C_52  and  N_53
REMARK   28  A    between atoms: N_53  and  C_54
REMARK   29  A    between atoms: O_57  and  C_58
REMARK   30  A    between atoms: O_59  and  C_60
REMARK   31  A    between atoms: O_62  and  C_63
REMARK   32  A    between atoms: O_65  and  C_66
REMARK   33  A    between atoms: O_67  and  C_68
REMARK                            x       y       z     vdW  Elec       q    Type
REMARK                         _______ _______ _______ _____ _____    ______ ____
ROOT
ATOM      1  C   UNL     1     152.722 165.312 190.197  0.00  0.00    +0.001 C 
ATOM      2  C   UNL     1     151.851 165.951 191.264  0.00  0.00    -0.080 C 
ATOM      3  C   UNL     1     150.675 166.551 191.020  0.00  0.00    -0.059 C 
ATOM      4  C   UNL     1     149.841 167.229 192.073  0.00  0.00    +0.079 C 
ATOM      5  C   UNL     1     148.357 167.380 191.694  0.00  0.00    +0.004 C 
ATOM      6  C   UNL     1     147.585 166.050 191.566  0.00  0.00    +0.067 C 
ATOM      7  C   UNL     1     146.235 166.041 192.355  0.00  0.00    +0.020 C 
ATOM      8  C   UNL     1     145.280 167.241 192.056  0.00  0.00    +0.112 C 
ATOM      9  C   UNL     1     144.607 167.262 190.676  0.00  0.00    +0.006 C 
ATOM     10  C   UNL     1     143.392 166.373 190.622  0.00  0.00    -0.057 C 
ATOM     11  C   UNL     1     142.773 166.020 191.758  0.00  0.00    +0.022 C 
ATOM     12  C   UNL     1     143.175 166.549 193.071  0.00  0.00    +0.332 C 
ATOM     13  O   UNL     1     142.512 166.315 194.072  0.00  0.00    -0.246 OA
ATOM     14  O   UNL     1     144.275 167.339 193.097  0.00  0.00    -0.458 OA
ATOM     15  C   UNL     1     142.890 165.921 189.265  0.00  0.00    -0.004 C 
ATOM     16  C   UNL     1     142.402 167.087 188.368  0.00  0.00    +0.066 C 
ATOM     17  C   UNL     1     142.121 166.618 186.915  0.00  0.00    -0.005 C 
ATOM     18  C   UNL     1     143.287 166.143 186.051  0.00  0.00    -0.070 C 
ATOM     19  C   UNL     1     144.570 166.356 186.395  0.00  0.00    -0.062 C 
ATOM     20  C   UNL     1     145.771 165.859 185.783  0.00  0.00    -0.055 C 
ATOM     21  C   UNL     1     146.239 166.139 184.556  0.00  0.00    +0.023 C 
ATOM     22  C   UNL     1     147.619 165.763 184.158  0.00  0.00    +0.332 C 
ATOM     23  O   UNL     1     148.190 166.241 183.192  0.00  0.00    -0.246 OA
ATOM     24  O   UNL     1     148.156 164.924 185.070  0.00  0.00    -0.457 OA
ATOM     25  C   UNL     1     149.604 164.792 185.157  0.00  0.00    +0.114 C 
ATOM     26  C   UNL     1     150.126 166.084 185.887  0.00  0.00    +0.012 C 
ATOM     27  C   UNL     1     151.635 166.212 185.973  0.00  0.00    -0.079 C 
ATOM     28  C   UNL     1     152.334 166.634 187.044  0.00  0.00    -0.059 C 
ATOM     29  C   UNL     1     153.830 166.773 187.189  0.00  0.00    +0.079 C 
ATOM     30  C   UNL     1     154.403 165.925 188.347  0.00  0.00    +0.004 C 
ATOM     31  C   UNL     1     153.836 166.305 189.736  0.00  0.00    +0.067 C 
ATOM     32  H   UNL     1     152.083 165.073 189.341  0.00  0.00    +0.037 HD
ATOM     33  H   UNL     1     152.253 165.950 192.277  0.00  0.00    +0.057 HD
ATOM     34  H   UNL     1     150.295 166.604 190.004  0.00  0.00    +0.059 HD
ATOM     35  H   UNL     1     149.907 166.679 193.023  0.00  0.00    +0.064 HD
ATOM     36  H   UNL     1     148.273 167.962 190.767  0.00  0.00    +0.032 HD
ATOM     37  H   UNL     1     147.921 168.015 192.473  0.00  0.00    +0.032 HD
ATOM     38  H   UNL     1     148.214 165.235 191.953  0.00  0.00    +0.060 HD
ATOM     39  H   UNL     1     145.688 165.125 192.101  0.00  0.00    +0.036 HD
ATOM     40  H   UNL     1     145.847 168.173 192.142  0.00  0.00    +0.074 HD
ATOM     41  H   UNL     1     145.313 167.002 189.886  0.00  0.00    +0.035 HD
ATOM     42  H   UNL     1     144.268 168.287 190.467  0.00  0.00    +0.035 HD
ATOM     43  H   UNL     1     141.888 165.394 191.767  0.00  0.00    +0.069 HD
ATOM     44  H   UNL     1     143.699 165.359 188.787  0.00  0.00    +0.034 HD
ATOM     45  H   UNL     1     142.062 165.212 189.400  0.00  0.00    +0.034 HD
ATOM     46  H   UNL     1     143.141 167.897 188.364  0.00  0.00    +0.060 HD
ATOM     47  H   UNL     1     141.376 165.810 186.975  0.00  0.00    +0.034 HD
ATOM     48  H   UNL     1     141.618 167.429 186.370  0.00  0.00    +0.034 HD
ATOM     49  H   UNL     1     144.801 166.894 187.316  0.00  0.00    +0.062 HD
ATOM     50  H   UNL     1     146.378 165.287 186.483  0.00  0.00    +0.062 HD
ATOM     51  H   UNL     1     145.700 166.764 183.854  0.00  0.00    +0.069 HD
ATOM     52  H   UNL     1     150.012 164.745 184.142  0.00  0.00    +0.074 HD
ATOM     53  H   UNL     1     149.811 166.931 185.258  0.00  0.00    +0.038 HD
ATOM     54  H   UNL     1     152.183 165.968 185.065  0.00  0.00    +0.057 HD
ATOM     55  H   UNL     1     151.790 166.954 187.929  0.00  0.00    +0.059 HD
ATOM     56  H   UNL     1     154.035 167.836 187.383  0.00  0.00    +0.064 HD
ATOM     57  H   UNL     1     154.229 164.863 188.134  0.00  0.00    +0.032 HD
ATOM     58  H   UNL     1     155.496 166.020 188.341  0.00  0.00    +0.032 HD
ATOM     59  H   UNL     1     153.421 167.323 189.701  0.00  0.00    +0.060 HD
ENDROOT
BRANCH   1  60
ATOM     60  C   UNL     1     153.283 163.990 190.737  0.00  0.00    -0.057 C 
ATOM     61  H   UNL     1     152.520 163.406 191.266  0.00  0.00    +0.024 HD
ATOM     62  H   UNL     1     153.660 163.368 189.920  0.00  0.00    +0.024 HD
ATOM     63  H   UNL     1     154.110 164.162 191.433  0.00  0.00    +0.024 HD
ENDBRANCH   1  60
BRANCH  26  64
ATOM     64  C   UNL     1     149.409 166.302 187.232  0.00  0.00    -0.056 C 
ATOM     65  H   UNL     1     148.350 166.533 187.103  0.00  0.00    +0.024 HD
ATOM     66  H   UNL     1     149.481 165.418 187.876  0.00  0.00    +0.024 HD
ATOM     67  H   UNL     1     149.829 167.159 187.771  0.00  0.00    +0.024 HD
ENDBRANCH  26  64
BRANCH  18  68
ATOM     68  C   UNL     1     142.853 165.386 184.823  0.00  0.00    -0.043 C 
ATOM     69  H   UNL     1     142.596 166.090 184.024  0.00  0.00    +0.027 HD
ATOM     70  H   UNL     1     141.964 164.783 185.044  0.00  0.00    +0.027 HD
ATOM     71  H   UNL     1     143.617 164.711 184.433  0.00  0.00    +0.027 HD
ENDBRANCH  18  68
BRANCH   7  72
ATOM     72  C   UNL     1     146.553 165.938 193.858  0.00  0.00    -0.057 C 
ATOM     73  H   UNL     1     147.412 166.567 194.114  0.00  0.00    +0.023 HD
ATOM     74  H   UNL     1     145.705 166.252 194.475  0.00  0.00    +0.023 HD
ATOM     75  H   UNL     1     146.816 164.914 194.144  0.00  0.00    +0.023 HD
ENDBRANCH   7  72
BRANCH  25  76
ATOM     76  C   UNL     1     149.836 163.424 185.870  0.00  0.00    +0.020 C 
ATOM     77  H   UNL     1     150.223 163.645 186.875  0.00  0.00    +0.036 HD
BRANCH  76  78
ATOM     78  C   UNL     1     148.486 162.732 186.152  0.00  0.00    -0.057 C 
ATOM     79  H   UNL     1     148.565 162.083 187.031  0.00  0.00    +0.023 HD
ATOM     80  H   UNL     1     148.162 162.094 185.327  0.00  0.00    +0.023 HD
ATOM     81  H   UNL     1     147.698 163.459 186.365  0.00  0.00    +0.023 HD
ENDBRANCH  76  78
BRANCH  76  82
ATOM     82  C   UNL     1     150.876 162.476 185.212  0.00  0.00    +0.067 C 
ATOM     83  H   UNL     1     150.402 161.492 185.135  0.00  0.00    +0.060 HD
BRANCH  82  84
ATOM     84  C   UNL     1     152.250 162.281 185.929  0.00  0.00    -0.017 C 
ATOM     85  H   UNL     1     152.545 161.232 185.826  0.00  0.00    +0.032 HD
BRANCH  84  86
ATOM     86  C   UNL     1     153.294 163.120 185.167  0.00  0.00    -0.060 C 
ATOM     87  H   UNL     1     153.748 162.547 184.354  0.00  0.00    +0.023 HD
ATOM     88  H   UNL     1     152.850 164.021 184.734  0.00  0.00    +0.023 HD
ATOM     89  H   UNL     1     154.116 163.417 185.822  0.00  0.00    +0.023 HD
ENDBRANCH  84  86
BRANCH  84  90
ATOM     90  C   UNL     1     152.234 162.646 187.436  0.00  0.00    -0.041 C 
ATOM     91  H   UNL     1     151.906 163.684 187.551  0.00  0.00    +0.027 HD
ATOM     92  H   UNL     1     153.261 162.601 187.819  0.00  0.00    +0.027 HD
BRANCH  90  93
ATOM     93  C   UNL     1     151.383 161.778 188.366  0.00  0.00    +0.007 C 
ATOM     94  H   UNL     1     150.351 161.806 187.984  0.00  0.00    +0.034 HD
ATOM     95  H   UNL     1     151.309 162.153 189.391  0.00  0.00    +0.034 HD
BRANCH  93  96
ATOM     96  C   UNL     1     151.767 160.309 188.388  0.00  0.00    +0.139 C 
ATOM     97  O   UNL     1     152.944 159.992 188.581  0.00  0.00    -0.297 OA
BRANCH  96  98
ATOM     98  C   UNL     1     150.675 159.274 188.134  0.00  0.00    +0.041 C 
ATOM     99  H   UNL     1     151.001 158.327 188.576  0.00  0.00    +0.040 HD
BRANCH  98 100
ATOM    100  C   UNL     1     150.545 159.063 186.626  0.00  0.00    -0.053 C 
ATOM    101  H   UNL     1     149.512 158.862 186.330  0.00  0.00    +0.024 HD
ATOM    102  H   UNL     1     151.167 158.222 186.302  0.00  0.00    +0.024 HD
ATOM    103  H   UNL     1     150.870 159.953 186.079  0.00  0.00    +0.024 HD
ENDBRANCH  98 100
BRANCH  98 104
ATOM    104  C   UNL     1     149.323 159.658 188.789  0.00  0.00    +0.071 C 
ATOM    105  H   UNL     1     149.353 160.744 188.964  0.00  0.00    +0.061 HD
BRANCH 104 106
ATOM    106  C   UNL     1     148.096 159.334 187.903  0.00  0.00    -0.006 C 
ATOM    107  H   UNL     1     148.349 159.450 186.841  0.00  0.00    +0.033 HD
ATOM    108  H   UNL     1     147.840 158.272 188.007  0.00  0.00    +0.033 HD
BRANCH 106 109
ATOM    109  C   UNL     1     146.890 160.184 188.216  0.00  0.00    -0.067 C 
ATOM    110  C   UNL     1     145.764 159.689 188.749  0.00  0.00    -0.005 C 
ATOM    111  H   UNL     1     146.984 161.237 187.977  0.00  0.00    +0.059 HD
ATOM    112  H   UNL     1     145.711 158.617 188.951  0.00  0.00    +0.078 HD
BRANCH 110 113
ATOM    113  N   UNL     1     144.619 160.388 189.102  0.00  0.00    -0.284 N 
ATOM    114  C   UNL     1     144.439 161.761 188.966  0.00  0.00    +0.206 C 
ATOM    115  O   UNL     1     143.450 162.399 189.312  0.00  0.00    -0.279 OA
ATOM    116  H   UNL     1     145.288 162.280 188.500  0.00  0.00    +0.126 HD
BRANCH 113 117
ATOM    117  C   UNL     1     143.524 159.621 189.685  0.00  0.00    +0.007 C 
ATOM    118  H   UNL     1     142.584 160.157 189.504  0.00  0.00    +0.043 HD
ATOM    119  H   UNL     1     143.479 158.632 189.214  0.00  0.00    +0.043 HD
ATOM    120  H   UNL     1     143.640 159.484 190.764  0.00  0.00    +0.043 HD
ENDBRANCH 113 117
ENDBRANCH 110 113
ENDBRANCH 106 109
ENDBRANCH 104 106
BRANCH 104 121
ATOM    121  O   UNL     1     149.203 159.004 190.058  0.00  0.00    -0.379 OA
BRANCH 121 122
ATOM    122  C   UNL     1     148.852 157.630 189.970  0.00  0.00    +0.037 C 
ATOM    123  H   UNL     1     149.599 156.996 190.456  0.00  0.00    +0.052 HD
ATOM    124  H   UNL     1     148.730 157.334 188.925  0.00  0.00    +0.052 HD
ATOM    125  H   UNL     1     147.896 157.489 190.481  0.00  0.00    +0.052 HD
ENDBRANCH 121 122
ENDBRANCH 104 121
ENDBRANCH  98 104
ENDBRANCH  96  98
ENDBRANCH  93  96
ENDBRANCH  90  93
ENDBRANCH  84  90
ENDBRANCH  82  84
BRANCH  82 126
ATOM    126  O   UNL     1     151.142 162.932 183.871  0.00  0.00    -0.379 OA
BRANCH 126 127
ATOM    127  C   UNL     1     150.608 162.080 182.869  0.00  0.00    +0.037 C 
ATOM    128  H   UNL     1     150.101 162.680 182.108  0.00  0.00    +0.052 HD
ATOM    129  H   UNL     1     151.391 161.466 182.412  0.00  0.00    +0.052 HD
ATOM    130  H   UNL     1     149.871 161.419 183.337  0.00  0.00    +0.052 HD
ENDBRANCH 126 127
ENDBRANCH  82 126
ENDBRANCH  76  82
ENDBRANCH  25  76
BRANCH  31 131
ATOM    131  O   UNL     1     154.896 166.288 190.712  0.00  0.00    -0.379 OA
BRANCH 131 132
ATOM    132  C   UNL     1     156.193 166.228 190.129  0.00  0.00    +0.037 C 
ATOM    133  H   UNL     1     156.200 165.519 189.294  0.00  0.00    +0.052 HD
ATOM    134  H   UNL     1     156.945 165.943 190.868  0.00  0.00    +0.052 HD
ATOM    135  H   UNL     1     156.440 167.220 189.746  0.00  0.00    +0.052 HD
ENDBRANCH 131 132
ENDBRANCH  31 131
BRANCH  29 136
ATOM    136  O   UNL     1     154.455 166.378 185.962  0.00  0.00    -0.376 OA
BRANCH 136 137
ATOM    137  C   UNL     1     155.795 165.936 186.150  0.00  0.00    +0.037 C 
ATOM    138  H   UNL     1     156.024 165.095 185.489  0.00  0.00    +0.052 HD
ATOM    139  H   UNL     1     156.465 166.765 185.911  0.00  0.00    +0.052 HD
ATOM    140  H   UNL     1     155.961 165.653 187.196  0.00  0.00    +0.052 HD
ENDBRANCH 136 137
ENDBRANCH  29 136
BRANCH  16 141
ATOM    141  O   UNL     1     141.171 167.575 188.940  0.00  0.00    -0.379 OA
BRANCH 141 142
ATOM    142  C   UNL     1     140.594 168.638 188.191  0.00  0.00    +0.037 C 
ATOM    143  H   UNL     1     140.827 169.578 188.697  0.00  0.00    +0.052 HD
ATOM    144  H   UNL     1     141.029 168.663 187.187  0.00  0.00    +0.052 HD
ATOM    145  H   UNL     1     139.506 168.536 188.125  0.00  0.00    +0.052 HD
ENDBRANCH 141 142
ENDBRANCH  16 141
BRANCH   6 146
ATOM    146  O   UNL     1     147.354 165.818 190.167  0.00  0.00    -0.379 OA
BRANCH 146 147
ATOM    147  C   UNL     1     146.635 164.619 189.905  0.00  0.00    +0.037 C 
ATOM    148  H   UNL     1     147.298 163.775 190.107  0.00  0.00    +0.052 HD
ATOM    149  H   UNL     1     145.767 164.543 190.569  0.00  0.00    +0.052 HD
ATOM    150  H   UNL     1     146.318 164.565 188.861  0.00  0.00    +0.052 HD
ENDBRANCH 146 147
ENDBRANCH   6 146
BRANCH   4 151
ATOM    151  O   UNL     1     150.353 168.563 192.212  0.00  0.00    -0.376 OA
BRANCH 151 152
ATOM    152  C   UNL     1     149.458 169.549 191.715  0.00  0.00    +0.037 C 
ATOM    153  H   UNL     1     150.050 170.385 191.327  0.00  0.00    +0.052 HD
ATOM    154  H   UNL     1     148.807 169.925 192.511  0.00  0.00    +0.052 HD
ATOM    155  H   UNL     1     148.858 169.142 190.896  0.00  0.00    +0.052 HD
ENDBRANCH 151 152
ENDBRANCH   4 151
TORSDOF 33
ENDMDL
MODEL 9
REMARK VINA RESULT:      -5.0      4.671     10.829
REMARK  Name = Reidispongiolide A_conf1
REMARK  33 active torsions:
REMARK  status: ('A' for Active; 'I' for Inactive)
REMARK    1  A    between atoms: C_1  and  C_2
REMARK    2  A    between atoms: C_5  and  O_67
REMARK    3  A    between atoms: C_7  and  O_65
REMARK    4  A    between atoms: C_8  and  C_64
REMARK    5  A    between atoms: C_17  and  O_62
REMARK    6  A    between atoms: C_19  and  C_61
REMARK    7  A    between atoms: C_26  and  C_38
REMARK    8  A    between atoms: C_27  and  C_37
REMARK    9  A    between atoms: C_30  and  O_35
REMARK   10  A    between atoms: C_32  and  O_33
REMARK   11  A    between atoms: O_33  and  C_34
REMARK   12  A    between atoms: O_35  and  C_36
REMARK   13  A    between atoms: C_38  and  C_39
REMARK   14  A    between atoms: C_38  and  C_40
REMARK   15  A    between atoms: C_40  and  C_41
REMARK   16  A    between atoms: C_40  and  O_59
REMARK   17  A    between atoms: C_41  and  C_42
REMARK   18  A    between atoms: C_41  and  C_43
REMARK   19  A    between atoms: C_43  and  C_44
REMARK   20  A    between atoms: C_44  and  C_45
REMARK   21  A    between atoms: C_45  and  C_47
REMARK   22  A    between atoms: C_47  and  C_48
REMARK   23  A    between atoms: C_47  and  C_49
REMARK   24  A    between atoms: C_49  and  C_50
REMARK   25  A    between atoms: C_49  and  O_57
REMARK   26  A    between atoms: C_50  and  C_51
REMARK   27  A    between atoms: C_52  and  N_53
REMARK   28  A    between atoms: N_53  and  C_54
REMARK   29  A    between atoms: O_57  and  C_58
REMARK   30  A    between atoms: O_59  and  C_60
REMARK   31  A    between atoms: O_62  and  C_63
REMARK   32  A    between atoms: O_65  and  C_66
REMARK   33  A    between atoms: O_67  and  C_68
REMARK                            x       y       z     vdW  Elec       q    Type
REMARK                         _______ _______ _______ _____ _____    ______ ____
ROOT
ATOM      1  C   UNL     1     149.273 163.059 184.183  0.00  0.00    +0.001 C 
ATOM      2  C   UNL     1     150.546 163.282 184.978  0.00  0.00    -0.080 C 
ATOM      3  C   UNL     1     150.826 164.406 185.658  0.00  0.00    -0.059 C 
ATOM      4  C   UNL     1     152.113 164.642 186.401  0.00  0.00    +0.079 C 
ATOM      5  C   UNL     1     152.015 165.723 187.493  0.00  0.00    +0.004 C 
ATOM      6  C   UNL     1     151.093 165.362 188.676  0.00  0.00    +0.067 C 
ATOM      7  C   UNL     1     151.761 165.590 190.072  0.00  0.00    +0.020 C 
ATOM      8  C   UNL     1     152.380 167.007 190.292  0.00  0.00    +0.112 C 
ATOM      9  C   UNL     1     151.395 168.175 190.445  0.00  0.00    +0.006 C 
ATOM     10  C   UNL     1     150.844 168.275 191.843  0.00  0.00    -0.057 C 
ATOM     11  C   UNL     1     151.505 167.707 192.863  0.00  0.00    +0.022 C 
ATOM     12  C   UNL     1     152.815 167.062 192.690  0.00  0.00    +0.332 C 
ATOM     13  O   UNL     1     153.455 166.669 193.657  0.00  0.00    -0.246 OA
ATOM     14  O   UNL     1     153.287 166.975 191.423  0.00  0.00    -0.458 OA
ATOM     15  C   UNL     1     149.557 169.046 192.057  0.00  0.00    -0.004 C 
ATOM     16  C   UNL     1     149.675 170.553 191.712  0.00  0.00    +0.066 C 
ATOM     17  C   UNL     1     148.291 171.256 191.714  0.00  0.00    -0.005 C 
ATOM     18  C   UNL     1     147.260 170.864 190.658  0.00  0.00    -0.070 C 
ATOM     19  C   UNL     1     147.582 170.137 189.574  0.00  0.00    -0.062 C 
ATOM     20  C   UNL     1     146.724 169.566 188.573  0.00  0.00    -0.055 C 
ATOM     21  C   UNL     1     145.956 170.220 187.686  0.00  0.00    +0.023 C 
ATOM     22  C   UNL     1     145.328 169.508 186.545  0.00  0.00    +0.332 C 
ATOM     23  O   UNL     1     144.881 170.079 185.565  0.00  0.00    -0.246 OA
ATOM     24  O   UNL     1     145.432 168.171 186.714  0.00  0.00    -0.457 OA
ATOM     25  C   UNL     1     145.325 167.293 185.557  0.00  0.00    +0.114 C 
ATOM     26  C   UNL     1     146.689 167.405 184.784  0.00  0.00    +0.012 C 
ATOM     27  C   UNL     1     146.749 166.659 183.465  0.00  0.00    -0.079 C 
ATOM     28  C   UNL     1     147.790 165.934 183.011  0.00  0.00    -0.059 C 
ATOM     29  C   UNL     1     147.900 165.167 181.715  0.00  0.00    +0.079 C 
ATOM     30  C   UNL     1     148.182 163.662 181.931  0.00  0.00    +0.004 C 
ATOM     31  C   UNL     1     149.510 163.378 182.672  0.00  0.00    +0.067 C 
ATOM     32  H   UNL     1     148.509 163.740 184.574  0.00  0.00    +0.037 HD
ATOM     33  H   UNL     1     151.284 162.481 184.939  0.00  0.00    +0.057 HD
ATOM     34  H   UNL     1     150.119 165.230 185.656  0.00  0.00    +0.059 HD
ATOM     35  H   UNL     1     152.463 163.707 186.862  0.00  0.00    +0.064 HD
ATOM     36  H   UNL     1     151.704 166.673 187.041  0.00  0.00    +0.032 HD
ATOM     37  H   UNL     1     153.044 165.888 187.832  0.00  0.00    +0.032 HD
ATOM     38  H   UNL     1     150.812 164.303 188.599  0.00  0.00    +0.060 HD
ATOM     39  H   UNL     1     151.001 165.445 190.850  0.00  0.00    +0.036 HD
ATOM     40  H   UNL     1     153.022 167.248 189.439  0.00  0.00    +0.074 HD
ATOM     41  H   UNL     1     150.588 168.112 189.714  0.00  0.00    +0.035 HD
ATOM     42  H   UNL     1     151.930 169.114 190.239  0.00  0.00    +0.035 HD
ATOM     43  H   UNL     1     151.153 167.766 193.887  0.00  0.00    +0.069 HD
ATOM     44  H   UNL     1     148.780 168.558 191.458  0.00  0.00    +0.034 HD
ATOM     45  H   UNL     1     149.242 168.949 193.105  0.00  0.00    +0.034 HD
ATOM     46  H   UNL     1     150.159 170.681 190.737  0.00  0.00    +0.060 HD
ATOM     47  H   UNL     1     147.850 171.099 192.711  0.00  0.00    +0.034 HD
ATOM     48  H   UNL     1     148.443 172.341 191.639  0.00  0.00    +0.034 HD
ATOM     49  H   UNL     1     148.614 169.814 189.426  0.00  0.00    +0.062 HD
ATOM     50  H   UNL     1     146.839 168.485 188.506  0.00  0.00    +0.062 HD
ATOM     51  H   UNL     1     145.870 171.299 187.673  0.00  0.00    +0.069 HD
ATOM     52  H   UNL     1     144.505 167.649 184.923  0.00  0.00    +0.074 HD
ATOM     53  H   UNL     1     146.791 168.466 184.507  0.00  0.00    +0.038 HD
ATOM     54  H   UNL     1     145.872 166.756 182.827  0.00  0.00    +0.057 HD
ATOM     55  H   UNL     1     148.698 165.897 183.606  0.00  0.00    +0.059 HD
ATOM     56  H   UNL     1     148.731 165.613 181.150  0.00  0.00    +0.064 HD
ATOM     57  H   UNL     1     147.335 163.212 182.464  0.00  0.00    +0.032 HD
ATOM     58  H   UNL     1     148.175 163.163 180.955  0.00  0.00    +0.032 HD
ATOM     59  H   UNL     1     150.176 164.249 182.588  0.00  0.00    +0.060 HD
ENDROOT
BRANCH   1  60
ATOM     60  C   UNL     1     148.778 161.627 184.424  0.00  0.00    -0.057 C 
ATOM     61  H   UNL     1     147.691 161.545 184.318  0.00  0.00    +0.024 HD
ATOM     62  H   UNL     1     149.229 160.938 183.703  0.00  0.00    +0.024 HD
ATOM     63  H   UNL     1     149.042 161.278 185.427  0.00  0.00    +0.024 HD
ENDBRANCH   1  60
BRANCH  26  64
ATOM     64  C   UNL     1     147.888 167.122 185.709  0.00  0.00    -0.056 C 
ATOM     65  H   UNL     1     148.189 168.005 186.277  0.00  0.00    +0.024 HD
ATOM     66  H   UNL     1     147.664 166.325 186.427  0.00  0.00    +0.024 HD
ATOM     67  H   UNL     1     148.773 166.831 185.133  0.00  0.00    +0.024 HD
ENDBRANCH  26  64
BRANCH  18  68
ATOM     68  C   UNL     1     145.865 171.334 190.981  0.00  0.00    -0.043 C 
ATOM     69  H   UNL     1     145.871 172.412 191.178  0.00  0.00    +0.027 HD
ATOM     70  H   UNL     1     145.492 170.827 191.878  0.00  0.00    +0.027 HD
ATOM     71  H   UNL     1     145.146 171.151 190.179  0.00  0.00    +0.027 HD
ENDBRANCH  18  68
BRANCH   7  72
ATOM     72  C   UNL     1     152.806 164.480 190.295  0.00  0.00    -0.057 C 
ATOM     73  H   UNL     1     153.263 164.574 191.285  0.00  0.00    +0.023 HD
ATOM     74  H   UNL     1     152.361 163.483 190.218  0.00  0.00    +0.023 HD
ATOM     75  H   UNL     1     153.620 164.542 189.565  0.00  0.00    +0.023 HD
ENDBRANCH   7  72
BRANCH  25  76
ATOM     76  C   UNL     1     144.950 165.899 186.150  0.00  0.00    +0.020 C 
ATOM     77  H   UNL     1     145.100 165.158 185.352  0.00  0.00    +0.036 HD
BRANCH  76  78
ATOM     78  C   UNL     1     145.976 165.481 187.223  0.00  0.00    -0.057 C 
ATOM     79  H   UNL     1     146.995 165.698 186.883  0.00  0.00    +0.023 HD
ATOM     80  H   UNL     1     145.945 164.410 187.438  0.00  0.00    +0.023 HD
ATOM     81  H   UNL     1     145.831 166.031 188.156  0.00  0.00    +0.023 HD
ENDBRANCH  76  78
BRANCH  76  82
ATOM     82  C   UNL     1     143.479 165.728 186.620  0.00  0.00    +0.067 C 
ATOM     83  H   UNL     1     142.875 165.587 185.718  0.00  0.00    +0.060 HD
BRANCH  82  84
ATOM     84  C   UNL     1     142.831 166.885 187.444  0.00  0.00    -0.017 C 
ATOM     85  H   UNL     1     143.251 167.834 187.095  0.00  0.00    +0.032 HD
BRANCH  84  86
ATOM     86  C   UNL     1     141.327 166.908 187.110  0.00  0.00    -0.060 C 
ATOM     87  H   UNL     1     141.099 167.661 186.351  0.00  0.00    +0.023 HD
ATOM     88  H   UNL     1     140.983 165.940 186.734  0.00  0.00    +0.023 HD
ATOM     89  H   UNL     1     140.731 167.173 187.986  0.00  0.00    +0.023 HD
ENDBRANCH  84  86
BRANCH  84  90
ATOM     90  C   UNL     1     143.059 166.776 188.975  0.00  0.00    -0.041 C 
ATOM     91  H   UNL     1     143.818 166.012 189.171  0.00  0.00    +0.027 HD
ATOM     92  H   UNL     1     142.133 166.421 189.443  0.00  0.00    +0.027 HD
BRANCH  90  93
ATOM     93  C   UNL     1     143.467 168.047 189.723  0.00  0.00    +0.007 C 
ATOM     94  H   UNL     1     142.868 168.873 189.311  0.00  0.00    +0.034 HD
ATOM     95  H   UNL     1     144.506 168.352 189.562  0.00  0.00    +0.034 HD
BRANCH  93  96
ATOM     96  C   UNL     1     143.167 168.030 191.211  0.00  0.00    +0.139 C 
ATOM     97  O   UNL     1     143.034 169.097 191.816  0.00  0.00    -0.297 OA
BRANCH  96  98
ATOM     98  C   UNL     1     143.074 166.677 191.913  0.00  0.00    +0.041 C 
ATOM     99  H   UNL     1     142.750 165.938 191.173  0.00  0.00    +0.040 HD
BRANCH  98 100
ATOM    100  C   UNL     1     141.995 166.761 192.992  0.00  0.00    -0.053 C 
ATOM    101  H   UNL     1     141.920 167.766 193.416  0.00  0.00    +0.024 HD
ATOM    102  H   UNL     1     142.210 166.058 193.803  0.00  0.00    +0.024 HD
ATOM    103  H   UNL     1     141.013 166.510 192.581  0.00  0.00    +0.024 HD
ENDBRANCH  98 100
BRANCH  98 104
ATOM    104  C   UNL     1     144.437 166.206 192.484  0.00  0.00    +0.071 C 
ATOM    105  H   UNL     1     145.136 167.046 192.369  0.00  0.00    +0.061 HD
BRANCH 104 106
ATOM    106  C   UNL     1     144.373 165.816 193.981  0.00  0.00    -0.006 C 
ATOM    107  H   UNL     1     143.980 166.649 194.577  0.00  0.00    +0.033 HD
ATOM    108  H   UNL     1     143.639 165.011 194.119  0.00  0.00    +0.033 HD
BRANCH 106 109
ATOM    109  C   UNL     1     145.707 165.394 194.546  0.00  0.00    -0.067 C 
ATOM    110  C   UNL     1     146.799 166.170 194.503  0.00  0.00    -0.005 C 
ATOM    111  H   UNL     1     145.735 164.407 194.993  0.00  0.00    +0.059 HD
ATOM    112  H   UNL     1     146.724 167.148 194.023  0.00  0.00    +0.078 HD
BRANCH 110 113
ATOM    113  N   UNL     1     148.055 165.889 195.019  0.00  0.00    -0.284 N 
ATOM    114  C   UNL     1     148.426 166.020 196.354  0.00  0.00    +0.206 C 
ATOM    115  O   UNL     1     149.543 165.816 196.818  0.00  0.00    -0.279 OA
ATOM    116  H   UNL     1     147.609 166.339 197.016  0.00  0.00    +0.126 HD
BRANCH 113 117
ATOM    117  C   UNL     1     149.076 165.441 194.079  0.00  0.00    +0.007 C 
ATOM    118  H   UNL     1     148.583 164.965 193.223  0.00  0.00    +0.043 HD
ATOM    119  H   UNL     1     149.659 166.304 193.734  0.00  0.00    +0.043 HD
ATOM    120  H   UNL     1     149.765 164.718 194.526  0.00  0.00    +0.043 HD
ENDBRANCH 113 117
ENDBRANCH 110 113
ENDBRANCH 106 109
ENDBRANCH 104 106
BRANCH 104 121
ATOM    121  O   UNL     1     144.926 165.106 191.707  0.00  0.00    -0.379 OA
BRANCH 121 122
ATOM    122  C   UNL     1     146.003 165.441 190.843  0.00  0.00    +0.037 C 
ATOM    123  H   UNL     1     146.917 165.646 191.406  0.00  0.00    +0.052 HD
ATOM    124  H   UNL     1     145.741 166.303 190.225  0.00  0.00    +0.052 HD
ATOM    125  H   UNL     1     146.189 164.589 190.184  0.00  0.00    +0.052 HD
ENDBRANCH 121 122
ENDBRANCH 104 121
ENDBRANCH  98 104
ENDBRANCH  96  98
ENDBRANCH  93  96
ENDBRANCH  90  93
ENDBRANCH  84  90
ENDBRANCH  82  84
BRANCH  82 126
ATOM    126  O   UNL     1     143.374 164.521 187.401  0.00  0.00    -0.379 OA
BRANCH 126 127
ATOM    127  C   UNL     1     142.786 163.441 186.694  0.00  0.00    +0.037 C 
ATOM    128  H   UNL     1     142.617 162.603 187.377  0.00  0.00    +0.052 HD
ATOM    129  H   UNL     1     141.846 163.742 186.221  0.00  0.00    +0.052 HD
ATOM    130  H   UNL     1     143.484 163.118 185.916  0.00  0.00    +0.052 HD
ENDBRANCH 126 127
ENDBRANCH  82 126
ENDBRANCH  76  82
ENDBRANCH  25  76
BRANCH  31 131
ATOM    131  O   UNL     1     150.171 162.250 182.066  0.00  0.00    -0.379 OA
BRANCH 131 132
ATOM    132  C   UNL     1     151.327 162.614 181.320  0.00  0.00    +0.037 C 
ATOM    133  H   UNL     1     151.214 162.313 180.273  0.00  0.00    +0.052 HD
ATOM    134  H   UNL     1     152.228 162.163 181.744  0.00  0.00    +0.052 HD
ATOM    135  H   UNL     1     151.431 163.700 181.362  0.00  0.00    +0.052 HD
ENDBRANCH 131 132
ENDBRANCH  31 131
BRANCH  29 136
ATOM    136  O   UNL     1     146.681 165.318 180.979  0.00  0.00    -0.376 OA
BRANCH 136 137
ATOM    137  C   UNL     1     146.871 166.000 179.745  0.00  0.00    +0.037 C 
ATOM    138  H   UNL     1     147.899 166.360 179.652  0.00  0.00    +0.052 HD
ATOM    139  H   UNL     1     146.668 165.298 178.932  0.00  0.00    +0.052 HD
ATOM    140  H   UNL     1     146.167 166.835 179.656  0.00  0.00    +0.052 HD
ENDBRANCH 136 137
ENDBRANCH  29 136
BRANCH  16 141
ATOM    141  O   UNL     1     150.499 171.157 192.730  0.00  0.00    -0.379 OA
BRANCH 141 142
ATOM    142  C   UNL     1     149.832 172.191 193.443  0.00  0.00    +0.037 C 
ATOM    143  H   UNL     1     148.972 171.754 193.956  0.00  0.00    +0.052 HD
ATOM    144  H   UNL     1     150.505 172.619 194.192  0.00  0.00    +0.052 HD
ATOM    145  H   UNL     1     149.475 172.976 192.768  0.00  0.00    +0.052 HD
ENDBRANCH 141 142
ENDBRANCH  16 141
BRANCH   6 146
ATOM    146  O   UNL     1     149.901 166.156 188.552  0.00  0.00    -0.379 OA
BRANCH 146 147
ATOM    147  C   UNL     1     148.896 165.816 189.499  0.00  0.00    +0.037 C 
ATOM    148  H   UNL     1     149.348 165.828 190.492  0.00  0.00    +0.052 HD
ATOM    149  H   UNL     1     148.088 166.555 189.478  0.00  0.00    +0.052 HD
ATOM    150  H   UNL     1     148.497 164.815 189.315  0.00  0.00    +0.052 HD
ENDBRANCH 146 147
ENDBRANCH   6 146
BRANCH   4 151
ATOM    151  O   UNL     1     153.062 165.132 185.442  0.00  0.00    -0.376 OA
BRANCH 151 152
ATOM    152  C   UNL     1     154.321 164.478 185.532  0.00  0.00    +0.037 C 
ATOM    153  H   UNL     1     155.107 165.230 185.407  0.00  0.00    +0.052 HD
ATOM    154  H   UNL     1     154.430 163.728 184.742  0.00  0.00    +0.052 HD
ATOM    155  H   UNL     1     154.440 164.013 186.515  0.00  0.00    +0.052 HD
ENDBRANCH 151 152
ENDBRANCH   4 151
TORSDOF 33
ENDMDL
MODEL 10
REMARK VINA RESULT:      -5.0      2.684      4.407
REMARK  Name = Reidispongiolide A_conf1
REMARK  33 active torsions:
REMARK  status: ('A' for Active; 'I' for Inactive)
REMARK    1  A    between atoms: C_1  and  C_2
REMARK    2  A    between atoms: C_5  and  O_67
REMARK    3  A    between atoms: C_7  and  O_65
REMARK    4  A    between atoms: C_8  and  C_64
REMARK    5  A    between atoms: C_17  and  O_62
REMARK    6  A    between atoms: C_19  and  C_61
REMARK    7  A    between atoms: C_26  and  C_38
REMARK    8  A    between atoms: C_27  and  C_37
REMARK    9  A    between atoms: C_30  and  O_35
REMARK   10  A    between atoms: C_32  and  O_33
REMARK   11  A    between atoms: O_33  and  C_34
REMARK   12  A    between atoms: O_35  and  C_36
REMARK   13  A    between atoms: C_38  and  C_39
REMARK   14  A    between atoms: C_38  and  C_40
REMARK   15  A    between atoms: C_40  and  C_41
REMARK   16  A    between atoms: C_40  and  O_59
REMARK   17  A    between atoms: C_41  and  C_42
REMARK   18  A    between atoms: C_41  and  C_43
REMARK   19  A    between atoms: C_43  and  C_44
REMARK   20  A    between atoms: C_44  and  C_45
REMARK   21  A    between atoms: C_45  and  C_47
REMARK   22  A    between atoms: C_47  and  C_48
REMARK   23  A    between atoms: C_47  and  C_49
REMARK   24  A    between atoms: C_49  and  C_50
REMARK   25  A    between atoms: C_49  and  O_57
REMARK   26  A    between atoms: C_50  and  C_51
REMARK   27  A    between atoms: C_52  and  N_53
REMARK   28  A    between atoms: N_53  and  C_54
REMARK   29  A    between atoms: O_57  and  C_58
REMARK   30  A    between atoms: O_59  and  C_60
REMARK   31  A    between atoms: O_62  and  C_63
REMARK   32  A    between atoms: O_65  and  C_66
REMARK   33  A    between atoms: O_67  and  C_68
REMARK                            x       y       z     vdW  Elec       q    Type
REMARK                         _______ _______ _______ _____ _____    ______ ____
ROOT
ATOM      1  C   UNL     1     150.979 164.330 182.620  0.00  0.00    +0.001 C 
ATOM      2  C   UNL     1     149.594 164.356 183.241  0.00  0.00    -0.080 C 
ATOM      3  C   UNL     1     149.353 164.233 184.556  0.00  0.00    -0.059 C 
ATOM      4  C   UNL     1     147.975 164.206 185.161  0.00  0.00    +0.079 C 
ATOM      5  C   UNL     1     147.941 164.573 186.656  0.00  0.00    +0.004 C 
ATOM      6  C   UNL     1     148.337 166.030 186.972  0.00  0.00    +0.067 C 
ATOM      7  C   UNL     1     147.319 166.756 187.911  0.00  0.00    +0.020 C 
ATOM      8  C   UNL     1     146.974 166.000 189.233  0.00  0.00    +0.112 C 
ATOM      9  C   UNL     1     148.079 165.928 190.297  0.00  0.00    +0.006 C 
ATOM     10  C   UNL     1     148.160 167.186 191.120  0.00  0.00    -0.057 C 
ATOM     11  C   UNL     1     147.103 168.009 191.186  0.00  0.00    +0.022 C 
ATOM     12  C   UNL     1     145.813 167.685 190.557  0.00  0.00    +0.332 C 
ATOM     13  O   UNL     1     144.829 168.389 190.743  0.00  0.00    -0.246 OA
ATOM     14  O   UNL     1     145.766 166.554 189.814  0.00  0.00    -0.458 OA
ATOM     15  C   UNL     1     149.442 167.471 191.877  0.00  0.00    -0.004 C 
ATOM     16  C   UNL     1     149.759 166.420 192.972  0.00  0.00    +0.066 C 
ATOM     17  C   UNL     1     151.184 166.609 193.558  0.00  0.00    -0.005 C 
ATOM     18  C   UNL     1     152.393 166.369 192.657  0.00  0.00    -0.070 C 
ATOM     19  C   UNL     1     152.292 165.750 191.467  0.00  0.00    -0.062 C 
ATOM     20  C   UNL     1     153.286 165.573 190.445  0.00  0.00    -0.055 C 
ATOM     21  C   UNL     1     154.417 164.853 190.522  0.00  0.00    +0.023 C 
ATOM     22  C   UNL     1     155.215 164.548 189.309  0.00  0.00    +0.332 C 
ATOM     23  O   UNL     1     156.063 163.672 189.268  0.00  0.00    -0.246 OA
ATOM     24  O   UNL     1     154.784 165.292 188.267  0.00  0.00    -0.457 OA
ATOM     25  C   UNL     1     155.071 164.855 186.907  0.00  0.00    +0.114 C 
ATOM     26  C   UNL     1     154.083 163.671 186.601  0.00  0.00    +0.012 C 
ATOM     27  C   UNL     1     154.295 162.979 185.269  0.00  0.00    -0.079 C 
ATOM     28  C   UNL     1     153.328 162.577 184.422  0.00  0.00    -0.059 C 
ATOM     29  C   UNL     1     153.481 161.893 183.084  0.00  0.00    +0.079 C 
ATOM     30  C   UNL     1     152.837 162.689 181.926  0.00  0.00    +0.004 C 
ATOM     31  C   UNL     1     151.312 162.899 182.089  0.00  0.00    +0.067 C 
ATOM     32  H   UNL     1     151.701 164.597 183.399  0.00  0.00    +0.037 HD
ATOM     33  H   UNL     1     148.757 164.433 182.547  0.00  0.00    +0.057 HD
ATOM     34  H   UNL     1     150.179 164.100 185.248  0.00  0.00    +0.059 HD
ATOM     35  H   UNL     1     147.307 164.890 184.616  0.00  0.00    +0.064 HD
ATOM     36  H   UNL     1     148.573 163.873 187.218  0.00  0.00    +0.032 HD
ATOM     37  H   UNL     1     146.917 164.362 186.983  0.00  0.00    +0.032 HD
ATOM     38  H   UNL     1     148.399 166.594 186.031  0.00  0.00    +0.060 HD
ATOM     39  H   UNL     1     147.740 167.728 188.196  0.00  0.00    +0.036 HD
ATOM     40  H   UNL     1     146.705 164.967 188.989  0.00  0.00    +0.074 HD
ATOM     41  H   UNL     1     149.046 165.695 189.849  0.00  0.00    +0.035 HD
ATOM     42  H   UNL     1     147.848 165.102 190.987  0.00  0.00    +0.035 HD
ATOM     43  H   UNL     1     147.110 168.918 191.777  0.00  0.00    +0.069 HD
ATOM     44  H   UNL     1     150.249 167.537 191.140  0.00  0.00    +0.034 HD
ATOM     45  H   UNL     1     149.375 168.460 192.349  0.00  0.00    +0.034 HD
ATOM     46  H   UNL     1     149.653 165.407 192.566  0.00  0.00    +0.060 HD
ATOM     47  H   UNL     1     151.237 167.637 193.951  0.00  0.00    +0.034 HD
ATOM     48  H   UNL     1     151.296 165.963 194.439  0.00  0.00    +0.034 HD
ATOM     49  H   UNL     1     151.319 165.396 191.123  0.00  0.00    +0.062 HD
ATOM     50  H   UNL     1     152.974 166.004 189.495  0.00  0.00    +0.062 HD
ATOM     51  H   UNL     1     154.728 164.349 191.429  0.00  0.00    +0.069 HD
ATOM     52  H   UNL     1     156.106 164.499 186.865  0.00  0.00    +0.074 HD
ATOM     53  H   UNL     1     154.301 162.897 187.354  0.00  0.00    +0.038 HD
ATOM     54  H   UNL     1     155.330 162.768 185.006  0.00  0.00    +0.057 HD
ATOM     55  H   UNL     1     152.290 162.713 184.713  0.00  0.00    +0.059 HD
ATOM     56  H   UNL     1     152.989 160.913 183.168  0.00  0.00    +0.064 HD
ATOM     57  H   UNL     1     153.353 163.652 181.822  0.00  0.00    +0.032 HD
ATOM     58  H   UNL     1     153.052 162.170 180.985  0.00  0.00    +0.032 HD
ATOM     59  H   UNL     1     150.907 162.152 182.788  0.00  0.00    +0.060 HD
ENDROOT
BRANCH   1  60
ATOM     60  C   UNL     1     151.057 165.408 181.531  0.00  0.00    -0.057 C 
ATOM     61  H   UNL     1     151.219 166.406 181.953  0.00  0.00    +0.024 HD
ATOM     62  H   UNL     1     151.887 165.205 180.847  0.00  0.00    +0.024 HD
ATOM     63  H   UNL     1     150.138 165.442 180.937  0.00  0.00    +0.024 HD
ENDBRANCH   1  60
BRANCH  26  64
ATOM     64  C   UNL     1     152.619 164.075 186.863  0.00  0.00    -0.056 C 
ATOM     65  H   UNL     1     151.997 163.973 185.972  0.00  0.00    +0.024 HD
ATOM     66  H   UNL     1     152.169 163.467 187.655  0.00  0.00    +0.024 HD
ATOM     67  H   UNL     1     152.544 165.129 187.151  0.00  0.00    +0.024 HD
ENDBRANCH  26  64
BRANCH  18  68
ATOM     68  C   UNL     1     153.677 166.927 193.216  0.00  0.00    -0.043 C 
ATOM     69  H   UNL     1     153.461 167.798 193.844  0.00  0.00    +0.027 HD
ATOM     70  H   UNL     1     154.336 167.250 192.402  0.00  0.00    +0.027 HD
ATOM     71  H   UNL     1     154.235 166.213 193.825  0.00  0.00    +0.027 HD
ENDBRANCH  18  68
BRANCH   7  72
ATOM     72  C   UNL     1     146.050 167.072 187.097  0.00  0.00    -0.057 C 
ATOM     73  H   UNL     1     145.458 166.164 186.938  0.00  0.00    +0.023 HD
ATOM     74  H   UNL     1     145.416 167.807 187.602  0.00  0.00    +0.023 HD
ATOM     75  H   UNL     1     146.296 167.465 186.105  0.00  0.00    +0.023 HD
ENDBRANCH   7  72
BRANCH  25  76
ATOM     76  C   UNL     1     154.934 166.145 186.039  0.00  0.00    +0.020 C 
ATOM     77  H   UNL     1     154.165 165.942 185.280  0.00  0.00    +0.036 HD
BRANCH  76  78
ATOM     78  C   UNL     1     154.320 167.288 186.872  0.00  0.00    -0.057 C 
ATOM     79  H   UNL     1     154.165 166.966 187.908  0.00  0.00    +0.023 HD
ATOM     80  H   UNL     1     153.343 167.602 186.498  0.00  0.00    +0.023 HD
ATOM     81  H   UNL     1     154.979 168.160 186.908  0.00  0.00    +0.023 HD
ENDBRANCH  76  78
BRANCH  76  82
ATOM     82  C   UNL     1     156.202 166.580 185.254  0.00  0.00    +0.067 C 
ATOM     83  H   UNL     1     156.523 167.536 185.679  0.00  0.00    +0.060 HD
BRANCH  82  84
ATOM     84  C   UNL     1     156.082 166.769 183.708  0.00  0.00    -0.017 C 
ATOM     85  H   UNL     1     156.994 166.382 183.243  0.00  0.00    +0.032 HD
BRANCH  84  86
ATOM     86  C   UNL     1     154.917 165.885 183.221  0.00  0.00    -0.060 C 
ATOM     87  H   UNL     1     155.283 164.978 182.734  0.00  0.00    +0.023 HD
ATOM     88  H   UNL     1     154.268 165.583 184.048  0.00  0.00    +0.023 HD
ATOM     89  H   UNL     1     154.312 166.405 182.475  0.00  0.00    +0.023 HD
ENDBRANCH  84  86
BRANCH  84  90
ATOM     90  C   UNL     1     155.886 168.242 183.265  0.00  0.00    -0.041 C 
ATOM     91  H   UNL     1     154.821 168.488 183.291  0.00  0.00    +0.027 HD
ATOM     92  H   UNL     1     156.202 168.339 182.219  0.00  0.00    +0.027 HD
BRANCH  90  93
ATOM     93  C   UNL     1     156.637 169.322 184.048  0.00  0.00    +0.007 C 
ATOM     94  H   UNL     1     157.707 169.070 184.006  0.00  0.00    +0.034 HD
ATOM     95  H   UNL     1     156.400 169.353 185.116  0.00  0.00    +0.034 HD
BRANCH  93  96
ATOM     96  C   UNL     1     156.526 170.720 183.463  0.00  0.00    +0.139 C 
ATOM     97  O   UNL     1     156.054 170.870 182.334  0.00  0.00    -0.297 OA
BRANCH  96  98
ATOM     98  C   UNL     1     157.043 171.892 184.294  0.00  0.00    +0.041 C 
ATOM     99  H   UNL     1     157.229 171.527 185.309  0.00  0.00    +0.040 HD
BRANCH  98 100
ATOM    100  C   UNL     1     155.947 172.953 184.374  0.00  0.00    -0.053 C 
ATOM    101  H   UNL     1     155.299 172.805 185.241  0.00  0.00    +0.024 HD
ATOM    102  H   UNL     1     155.327 172.932 183.471  0.00  0.00    +0.024 HD
ATOM    103  H   UNL     1     156.379 173.954 184.460  0.00  0.00    +0.024 HD
ENDBRANCH  98 100
BRANCH  98 104
ATOM    104  C   UNL     1     158.377 172.468 183.749  0.00  0.00    +0.071 C 
ATOM    105  H   UNL     1     158.643 173.315 184.398  0.00  0.00    +0.061 HD
BRANCH 104 106
ATOM    106  C   UNL     1     159.539 171.446 183.767  0.00  0.00    -0.006 C 
ATOM    107  H   UNL     1     159.504 170.841 184.681  0.00  0.00    +0.033 HD
ATOM    108  H   UNL     1     159.401 170.721 182.954  0.00  0.00    +0.033 HD
BRANCH 106 109
ATOM    109  C   UNL     1     160.901 172.087 183.655  0.00  0.00    -0.067 C 
ATOM    110  C   UNL     1     161.679 171.966 182.570  0.00  0.00    -0.005 C 
ATOM    111  H   UNL     1     161.222 172.657 184.518  0.00  0.00    +0.059 HD
ATOM    112  H   UNL     1     161.318 171.364 181.735  0.00  0.00    +0.078 HD
BRANCH 110 113
ATOM    113  N   UNL     1     162.924 172.539 182.358  0.00  0.00    -0.284 N 
ATOM    114  C   UNL     1     163.726 173.114 183.340  0.00  0.00    +0.206 C 
ATOM    115  O   UNL     1     164.808 173.662 183.161  0.00  0.00    -0.279 OA
ATOM    116  H   UNL     1     163.308 173.047 184.354  0.00  0.00    +0.126 HD
BRANCH 113 117
ATOM    117  C   UNL     1     163.422 172.562 180.987  0.00  0.00    +0.007 C 
ATOM    118  H   UNL     1     164.046 171.675 180.825  0.00  0.00    +0.043 HD
ATOM    119  H   UNL     1     162.575 172.547 180.290  0.00  0.00    +0.043 HD
ATOM    120  H   UNL     1     164.024 173.451 180.777  0.00  0.00    +0.043 HD
ENDBRANCH 113 117
ENDBRANCH 110 113
ENDBRANCH 106 109
ENDBRANCH 104 106
BRANCH 104 121
ATOM    121  O   UNL     1     158.175 172.966 182.422  0.00  0.00    -0.379 OA
BRANCH 121 122
ATOM    122  C   UNL     1     158.514 174.336 182.259  0.00  0.00    +0.037 C 
ATOM    123  H   UNL     1     159.469 174.452 181.741  0.00  0.00    +0.052 HD
ATOM    124  H   UNL     1     158.550 174.837 183.230  0.00  0.00    +0.052 HD
ATOM    125  H   UNL     1     157.736 174.811 181.656  0.00  0.00    +0.052 HD
ENDBRANCH 121 122
ENDBRANCH 104 121
ENDBRANCH  98 104
ENDBRANCH  96  98
ENDBRANCH  93  96
ENDBRANCH  90  93
ENDBRANCH  84  90
ENDBRANCH  82  84
BRANCH  82 126
ATOM    126  O   UNL     1     157.255 165.626 185.498  0.00  0.00    -0.379 OA
BRANCH 126 127
ATOM    127  C   UNL     1     158.470 166.223 185.921  0.00  0.00    +0.037 C 
ATOM    128  H   UNL     1     159.315 165.611 185.592  0.00  0.00    +0.052 HD
ATOM    129  H   UNL     1     158.566 167.244 185.536  0.00  0.00    +0.052 HD
ATOM    130  H   UNL     1     158.474 166.258 187.015  0.00  0.00    +0.052 HD
ENDBRANCH 126 127
ENDBRANCH  82 126
ENDBRANCH  76  82
ENDBRANCH  25  76
BRANCH  31 131
ATOM    131  O   UNL     1     150.660 162.721 180.816  0.00  0.00    -0.379 OA
BRANCH 131 132
ATOM    132  C   UNL     1     149.903 161.519 180.740  0.00  0.00    +0.037 C 
ATOM    133  H   UNL     1     148.879 161.735 180.419  0.00  0.00    +0.052 HD
ATOM    134  H   UNL     1     149.892 160.998 181.700  0.00  0.00    +0.052 HD
ATOM    135  H   UNL     1     150.370 160.868 179.998  0.00  0.00    +0.052 HD
ENDBRANCH 131 132
ENDBRANCH  31 131
BRANCH  29 136
ATOM    136  O   UNL     1     154.875 161.711 182.812  0.00  0.00    -0.376 OA
BRANCH 136 137
ATOM    137  C   UNL     1     155.296 162.400 181.640  0.00  0.00    +0.037 C 
ATOM    138  H   UNL     1     154.472 162.498 180.928  0.00  0.00    +0.052 HD
ATOM    139  H   UNL     1     155.631 163.399 181.933  0.00  0.00    +0.052 HD
ATOM    140  H   UNL     1     156.141 161.881 181.173  0.00  0.00    +0.052 HD
ENDBRANCH 136 137
ENDBRANCH  29 136
BRANCH  16 141
ATOM    141  O   UNL     1     148.798 166.607 194.030  0.00  0.00    -0.379 OA
BRANCH 141 142
ATOM    142  C   UNL     1     149.121 165.880 195.209  0.00  0.00    +0.037 C 
ATOM    143  H   UNL     1     149.339 164.848 194.925  0.00  0.00    +0.052 HD
ATOM    144  H   UNL     1     150.012 166.310 195.677  0.00  0.00    +0.052 HD
ATOM    145  H   UNL     1     148.288 165.879 195.920  0.00  0.00    +0.052 HD
ENDBRANCH 141 142
ENDBRANCH  16 141
BRANCH   6 146
ATOM    146  O   UNL     1     149.643 166.002 187.569  0.00  0.00    -0.379 OA
BRANCH 146 147
ATOM    147  C   UNL     1     150.522 166.995 187.052  0.00  0.00    +0.037 C 
ATOM    148  H   UNL     1     149.914 167.781 186.599  0.00  0.00    +0.052 HD
ATOM    149  H   UNL     1     151.114 167.437 187.860  0.00  0.00    +0.052 HD
ATOM    150  H   UNL     1     151.180 166.583 186.283  0.00  0.00    +0.052 HD
ENDBRANCH 146 147
ENDBRANCH   6 146
BRANCH   4 151
ATOM    151  O   UNL     1     147.510 162.851 185.074  0.00  0.00    -0.376 OA
BRANCH 151 152
ATOM    152  C   UNL     1     148.251 161.962 185.899  0.00  0.00    +0.037 C 
ATOM    153  H   UNL     1     147.858 160.950 185.751  0.00  0.00    +0.052 HD
ATOM    154  H   UNL     1     148.140 162.225 186.956  0.00  0.00    +0.052 HD
ATOM    155  H   UNL     1     149.307 161.968 185.615  0.00  0.00    +0.052 HD
ENDBRANCH 151 152
ENDBRANCH   4 151
TORSDOF 33
ENDMDL
