MODEL 1
REMARK VINA RESULT:      -5.4      0.000      0.000
REMARK  Name = Reidispongiolide A_conf3
REMARK  33 active torsions:
REMARK  status: ('A' for Active; 'I' for Inactive)
REMARK    1  A    between atoms: C_1  and  C_2
REMARK    2  A    between atoms: C_5  and  O_67
REMARK    3  A    between atoms: C_7  and  O_65
REMARK    4  A    between atoms: C_8  and  C_64
REMARK    5  A    between atoms: C_17  and  O_62
REMARK    6  A    between atoms: C_19  and  C_61
REMARK    7  A    between atoms: C_26  and  C_38
REMARK    8  A    between atoms: C_27  and  C_37
REMARK    9  A    between atoms: C_30  and  O_35
REMARK   10  A    between atoms: C_32  and  O_33
REMARK   11  A    between atoms: O_33  and  C_34
REMARK   12  A    between atoms: O_35  and  C_36
REMARK   13  A    between atoms: C_38  and  C_39
REMARK   14  A    between atoms: C_38  and  C_40
REMARK   15  A    between atoms: C_40  and  C_41
REMARK   16  A    between atoms: C_40  and  O_59
REMARK   17  A    between atoms: C_41  and  C_42
REMARK   18  A    between atoms: C_41  and  C_43
REMARK   19  A    between atoms: C_43  and  C_44
REMARK   20  A    between atoms: C_44  and  C_45
REMARK   21  A    between atoms: C_45  and  C_47
REMARK   22  A    between atoms: C_47  and  C_48
REMARK   23  A    between atoms: C_47  and  C_49
REMARK   24  A    between atoms: C_49  and  C_50
REMARK   25  A    between atoms: C_49  and  O_57
REMARK   26  A    between atoms: C_50  and  C_51
REMARK   27  A    between atoms: C_52  and  N_53
REMARK   28  A    between atoms: N_53  and  C_54
REMARK   29  A    between atoms: O_57  and  C_58
REMARK   30  A    between atoms: O_59  and  C_60
REMARK   31  A    between atoms: O_62  and  C_63
REMARK   32  A    between atoms: O_65  and  C_66
REMARK   33  A    between atoms: O_67  and  C_68
REMARK                            x       y       z     vdW  Elec       q    Type
REMARK                         _______ _______ _______ _____ _____    ______ ____
ROOT
ATOM      1  C   UNL     1     160.540 166.441 185.992  0.00  0.00    +0.001 C 
ATOM      2  C   UNL     1     160.389 167.600 185.012  0.00  0.00    -0.080 C 
ATOM      3  C   UNL     1     161.279 167.956 184.068  0.00  0.00    -0.059 C 
ATOM      4  C   UNL     1     161.264 169.110 183.099  0.00  0.00    +0.079 C 
ATOM      5  C   UNL     1     160.146 170.165 183.215  0.00  0.00    +0.004 C 
ATOM      6  C   UNL     1     158.739 169.750 182.730  0.00  0.00    +0.067 C 
ATOM      7  C   UNL     1     157.606 170.659 183.299  0.00  0.00    +0.020 C 
ATOM      8  C   UNL     1     157.769 172.174 182.946  0.00  0.00    +0.112 C 
ATOM      9  C   UNL     1     157.175 172.616 181.591  0.00  0.00    +0.006 C 
ATOM     10  C   UNL     1     155.734 173.044 181.679  0.00  0.00    -0.057 C 
ATOM     11  C   UNL     1     155.196 173.330 182.877  0.00  0.00    +0.022 C 
ATOM     12  C   UNL     1     155.971 173.316 184.129  0.00  0.00    +0.332 C 
ATOM     13  O   UNL     1     155.457 173.639 185.193  0.00  0.00    -0.246 OA
ATOM     14  O   UNL     1     157.285 173.012 184.027  0.00  0.00    -0.458 OA
ATOM     15  C   UNL     1     154.994 173.351 180.384  0.00  0.00    -0.004 C 
ATOM     16  C   UNL     1     153.618 172.706 180.038  0.00  0.00    +0.066 C 
ATOM     17  C   UNL     1     153.706 171.357 179.275  0.00  0.00    -0.005 C 
ATOM     18  C   UNL     1     153.668 170.053 180.053  0.00  0.00    -0.070 C 
ATOM     19  C   UNL     1     152.829 169.061 179.681  0.00  0.00    -0.062 C 
ATOM     20  C   UNL     1     152.726 167.764 180.318  0.00  0.00    -0.055 C 
ATOM     21  C   UNL     1     153.746 166.895 180.391  0.00  0.00    +0.023 C 
ATOM     22  C   UNL     1     153.595 165.674 181.198  0.00  0.00    +0.332 C 
ATOM     23  O   UNL     1     152.532 165.140 181.477  0.00  0.00    -0.246 OA
ATOM     24  O   UNL     1     154.823 165.315 181.641  0.00  0.00    -0.457 OA
ATOM     25  C   UNL     1     154.855 164.477 182.818  0.00  0.00    +0.114 C 
ATOM     26  C   UNL     1     155.840 163.280 182.626  0.00  0.00    +0.012 C 
ATOM     27  C   UNL     1     157.313 163.599 182.729  0.00  0.00    -0.079 C 
ATOM     28  C   UNL     1     158.122 163.046 183.657  0.00  0.00    -0.059 C 
ATOM     29  C   UNL     1     159.602 163.286 183.764  0.00  0.00    +0.079 C 
ATOM     30  C   UNL     1     160.028 164.725 184.117  0.00  0.00    +0.004 C 
ATOM     31  C   UNL     1     159.771 165.147 185.576  0.00  0.00    +0.067 C 
ATOM     32  H   UNL     1     160.090 166.802 186.930  0.00  0.00    +0.037 HD
ATOM     33  H   UNL     1     159.470 168.164 185.137  0.00  0.00    +0.057 HD
ATOM     34  H   UNL     1     162.176 167.350 183.957  0.00  0.00    +0.059 HD
ATOM     35  H   UNL     1     162.208 169.641 183.300  0.00  0.00    +0.064 HD
ATOM     36  H   UNL     1     160.466 171.023 182.614  0.00  0.00    +0.032 HD
ATOM     37  H   UNL     1     160.117 170.503 184.254  0.00  0.00    +0.032 HD
ATOM     38  H   UNL     1     158.539 168.720 183.048  0.00  0.00    +0.060 HD
ATOM     39  H   UNL     1     156.670 170.324 182.845  0.00  0.00    +0.036 HD
ATOM     40  H   UNL     1     158.839 172.403 182.899  0.00  0.00    +0.074 HD
ATOM     41  H   UNL     1     157.295 171.830 180.839  0.00  0.00    +0.035 HD
ATOM     42  H   UNL     1     157.745 173.484 181.231  0.00  0.00    +0.035 HD
ATOM     43  H   UNL     1     154.181 173.702 182.983  0.00  0.00    +0.069 HD
ATOM     44  H   UNL     1     155.676 173.213 179.530  0.00  0.00    +0.034 HD
ATOM     45  H   UNL     1     154.818 174.440 180.413  0.00  0.00    +0.034 HD
ATOM     46  H   UNL     1     153.174 173.417 179.325  0.00  0.00    +0.060 HD
ATOM     47  H   UNL     1     154.607 171.355 178.644  0.00  0.00    +0.034 HD
ATOM     48  H   UNL     1     152.866 171.351 178.569  0.00  0.00    +0.034 HD
ATOM     49  H   UNL     1     152.131 169.214 178.857  0.00  0.00    +0.062 HD
ATOM     50  H   UNL     1     151.760 167.525 180.760  0.00  0.00    +0.062 HD
ATOM     51  H   UNL     1     154.720 167.093 179.966  0.00  0.00    +0.069 HD
ATOM     52  H   UNL     1     153.879 163.991 182.936  0.00  0.00    +0.074 HD
ATOM     53  H   UNL     1     155.591 162.570 183.428  0.00  0.00    +0.038 HD
ATOM     54  H   UNL     1     157.725 164.291 181.994  0.00  0.00    +0.057 HD
ATOM     55  H   UNL     1     157.697 162.336 184.369  0.00  0.00    +0.059 HD
ATOM     56  H   UNL     1     160.052 163.030 182.794  0.00  0.00    +0.064 HD
ATOM     57  H   UNL     1     159.540 165.420 183.422  0.00  0.00    +0.032 HD
ATOM     58  H   UNL     1     161.109 164.778 183.932  0.00  0.00    +0.032 HD
ATOM     59  H   UNL     1     160.103 164.341 186.245  0.00  0.00    +0.060 HD
ENDROOT
BRANCH   1  60
ATOM     60  C   UNL     1     162.001 166.112 186.335  0.00  0.00    -0.057 C 
ATOM     61  H   UNL     1     162.119 165.975 187.415  0.00  0.00    +0.024 HD
ATOM     62  H   UNL     1     162.667 166.928 186.036  0.00  0.00    +0.024 HD
ATOM     63  H   UNL     1     162.350 165.197 185.849  0.00  0.00    +0.024 HD
ENDBRANCH   1  60
BRANCH  26  64
ATOM     64  C   UNL     1     155.568 162.573 181.291  0.00  0.00    -0.056 C 
ATOM     65  H   UNL     1     155.033 161.627 181.443  0.00  0.00    +0.024 HD
ATOM     66  H   UNL     1     156.501 162.353 180.766  0.00  0.00    +0.024 HD
ATOM     67  H   UNL     1     154.967 163.208 180.635  0.00  0.00    +0.024 HD
ENDBRANCH  26  64
BRANCH  18  68
ATOM     68  C   UNL     1     154.619 169.956 181.208  0.00  0.00    -0.043 C 
ATOM     69  H   UNL     1     155.264 169.081 181.099  0.00  0.00    +0.027 HD
ATOM     70  H   UNL     1     155.291 170.809 181.309  0.00  0.00    +0.027 HD
ATOM     71  H   UNL     1     154.041 169.882 182.129  0.00  0.00    +0.027 HD
ENDBRANCH  18  68
BRANCH   7  72
ATOM     72  C   UNL     1     157.445 170.407 184.805  0.00  0.00    -0.057 C 
ATOM     73  H   UNL     1     158.394 170.103 185.250  0.00  0.00    +0.023 HD
ATOM     74  H   UNL     1     157.087 171.292 185.337  0.00  0.00    +0.023 HD
ATOM     75  H   UNL     1     156.740 169.591 184.987  0.00  0.00    +0.023 HD
ENDBRANCH   7  72
BRANCH  25  76
ATOM     76  C   UNL     1     155.119 165.373 184.079  0.00  0.00    +0.020 C 
ATOM     77  H   UNL     1     155.848 164.836 184.697  0.00  0.00    +0.036 HD
BRANCH  76  78
ATOM     78  C   UNL     1     155.748 166.716 183.690  0.00  0.00    -0.057 C 
ATOM     79  H   UNL     1     156.575 166.605 182.984  0.00  0.00    +0.023 HD
ATOM     80  H   UNL     1     154.998 167.382 183.261  0.00  0.00    +0.023 HD
ATOM     81  H   UNL     1     156.147 167.248 184.555  0.00  0.00    +0.023 HD
ENDBRANCH  76  78
BRANCH  76  82
ATOM     82  C   UNL     1     153.805 165.494 184.931  0.00  0.00    +0.067 C 
ATOM     83  H   UNL     1     153.317 166.442 184.678  0.00  0.00    +0.060 HD
BRANCH  82  84
ATOM     84  C   UNL     1     153.878 165.505 186.488  0.00  0.00    -0.017 C 
ATOM     85  H   UNL     1     152.854 165.414 186.868  0.00  0.00    +0.032 HD
BRANCH  84  86
ATOM     86  C   UNL     1     154.604 164.234 186.966  0.00  0.00    -0.060 C 
ATOM     87  H   UNL     1     154.066 163.341 186.632  0.00  0.00    +0.023 HD
ATOM     88  H   UNL     1     154.652 164.192 188.061  0.00  0.00    +0.023 HD
ATOM     89  H   UNL     1     155.631 164.176 186.582  0.00  0.00    +0.023 HD
ENDBRANCH  84  86
BRANCH  84  90
ATOM     90  C   UNL     1     154.506 166.729 187.196  0.00  0.00    -0.041 C 
ATOM     91  H   UNL     1     153.802 167.569 187.112  0.00  0.00    +0.027 HD
ATOM     92  H   UNL     1     155.381 167.065 186.634  0.00  0.00    +0.027 HD
BRANCH  90  93
ATOM     93  C   UNL     1     154.900 166.566 188.662  0.00  0.00    +0.007 C 
ATOM     94  H   UNL     1     155.688 167.265 188.951  0.00  0.00    +0.034 HD
ATOM     95  H   UNL     1     155.273 165.551 188.845  0.00  0.00    +0.034 HD
BRANCH  93  96
ATOM     96  C   UNL     1     153.716 166.777 189.599  0.00  0.00    +0.139 C 
ATOM     97  O   UNL     1     152.832 167.585 189.294  0.00  0.00    -0.297 OA
BRANCH  96  98
ATOM     98  C   UNL     1     153.680 165.994 190.918  0.00  0.00    +0.041 C 
ATOM     99  H   UNL     1     154.713 165.978 191.270  0.00  0.00    +0.040 HD
BRANCH  98 100
ATOM    100  C   UNL     1     153.269 164.534 190.711  0.00  0.00    -0.053 C 
ATOM    101  H   UNL     1     153.464 163.919 191.595  0.00  0.00    +0.024 HD
ATOM    102  H   UNL     1     152.194 164.464 190.505  0.00  0.00    +0.024 HD
ATOM    103  H   UNL     1     153.788 164.096 189.851  0.00  0.00    +0.024 HD
ENDBRANCH  98 100
BRANCH  98 104
ATOM    104  C   UNL     1     152.849 166.715 192.008  0.00  0.00    +0.071 C 
ATOM    105  H   UNL     1     152.766 167.786 191.783  0.00  0.00    +0.061 HD
BRANCH 104 106
ATOM    106  C   UNL     1     151.420 166.167 192.250  0.00  0.00    -0.006 C 
ATOM    107  H   UNL     1     150.704 166.718 191.626  0.00  0.00    +0.033 HD
ATOM    108  H   UNL     1     151.384 165.140 191.864  0.00  0.00    +0.033 HD
BRANCH 106 109
ATOM    109  C   UNL     1     150.978 166.126 193.688  0.00  0.00    -0.067 C 
ATOM    110  C   UNL     1     149.722 165.841 194.057  0.00  0.00    -0.005 C 
ATOM    111  H   UNL     1     151.764 166.332 194.412  0.00  0.00    +0.059 HD
ATOM    112  H   UNL     1     148.993 165.598 193.285  0.00  0.00    +0.078 HD
BRANCH 110 113
ATOM    113  N   UNL     1     149.214 165.816 195.345  0.00  0.00    -0.284 N 
ATOM    114  C   UNL     1     147.860 165.836 195.678  0.00  0.00    +0.206 C 
ATOM    115  O   UNL     1     147.405 165.816 196.818  0.00  0.00    -0.279 OA
ATOM    116  H   UNL     1     147.185 165.860 194.814  0.00  0.00    +0.126 HD
BRANCH 113 117
ATOM    117  C   UNL     1     150.175 165.720 196.440  0.00  0.00    +0.007 C 
ATOM    118  H   UNL     1     150.172 166.672 196.984  0.00  0.00    +0.043 HD
ATOM    119  H   UNL     1     151.190 165.523 196.085  0.00  0.00    +0.043 HD
ATOM    120  H   UNL     1     149.879 164.909 197.117  0.00  0.00    +0.043 HD
ENDBRANCH 113 117
ENDBRANCH 110 113
ENDBRANCH 106 109
ENDBRANCH 104 106
BRANCH 104 121
ATOM    121  O   UNL     1     153.528 166.566 193.276  0.00  0.00    -0.379 OA
BRANCH 121 122
ATOM    122  C   UNL     1     154.332 167.691 193.622  0.00  0.00    +0.037 C 
ATOM    123  H   UNL     1     155.074 167.843 192.832  0.00  0.00    +0.052 HD
ATOM    124  H   UNL     1     153.725 168.593 193.704  0.00  0.00    +0.052 HD
ATOM    125  H   UNL     1     154.857 167.509 194.565  0.00  0.00    +0.052 HD
ENDBRANCH 121 122
ENDBRANCH 104 121
ENDBRANCH  98 104
ENDBRANCH  96  98
ENDBRANCH  93  96
ENDBRANCH  90  93
ENDBRANCH  84  90
ENDBRANCH  82  84
BRANCH  82 126
ATOM    126  O   UNL     1     152.911 164.437 184.529  0.00  0.00    -0.379 OA
BRANCH 126 127
ATOM    127  C   UNL     1     151.549 164.691 184.864  0.00  0.00    +0.037 C 
ATOM    128  H   UNL     1     151.307 165.746 184.697  0.00  0.00    +0.052 HD
ATOM    129  H   UNL     1     150.880 164.051 184.280  0.00  0.00    +0.052 HD
ATOM    130  H   UNL     1     151.407 164.467 185.927  0.00  0.00    +0.052 HD
ENDBRANCH 126 127
ENDBRANCH  82 126
ENDBRANCH  76  82
ENDBRANCH  25  76
BRANCH  31 131
ATOM    131  O   UNL     1     158.362 165.372 185.760  0.00  0.00    -0.379 OA
BRANCH 131 132
ATOM    132  C   UNL     1     157.932 165.037 187.077  0.00  0.00    +0.037 C 
ATOM    133  H   UNL     1     158.593 165.491 187.821  0.00  0.00    +0.052 HD
ATOM    134  H   UNL     1     156.919 165.423 187.219  0.00  0.00    +0.052 HD
ATOM    135  H   UNL     1     157.912 163.948 187.204  0.00  0.00    +0.052 HD
ENDBRANCH 131 132
ENDBRANCH  31 131
BRANCH  29 136
ATOM    136  O   UNL     1     160.097 162.398 184.782  0.00  0.00    -0.376 OA
BRANCH 136 137
ATOM    137  C   UNL     1     159.104 161.510 185.279  0.00  0.00    +0.037 C 
ATOM    138  H   UNL     1     159.541 160.530 185.498  0.00  0.00    +0.052 HD
ATOM    139  H   UNL     1     158.707 161.931 186.210  0.00  0.00    +0.052 HD
ATOM    140  H   UNL     1     158.283 161.413 184.565  0.00  0.00    +0.052 HD
ENDBRANCH 136 137
ENDBRANCH  29 136
BRANCH  16 141
ATOM    141  O   UNL     1     152.769 172.673 181.188  0.00  0.00    -0.379 OA
BRANCH 141 142
ATOM    142  C   UNL     1     151.811 173.721 181.227  0.00  0.00    +0.037 C 
ATOM    143  H   UNL     1     151.529 173.883 182.273  0.00  0.00    +0.052 HD
ATOM    144  H   UNL     1     150.910 173.466 180.660  0.00  0.00    +0.052 HD
ATOM    145  H   UNL     1     152.252 174.649 180.840  0.00  0.00    +0.052 HD
ENDBRANCH 141 142
ENDBRANCH  16 141
BRANCH   6 146
ATOM    146  O   UNL     1     158.696 169.832 181.300  0.00  0.00    -0.379 OA
BRANCH 146 147
ATOM    147  C   UNL     1     158.040 168.714 180.709  0.00  0.00    +0.037 C 
ATOM    148  H   UNL     1     158.757 168.119 180.134  0.00  0.00    +0.052 HD
ATOM    149  H   UNL     1     157.222 169.036 180.056  0.00  0.00    +0.052 HD
ATOM    150  H   UNL     1     157.625 168.091 181.507  0.00  0.00    +0.052 HD
ENDBRANCH 146 147
ENDBRANCH   6 146
BRANCH   4 151
ATOM    151  O   UNL     1     161.343 168.521 181.798  0.00  0.00    -0.376 OA
BRANCH 151 152
ATOM    152  C   UNL     1     162.061 167.290 181.779  0.00  0.00    +0.037 C 
ATOM    153  H   UNL     1     163.134 167.472 181.670  0.00  0.00    +0.052 HD
ATOM    154  H   UNL     1     161.893 166.789 182.732  0.00  0.00    +0.052 HD
ATOM    155  H   UNL     1     161.707 166.644 180.972  0.00  0.00    +0.052 HD
ENDBRANCH 151 152
ENDBRANCH   4 151
TORSDOF 33
ENDMDL
MODEL 2
REMARK VINA RESULT:      -5.2      6.948     12.573
REMARK  Name = Reidispongiolide A_conf3
REMARK  33 active torsions:
REMARK  status: ('A' for Active; 'I' for Inactive)
REMARK    1  A    between atoms: C_1  and  C_2
REMARK    2  A    between atoms: C_5  and  O_67
REMARK    3  A    between atoms: C_7  and  O_65
REMARK    4  A    between atoms: C_8  and  C_64
REMARK    5  A    between atoms: C_17  and  O_62
REMARK    6  A    between atoms: C_19  and  C_61
REMARK    7  A    between atoms: C_26  and  C_38
REMARK    8  A    between atoms: C_27  and  C_37
REMARK    9  A    between atoms: C_30  and  O_35
REMARK   10  A    between atoms: C_32  and  O_33
REMARK   11  A    between atoms: O_33  and  C_34
REMARK   12  A    between atoms: O_35  and  C_36
REMARK   13  A    between atoms: C_38  and  C_39
REMARK   14  A    between atoms: C_38  and  C_40
REMARK   15  A    between atoms: C_40  and  C_41
REMARK   16  A    between atoms: C_40  and  O_59
REMARK   17  A    between atoms: C_41  and  C_42
REMARK   18  A    between atoms: C_41  and  C_43
REMARK   19  A    between atoms: C_43  and  C_44
REMARK   20  A    between atoms: C_44  and  C_45
REMARK   21  A    between atoms: C_45  and  C_47
REMARK   22  A    between atoms: C_47  and  C_48
REMARK   23  A    between atoms: C_47  and  C_49
REMARK   24  A    between atoms: C_49  and  C_50
REMARK   25  A    between atoms: C_49  and  O_57
REMARK   26  A    between atoms: C_50  and  C_51
REMARK   27  A    between atoms: C_52  and  N_53
REMARK   28  A    between atoms: N_53  and  C_54
REMARK   29  A    between atoms: O_57  and  C_58
REMARK   30  A    between atoms: O_59  and  C_60
REMARK   31  A    between atoms: O_62  and  C_63
REMARK   32  A    between atoms: O_65  and  C_66
REMARK   33  A    between atoms: O_67  and  C_68
REMARK                            x       y       z     vdW  Elec       q    Type
REMARK                         _______ _______ _______ _____ _____    ______ ____
ROOT
ATOM      1  C   UNL     1     144.979 168.227 188.819  0.00  0.00    +0.001 C 
ATOM      2  C   UNL     1     145.876 167.527 187.804  0.00  0.00    -0.080 C 
ATOM      3  C   UNL     1     146.217 168.002 186.592  0.00  0.00    -0.059 C 
ATOM      4  C   UNL     1     147.035 167.374 185.492  0.00  0.00    +0.079 C 
ATOM      5  C   UNL     1     147.497 165.912 185.650  0.00  0.00    +0.004 C 
ATOM      6  C   UNL     1     148.646 165.644 186.648  0.00  0.00    +0.067 C 
ATOM      7  C   UNL     1     148.731 164.153 187.095  0.00  0.00    +0.020 C 
ATOM      8  C   UNL     1     148.924 163.146 185.913  0.00  0.00    +0.112 C 
ATOM      9  C   UNL     1     150.383 162.894 185.476  0.00  0.00    +0.006 C 
ATOM     10  C   UNL     1     151.047 161.767 186.222  0.00  0.00    -0.057 C 
ATOM     11  C   UNL     1     150.296 160.891 186.911  0.00  0.00    +0.022 C 
ATOM     12  C   UNL     1     148.824 160.930 186.923  0.00  0.00    +0.332 C 
ATOM     13  O   UNL     1     148.174 160.079 187.518  0.00  0.00    -0.246 OA
ATOM     14  O   UNL     1     148.236 161.896 186.181  0.00  0.00    -0.458 OA
ATOM     15  C   UNL     1     152.533 161.527 185.990  0.00  0.00    -0.004 C 
ATOM     16  C   UNL     1     153.551 161.416 187.164  0.00  0.00    +0.066 C 
ATOM     17  C   UNL     1     154.180 162.764 187.607  0.00  0.00    -0.005 C 
ATOM     18  C   UNL     1     153.556 163.541 188.753  0.00  0.00    -0.070 C 
ATOM     19  C   UNL     1     154.325 163.997 189.767  0.00  0.00    -0.062 C 
ATOM     20  C   UNL     1     153.855 164.777 190.893  0.00  0.00    -0.055 C 
ATOM     21  C   UNL     1     153.280 165.982 190.768  0.00  0.00    +0.023 C 
ATOM     22  C   UNL     1     152.687 166.624 191.951  0.00  0.00    +0.332 C 
ATOM     23  O   UNL     1     153.007 166.401 193.109  0.00  0.00    -0.246 OA
ATOM     24  O   UNL     1     151.679 167.423 191.530  0.00  0.00    -0.457 OA
ATOM     25  C   UNL     1     150.669 167.746 192.512  0.00  0.00    +0.114 C 
ATOM     26  C   UNL     1     150.343 169.273 192.499  0.00  0.00    +0.012 C 
ATOM     27  C   UNL     1     149.487 169.767 191.355  0.00  0.00    -0.079 C 
ATOM     28  C   UNL     1     148.284 170.351 191.537  0.00  0.00    -0.059 C 
ATOM     29  C   UNL     1     147.422 170.909 190.440  0.00  0.00    +0.079 C 
ATOM     30  C   UNL     1     146.876 169.887 189.424  0.00  0.00    +0.004 C 
ATOM     31  C   UNL     1     145.754 168.972 189.951  0.00  0.00    +0.067 C 
ATOM     32  H   UNL     1     144.403 167.417 189.295  0.00  0.00    +0.037 HD
ATOM     33  H   UNL     1     146.235 166.555 188.130  0.00  0.00    +0.057 HD
ATOM     34  H   UNL     1     145.857 168.989 186.312  0.00  0.00    +0.059 HD
ATOM     35  H   UNL     1     146.365 167.390 184.618  0.00  0.00    +0.064 HD
ATOM     36  H   UNL     1     147.831 165.584 184.661  0.00  0.00    +0.032 HD
ATOM     37  H   UNL     1     146.617 165.312 185.900  0.00  0.00    +0.032 HD
ATOM     38  H   UNL     1     148.495 166.258 187.543  0.00  0.00    +0.060 HD
ATOM     39  H   UNL     1     149.609 164.062 187.738  0.00  0.00    +0.036 HD
ATOM     40  H   UNL     1     148.407 163.543 185.034  0.00  0.00    +0.074 HD
ATOM     41  H   UNL     1     150.977 163.809 185.559  0.00  0.00    +0.035 HD
ATOM     42  H   UNL     1     150.382 162.616 184.413  0.00  0.00    +0.035 HD
ATOM     43  H   UNL     1     150.724 160.028 187.412  0.00  0.00    +0.069 HD
ATOM     44  H   UNL     1     152.912 162.256 185.258  0.00  0.00    +0.034 HD
ATOM     45  H   UNL     1     152.581 160.561 185.457  0.00  0.00    +0.034 HD
ATOM     46  H   UNL     1     154.380 160.835 186.731  0.00  0.00    +0.060 HD
ATOM     47  H   UNL     1     154.254 163.434 186.737  0.00  0.00    +0.034 HD
ATOM     48  H   UNL     1     155.220 162.540 187.881  0.00  0.00    +0.034 HD
ATOM     49  H   UNL     1     155.389 163.757 189.798  0.00  0.00    +0.062 HD
ATOM     50  H   UNL     1     153.981 164.321 191.875  0.00  0.00    +0.062 HD
ATOM     51  H   UNL     1     153.136 166.469 189.813  0.00  0.00    +0.069 HD
ATOM     52  H   UNL     1     151.081 167.580 193.514  0.00  0.00    +0.074 HD
ATOM     53  H   UNL     1     149.797 169.460 193.434  0.00  0.00    +0.038 HD
ATOM     54  H   UNL     1     149.891 169.660 190.348  0.00  0.00    +0.057 HD
ATOM     55  H   UNL     1     147.907 170.472 192.554  0.00  0.00    +0.059 HD
ATOM     56  H   UNL     1     148.023 171.646 189.887  0.00  0.00    +0.064 HD
ATOM     57  H   UNL     1     147.711 169.290 189.038  0.00  0.00    +0.032 HD
ATOM     58  H   UNL     1     146.473 170.472 188.586  0.00  0.00    +0.032 HD
ATOM     59  H   UNL     1     145.023 169.583 190.499  0.00  0.00    +0.060 HD
ENDROOT
BRANCH   1  60
ATOM     60  C   UNL     1     143.934 169.155 188.180  0.00  0.00    -0.057 C 
ATOM     61  H   UNL     1     144.134 170.197 188.446  0.00  0.00    +0.024 HD
ATOM     62  H   UNL     1     142.927 168.915 188.536  0.00  0.00    +0.024 HD
ATOM     63  H   UNL     1     143.929 169.091 187.088  0.00  0.00    +0.024 HD
ENDBRANCH   1  60
BRANCH  26  64
ATOM     64  C   UNL     1     151.638 170.097 192.553  0.00  0.00    -0.056 C 
ATOM     65  H   UNL     1     152.188 169.912 193.484  0.00  0.00    +0.024 HD
ATOM     66  H   UNL     1     151.426 171.167 192.492  0.00  0.00    +0.024 HD
ATOM     67  H   UNL     1     152.289 169.846 191.711  0.00  0.00    +0.024 HD
ENDBRANCH  26  64
BRANCH  18  68
ATOM     68  C   UNL     1     152.078 163.769 188.657  0.00  0.00    -0.043 C 
ATOM     69  H   UNL     1     151.794 164.001 187.628  0.00  0.00    +0.027 HD
ATOM     70  H   UNL     1     151.471 162.910 188.947  0.00  0.00    +0.027 HD
ATOM     71  H   UNL     1     151.810 164.596 189.315  0.00  0.00    +0.027 HD
ENDBRANCH  18  68
BRANCH   7  72
ATOM     72  C   UNL     1     147.531 163.809 187.987  0.00  0.00    -0.057 C 
ATOM     73  H   UNL     1     147.578 164.360 188.928  0.00  0.00    +0.023 HD
ATOM     74  H   UNL     1     146.577 164.041 187.505  0.00  0.00    +0.023 HD
ATOM     75  H   UNL     1     147.533 162.747 188.246  0.00  0.00    +0.023 HD
ENDBRANCH   7  72
BRANCH  25  76
ATOM     76  C   UNL     1     149.439 166.791 192.316  0.00  0.00    +0.020 C 
ATOM     77  H   UNL     1     148.565 167.435 192.167  0.00  0.00    +0.036 HD
BRANCH  76  78
ATOM     78  C   UNL     1     149.594 165.927 191.059  0.00  0.00    -0.057 C 
ATOM     79  H   UNL     1     148.887 166.200 190.272  0.00  0.00    +0.023 HD
ATOM     80  H   UNL     1     150.610 165.998 190.668  0.00  0.00    +0.023 HD
ATOM     81  H   UNL     1     149.435 164.868 191.267  0.00  0.00    +0.023 HD
ENDBRANCH  76  78
BRANCH  76  82
ATOM     82  C   UNL     1     149.181 165.978 193.635  0.00  0.00    +0.067 C 
ATOM     83  H   UNL     1     149.197 164.910 193.390  0.00  0.00    +0.060 HD
BRANCH  82  84
ATOM     84  C   UNL     1     147.852 166.170 194.428  0.00  0.00    -0.017 C 
ATOM     85  H   UNL     1     148.094 166.123 195.496  0.00  0.00    +0.032 HD
BRANCH  84  86
ATOM     86  C   UNL     1     147.327 167.598 194.191  0.00  0.00    -0.060 C 
ATOM     87  H   UNL     1     147.777 168.291 194.908  0.00  0.00    +0.023 HD
ATOM     88  H   UNL     1     146.240 167.649 194.330  0.00  0.00    +0.023 HD
ATOM     89  H   UNL     1     147.554 167.959 193.179  0.00  0.00    +0.023 HD
ENDBRANCH  84  86
BRANCH  84  90
ATOM     90  C   UNL     1     146.694 165.171 194.192  0.00  0.00    -0.041 C 
ATOM     91  H   UNL     1     146.846 164.310 194.857  0.00  0.00    +0.027 HD
ATOM     92  H   UNL     1     146.779 164.745 193.190  0.00  0.00    +0.027 HD
BRANCH  90  93
ATOM     93  C   UNL     1     145.271 165.690 194.383  0.00  0.00    +0.007 C 
ATOM     94  H   UNL     1     145.254 166.648 194.908  0.00  0.00    +0.034 HD
ATOM     95  H   UNL     1     144.682 164.978 194.975  0.00  0.00    +0.034 HD
BRANCH  93  96
ATOM     96  C   UNL     1     144.544 165.867 193.055  0.00  0.00    +0.139 C 
ATOM     97  O   UNL     1     144.885 165.192 192.078  0.00  0.00    -0.297 OA
BRANCH  96  98
ATOM     98  C   UNL     1     143.423 166.912 192.970  0.00  0.00    +0.041 C 
ATOM     99  H   UNL     1     143.889 167.856 193.260  0.00  0.00    +0.040 HD
BRANCH  98 100
ATOM    100  C   UNL     1     142.309 166.647 193.985  0.00  0.00    -0.053 C 
ATOM    101  H   UNL     1     142.201 165.582 194.214  0.00  0.00    +0.024 HD
ATOM    102  H   UNL     1     142.525 167.156 194.932  0.00  0.00    +0.024 HD
ATOM    103  H   UNL     1     141.347 167.033 193.626  0.00  0.00    +0.024 HD
ENDBRANCH  98 100
BRANCH  98 104
ATOM    104  C   UNL     1     142.901 167.098 191.524  0.00  0.00    +0.071 C 
ATOM    105  H   UNL     1     143.711 167.431 190.862  0.00  0.00    +0.061 HD
BRANCH 104 106
ATOM    106  C   UNL     1     142.235 165.860 190.875  0.00  0.00    -0.006 C 
ATOM    107  H   UNL     1     142.336 164.994 191.542  0.00  0.00    +0.033 HD
ATOM    108  H   UNL     1     141.154 166.045 190.830  0.00  0.00    +0.033 HD
BRANCH 106 109
ATOM    109  C   UNL     1     142.696 165.535 189.479  0.00  0.00    -0.067 C 
ATOM    110  C   UNL     1     143.109 164.313 189.114  0.00  0.00    -0.005 C 
ATOM    111  H   UNL     1     142.654 166.367 188.780  0.00  0.00    +0.059 HD
ATOM    112  H   UNL     1     143.081 163.511 189.849  0.00  0.00    +0.078 HD
BRANCH 110 113
ATOM    113  N   UNL     1     143.584 163.929 187.871  0.00  0.00    -0.284 N 
ATOM    114  C   UNL     1     143.806 164.786 186.794  0.00  0.00    +0.206 C 
ATOM    115  O   UNL     1     144.225 164.450 185.689  0.00  0.00    -0.279 OA
ATOM    116  H   UNL     1     143.584 165.839 187.003  0.00  0.00    +0.126 HD
BRANCH 113 117
ATOM    117  C   UNL     1     143.917 162.519 187.689  0.00  0.00    +0.007 C 
ATOM    118  H   UNL     1     143.721 162.252 186.644  0.00  0.00    +0.043 HD
ATOM    119  H   UNL     1     143.324 161.866 188.335  0.00  0.00    +0.043 HD
ATOM    120  H   UNL     1     144.979 162.362 187.915  0.00  0.00    +0.043 HD
ENDBRANCH 113 117
ENDBRANCH 110 113
ENDBRANCH 106 109
ENDBRANCH 104 106
BRANCH 104 121
ATOM    121  O   UNL     1     141.873 168.115 191.535  0.00  0.00    -0.379 OA
BRANCH 121 122
ATOM    122  C   UNL     1     142.392 169.443 191.563  0.00  0.00    +0.037 C 
ATOM    123  H   UNL     1     141.578 170.127 191.822  0.00  0.00    +0.052 HD
ATOM    124  H   UNL     1     143.177 169.538 192.315  0.00  0.00    +0.052 HD
ATOM    125  H   UNL     1     142.784 169.720 190.580  0.00  0.00    +0.052 HD
ENDBRANCH 121 122
ENDBRANCH 104 121
ENDBRANCH  98 104
ENDBRANCH  96  98
ENDBRANCH  93  96
ENDBRANCH  90  93
ENDBRANCH  84  90
ENDBRANCH  82  84
BRANCH  82 126
ATOM    126  O   UNL     1     150.281 166.222 194.535  0.00  0.00    -0.379 OA
BRANCH 126 127
ATOM    127  C   UNL     1     150.087 165.659 195.830  0.00  0.00    +0.037 C 
ATOM    128  H   UNL     1     149.126 165.136 195.877  0.00  0.00    +0.052 HD
ATOM    129  H   UNL     1     150.904 164.976 196.082  0.00  0.00    +0.052 HD
ATOM    130  H   UNL     1     150.074 166.474 196.562  0.00  0.00    +0.052 HD
ENDBRANCH 126 127
ENDBRANCH  82 126
ENDBRANCH  76  82
ENDBRANCH  25  76
BRANCH  31 131
ATOM    131  O   UNL     1     146.322 167.994 190.839  0.00  0.00    -0.379 OA
BRANCH 131 132
ATOM    132  C   UNL     1     146.581 166.757 190.180  0.00  0.00    +0.037 C 
ATOM    133  H   UNL     1     147.577 166.766 189.728  0.00  0.00    +0.052 HD
ATOM    134  H   UNL     1     146.535 165.953 190.921  0.00  0.00    +0.052 HD
ATOM    135  H   UNL     1     145.820 166.568 189.414  0.00  0.00    +0.052 HD
ENDBRANCH 131 132
ENDBRANCH  31 131
BRANCH  29 136
ATOM    136  O   UNL     1     146.310 171.565 191.075  0.00  0.00    -0.376 OA
BRANCH 136 137
ATOM    137  C   UNL     1     145.480 172.267 190.159  0.00  0.00    +0.037 C 
ATOM    138  H   UNL     1     145.673 173.345 190.215  0.00  0.00    +0.052 HD
ATOM    139  H   UNL     1     145.721 171.922 189.148  0.00  0.00    +0.052 HD
ATOM    140  H   UNL     1     144.426 172.057 190.356  0.00  0.00    +0.052 HD
ENDBRANCH 136 137
ENDBRANCH  29 136
BRANCH  16 141
ATOM    141  O   UNL     1     153.008 160.644 188.237  0.00  0.00    -0.379 OA
BRANCH 141 142
ATOM    142  C   UNL     1     153.975 159.880 188.945  0.00  0.00    +0.037 C 
ATOM    143  H   UNL     1     154.262 159.031 188.315  0.00  0.00    +0.052 HD
ATOM    144  H   UNL     1     153.573 159.493 189.887  0.00  0.00    +0.052 HD
ATOM    145  H   UNL     1     154.868 160.488 189.136  0.00  0.00    +0.052 HD
ENDBRANCH 141 142
ENDBRANCH  16 141
BRANCH   6 146
ATOM    146  O   UNL     1     149.890 165.993 186.027  0.00  0.00    -0.379 OA
BRANCH 146 147
ATOM    147  C   UNL     1     150.755 166.711 186.903  0.00  0.00    +0.037 C 
ATOM    148  H   UNL     1     150.333 167.698 187.119  0.00  0.00    +0.052 HD
ATOM    149  H   UNL     1     151.753 166.826 186.466  0.00  0.00    +0.052 HD
ATOM    150  H   UNL     1     150.846 166.152 187.839  0.00  0.00    +0.052 HD
ENDBRANCH 146 147
ENDBRANCH   6 146
BRANCH   4 151
ATOM    151  O   UNL     1     148.116 168.279 185.253  0.00  0.00    -0.376 OA
BRANCH 151 152
ATOM    152  C   UNL     1     147.707 169.641 185.183  0.00  0.00    +0.037 C 
ATOM    153  H   UNL     1     148.552 170.285 184.920  0.00  0.00    +0.052 HD
ATOM    154  H   UNL     1     146.955 169.727 184.399  0.00  0.00    +0.052 HD
ATOM    155  H   UNL     1     147.268 169.967 186.130  0.00  0.00    +0.052 HD
ENDBRANCH 151 152
ENDBRANCH   4 151
TORSDOF 33
ENDMDL
MODEL 3
REMARK VINA RESULT:      -5.2      5.805     10.856
REMARK  Name = Reidispongiolide A_conf3
REMARK  33 active torsions:
REMARK  status: ('A' for Active; 'I' for Inactive)
REMARK    1  A    between atoms: C_1  and  C_2
REMARK    2  A    between atoms: C_5  and  O_67
REMARK    3  A    between atoms: C_7  and  O_65
REMARK    4  A    between atoms: C_8  and  C_64
REMARK    5  A    between atoms: C_17  and  O_62
REMARK    6  A    between atoms: C_19  and  C_61
REMARK    7  A    between atoms: C_26  and  C_38
REMARK    8  A    between atoms: C_27  and  C_37
REMARK    9  A    between atoms: C_30  and  O_35
REMARK   10  A    between atoms: C_32  and  O_33
REMARK   11  A    between atoms: O_33  and  C_34
REMARK   12  A    between atoms: O_35  and  C_36
REMARK   13  A    between atoms: C_38  and  C_39
REMARK   14  A    between atoms: C_38  and  C_40
REMARK   15  A    between atoms: C_40  and  C_41
REMARK   16  A    between atoms: C_40  and  O_59
REMARK   17  A    between atoms: C_41  and  C_42
REMARK   18  A    between atoms: C_41  and  C_43
REMARK   19  A    between atoms: C_43  and  C_44
REMARK   20  A    between atoms: C_44  and  C_45
REMARK   21  A    between atoms: C_45  and  C_47
REMARK   22  A    between atoms: C_47  and  C_48
REMARK   23  A    between atoms: C_47  and  C_49
REMARK   24  A    between atoms: C_49  and  C_50
REMARK   25  A    between atoms: C_49  and  O_57
REMARK   26  A    between atoms: C_50  and  C_51
REMARK   27  A    between atoms: C_52  and  N_53
REMARK   28  A    between atoms: N_53  and  C_54
REMARK   29  A    between atoms: O_57  and  C_58
REMARK   30  A    between atoms: O_59  and  C_60
REMARK   31  A    between atoms: O_62  and  C_63
REMARK   32  A    between atoms: O_65  and  C_66
REMARK   33  A    between atoms: O_67  and  C_68
REMARK                            x       y       z     vdW  Elec       q    Type
REMARK                         _______ _______ _______ _____ _____    ______ ____
ROOT
ATOM      1  C   UNL     1     151.754 156.797 187.996  0.00  0.00    +0.001 C 
ATOM      2  C   UNL     1     153.241 156.538 188.207  0.00  0.00    -0.080 C 
ATOM      3  C   UNL     1     153.969 155.582 187.602  0.00  0.00    -0.059 C 
ATOM      4  C   UNL     1     155.416 155.197 187.781  0.00  0.00    +0.079 C 
ATOM      5  C   UNL     1     156.236 155.879 188.893  0.00  0.00    +0.004 C 
ATOM      6  C   UNL     1     156.664 157.344 188.650  0.00  0.00    +0.067 C 
ATOM      7  C   UNL     1     157.056 158.091 189.962  0.00  0.00    +0.020 C 
ATOM      8  C   UNL     1     158.222 157.413 190.754  0.00  0.00    +0.112 C 
ATOM      9  C   UNL     1     159.650 157.818 190.327  0.00  0.00    +0.006 C 
ATOM     10  C   UNL     1     160.176 159.021 191.064  0.00  0.00    -0.057 C 
ATOM     11  C   UNL     1     159.575 159.425 192.196  0.00  0.00    +0.022 C 
ATOM     12  C   UNL     1     158.449 158.701 192.809  0.00  0.00    +0.332 C 
ATOM     13  O   UNL     1     157.966 159.069 193.873  0.00  0.00    -0.246 OA
ATOM     14  O   UNL     1     158.038 157.574 192.184  0.00  0.00    -0.458 OA
ATOM     15  C   UNL     1     161.508 159.611 190.620  0.00  0.00    -0.004 C 
ATOM     16  C   UNL     1     161.682 161.126 190.298  0.00  0.00    +0.066 C 
ATOM     17  C   UNL     1     161.401 161.512 188.821  0.00  0.00    -0.005 C 
ATOM     18  C   UNL     1     160.018 161.999 188.425  0.00  0.00    -0.070 C 
ATOM     19  C   UNL     1     159.874 163.131 187.700  0.00  0.00    -0.062 C 
ATOM     20  C   UNL     1     158.616 163.676 187.233  0.00  0.00    -0.055 C 
ATOM     21  C   UNL     1     157.791 163.021 186.401  0.00  0.00    +0.023 C 
ATOM     22  C   UNL     1     156.464 163.584 186.113  0.00  0.00    +0.332 C 
ATOM     23  O   UNL     1     156.165 164.767 186.199  0.00  0.00    -0.246 OA
ATOM     24  O   UNL     1     155.629 162.557 185.830  0.00  0.00    -0.457 OA
ATOM     25  C   UNL     1     154.218 162.816 186.008  0.00  0.00    +0.114 C 
ATOM     26  C   UNL     1     153.397 162.308 184.780  0.00  0.00    +0.012 C 
ATOM     27  C   UNL     1     153.182 160.814 184.687  0.00  0.00    -0.079 C 
ATOM     28  C   UNL     1     151.958 160.247 184.697  0.00  0.00    -0.059 C 
ATOM     29  C   UNL     1     151.689 158.775 184.550  0.00  0.00    +0.079 C 
ATOM     30  C   UNL     1     152.218 157.875 185.685  0.00  0.00    +0.004 C 
ATOM     31  C   UNL     1     151.440 157.968 187.012  0.00  0.00    +0.067 C 
ATOM     32  H   UNL     1     151.374 157.093 188.987  0.00  0.00    +0.037 HD
ATOM     33  H   UNL     1     153.706 157.204 188.928  0.00  0.00    +0.057 HD
ATOM     34  H   UNL     1     153.474 154.951 186.868  0.00  0.00    +0.059 HD
ATOM     35  H   UNL     1     155.378 154.127 188.040  0.00  0.00    +0.064 HD
ATOM     36  H   UNL     1     157.146 155.283 189.018  0.00  0.00    +0.032 HD
ATOM     37  H   UNL     1     155.671 155.788 189.824  0.00  0.00    +0.032 HD
ATOM     38  H   UNL     1     155.833 157.889 188.186  0.00  0.00    +0.060 HD
ATOM     39  H   UNL     1     157.403 159.085 189.671  0.00  0.00    +0.036 HD
ATOM     40  H   UNL     1     158.156 156.330 190.604  0.00  0.00    +0.074 HD
ATOM     41  H   UNL     1     159.701 157.980 189.246  0.00  0.00    +0.035 HD
ATOM     42  H   UNL     1     160.327 156.984 190.553  0.00  0.00    +0.035 HD
ATOM     43  H   UNL     1     159.956 160.248 192.794  0.00  0.00    +0.069 HD
ATOM     44  H   UNL     1     161.909 159.021 189.781  0.00  0.00    +0.034 HD
ATOM     45  H   UNL     1     162.201 159.399 191.453  0.00  0.00    +0.034 HD
ATOM     46  H   UNL     1     162.760 161.298 190.444  0.00  0.00    +0.060 HD
ATOM     47  H   UNL     1     161.669 160.669 188.167  0.00  0.00    +0.034 HD
ATOM     48  H   UNL     1     162.119 162.304 188.571  0.00  0.00    +0.034 HD
ATOM     49  H   UNL     1     160.747 163.734 187.448  0.00  0.00    +0.062 HD
ATOM     50  H   UNL     1     158.355 164.665 187.609  0.00  0.00    +0.062 HD
ATOM     51  H   UNL     1     158.012 162.040 186.006  0.00  0.00    +0.069 HD
ATOM     52  H   UNL     1     154.050 163.899 185.998  0.00  0.00    +0.074 HD
ATOM     53  H   UNL     1     152.411 162.785 184.874  0.00  0.00    +0.038 HD
ATOM     54  H   UNL     1     154.069 160.189 184.582  0.00  0.00    +0.057 HD
ATOM     55  H   UNL     1     151.080 160.890 184.778  0.00  0.00    +0.059 HD
ATOM     56  H   UNL     1     152.158 158.443 183.611  0.00  0.00    +0.064 HD
ATOM     57  H   UNL     1     153.281 158.093 185.844  0.00  0.00    +0.032 HD
ATOM     58  H   UNL     1     152.143 156.844 185.318  0.00  0.00    +0.032 HD
ATOM     59  H   UNL     1     150.363 157.934 186.798  0.00  0.00    +0.060 HD
ENDROOT
BRANCH   1  60
ATOM     60  C   UNL     1     150.960 155.540 187.609  0.00  0.00    -0.057 C 
ATOM     61  H   UNL     1     150.395 155.164 188.468  0.00  0.00    +0.024 HD
ATOM     62  H   UNL     1     151.630 154.738 187.283  0.00  0.00    +0.024 HD
ATOM     63  H   UNL     1     150.244 155.728 186.804  0.00  0.00    +0.024 HD
ENDBRANCH   1  60
BRANCH  26  64
ATOM     64  C   UNL     1     154.025 162.810 183.472  0.00  0.00    -0.056 C 
ATOM     65  H   UNL     1     153.839 163.882 183.327  0.00  0.00    +0.024 HD
ATOM     66  H   UNL     1     153.617 162.277 182.610  0.00  0.00    +0.024 HD
ATOM     67  H   UNL     1     155.105 162.644 183.476  0.00  0.00    +0.024 HD
ENDBRANCH  26  64
BRANCH  18  68
ATOM     68  C   UNL     1     158.873 161.139 188.869  0.00  0.00    -0.043 C 
ATOM     69  H   UNL     1     158.215 161.695 189.540  0.00  0.00    +0.027 HD
ATOM     70  H   UNL     1     158.237 160.784 188.057  0.00  0.00    +0.027 HD
ATOM     71  H   UNL     1     159.274 160.262 189.378  0.00  0.00    +0.027 HD
ENDBRANCH  18  68
BRANCH   7  72
ATOM     72  C   UNL     1     155.805 158.326 190.819  0.00  0.00    -0.057 C 
ATOM     73  H   UNL     1     155.630 159.394 190.963  0.00  0.00    +0.023 HD
ATOM     74  H   UNL     1     154.908 157.891 190.370  0.00  0.00    +0.023 HD
ATOM     75  H   UNL     1     155.932 157.893 191.815  0.00  0.00    +0.023 HD
ENDBRANCH   7  72
BRANCH  25  76
ATOM     76  C   UNL     1     153.765 162.255 187.401  0.00  0.00    +0.020 C 
ATOM     77  H   UNL     1     152.829 161.710 187.230  0.00  0.00    +0.036 HD
BRANCH  76  78
ATOM     78  C   UNL     1     154.783 161.255 187.962  0.00  0.00    -0.057 C 
ATOM     79  H   UNL     1     155.045 161.460 189.002  0.00  0.00    +0.023 HD
ATOM     80  H   UNL     1     154.402 160.235 187.884  0.00  0.00    +0.023 HD
ATOM     81  H   UNL     1     155.717 161.260 187.398  0.00  0.00    +0.023 HD
ENDBRANCH  76  78
BRANCH  76  82
ATOM     82  C   UNL     1     153.424 163.445 188.369  0.00  0.00    +0.067 C 
ATOM     83  H   UNL     1     153.644 164.384 187.850  0.00  0.00    +0.060 HD
BRANCH  82  84
ATOM     84  C   UNL     1     154.160 163.579 189.736  0.00  0.00    -0.017 C 
ATOM     85  H   UNL     1     154.239 162.576 190.170  0.00  0.00    +0.032 HD
BRANCH  84  86
ATOM     86  C   UNL     1     155.611 164.030 189.484  0.00  0.00    -0.060 C 
ATOM     87  H   UNL     1     156.012 164.532 190.370  0.00  0.00    +0.023 HD
ATOM     88  H   UNL     1     155.666 164.744 188.654  0.00  0.00    +0.023 HD
ATOM     89  H   UNL     1     156.270 163.184 189.245  0.00  0.00    +0.023 HD
ENDBRANCH  84  86
BRANCH  84  90
ATOM     90  C   UNL     1     153.544 164.486 190.828  0.00  0.00    -0.041 C 
ATOM     91  H   UNL     1     153.891 164.125 191.806  0.00  0.00    +0.027 HD
ATOM     92  H   UNL     1     152.463 164.331 190.862  0.00  0.00    +0.027 HD
BRANCH  90  93
ATOM     93  C   UNL     1     153.820 165.985 190.734  0.00  0.00    +0.007 C 
ATOM     94  H   UNL     1     154.649 166.203 190.057  0.00  0.00    +0.034 HD
ATOM     95  H   UNL     1     154.082 166.386 191.721  0.00  0.00    +0.034 HD
BRANCH  93  96
ATOM     96  C   UNL     1     152.600 166.762 190.252  0.00  0.00    +0.139 C 
ATOM     97  O   UNL     1     152.730 167.616 189.369  0.00  0.00    -0.297 OA
BRANCH  96  98
ATOM     98  C   UNL     1     151.245 166.475 190.912  0.00  0.00    +0.041 C 
ATOM     99  H   UNL     1     151.239 165.400 191.099  0.00  0.00    +0.040 HD
BRANCH  98 100
ATOM    100  C   UNL     1     150.073 166.759 189.969  0.00  0.00    -0.053 C 
ATOM    101  H   UNL     1     149.154 167.003 190.511  0.00  0.00    +0.024 HD
ATOM    102  H   UNL     1     150.299 167.615 189.323  0.00  0.00    +0.024 HD
ATOM    103  H   UNL     1     149.881 165.904 189.310  0.00  0.00    +0.024 HD
ENDBRANCH  98 100
BRANCH  98 104
ATOM    104  C   UNL     1     151.102 167.169 192.289  0.00  0.00    +0.071 C 
ATOM    105  H   UNL     1     150.069 167.501 192.448  0.00  0.00    +0.061 HD
BRANCH 104 106
ATOM    106  C   UNL     1     151.528 166.332 193.521  0.00  0.00    -0.006 C 
ATOM    107  H   UNL     1     152.155 165.492 193.197  0.00  0.00    +0.033 HD
ATOM    108  H   UNL     1     152.196 166.951 194.133  0.00  0.00    +0.033 HD
BRANCH 106 109
ATOM    109  C   UNL     1     150.402 165.868 194.408  0.00  0.00    -0.067 C 
ATOM    110  C   UNL     1     149.119 166.176 194.177  0.00  0.00    -0.005 C 
ATOM    111  H   UNL     1     150.710 165.249 195.247  0.00  0.00    +0.059 HD
ATOM    112  H   UNL     1     148.872 166.760 193.292  0.00  0.00    +0.078 HD
BRANCH 110 113
ATOM    113  N   UNL     1     148.024 165.830 194.952  0.00  0.00    -0.284 N 
ATOM    114  C   UNL     1     146.815 165.336 194.463  0.00  0.00    +0.206 C 
ATOM    115  O   UNL     1     145.841 165.030 195.145  0.00  0.00    -0.279 OA
ATOM    116  H   UNL     1     146.785 165.220 193.373  0.00  0.00    +0.126 HD
BRANCH 113 117
ATOM    117  C   UNL     1     148.165 165.953 196.400  0.00  0.00    +0.007 C 
ATOM    118  H   UNL     1     147.753 166.924 196.703  0.00  0.00    +0.043 HD
ATOM    119  H   UNL     1     149.208 165.900 196.721  0.00  0.00    +0.043 HD
ATOM    120  H   UNL     1     147.607 165.148 196.891  0.00  0.00    +0.043 HD
ENDBRANCH 113 117
ENDBRANCH 110 113
ENDBRANCH 106 109
ENDBRANCH 104 106
BRANCH 104 121
ATOM    121  O   UNL     1     151.964 168.331 192.309  0.00  0.00    -0.379 OA
BRANCH 121 122
ATOM    122  C   UNL     1     151.251 169.564 192.246  0.00  0.00    +0.037 C 
ATOM    123  H   UNL     1     150.938 169.730 191.210  0.00  0.00    +0.052 HD
ATOM    124  H   UNL     1     150.361 169.532 192.876  0.00  0.00    +0.052 HD
ATOM    125  H   UNL     1     151.895 170.393 192.554  0.00  0.00    +0.052 HD
ENDBRANCH 121 122
ENDBRANCH 104 121
ENDBRANCH  98 104
ENDBRANCH  96  98
ENDBRANCH  93  96
ENDBRANCH  90  93
ENDBRANCH  84  90
ENDBRANCH  82  84
BRANCH  82 126
ATOM    126  O   UNL     1     152.004 163.424 188.621  0.00  0.00    -0.379 OA
BRANCH 126 127
ATOM    127  C   UNL     1     151.249 164.156 187.659  0.00  0.00    +0.037 C 
ATOM    128  H   UNL     1     151.323 163.680 186.676  0.00  0.00    +0.052 HD
ATOM    129  H   UNL     1     150.201 164.233 187.966  0.00  0.00    +0.052 HD
ATOM    130  H   UNL     1     151.667 165.166 187.587  0.00  0.00    +0.052 HD
ENDBRANCH 126 127
ENDBRANCH  82 126
ENDBRANCH  76  82
ENDBRANCH  25  76
BRANCH  31 131
ATOM    131  O   UNL     1     151.762 159.211 187.660  0.00  0.00    -0.379 OA
BRANCH 131 132
ATOM    132  C   UNL     1     150.620 159.813 188.264  0.00  0.00    +0.037 C 
ATOM    133  H   UNL     1     150.783 160.885 188.405  0.00  0.00    +0.052 HD
ATOM    134  H   UNL     1     149.762 159.669 187.602  0.00  0.00    +0.052 HD
ATOM    135  H   UNL     1     150.403 159.334 189.227  0.00  0.00    +0.052 HD
ENDBRANCH 131 132
ENDBRANCH  31 131
BRANCH  29 136
ATOM    136  O   UNL     1     150.262 158.617 184.466  0.00  0.00    -0.376 OA
BRANCH 136 137
ATOM    137  C   UNL     1     149.566 159.855 184.407  0.00  0.00    +0.037 C 
ATOM    138  H   UNL     1     149.123 160.000 183.416  0.00  0.00    +0.052 HD
ATOM    139  H   UNL     1     148.760 159.827 185.149  0.00  0.00    +0.052 HD
ATOM    140  H   UNL     1     150.235 160.684 184.653  0.00  0.00    +0.052 HD
ENDBRANCH 136 137
ENDBRANCH  29 136
BRANCH  16 141
ATOM    141  O   UNL     1     160.990 161.932 191.255  0.00  0.00    -0.379 OA
BRANCH 141 142
ATOM    142  C   UNL     1     161.737 163.050 191.714  0.00  0.00    +0.037 C 
ATOM    143  H   UNL     1     162.187 163.538 190.842  0.00  0.00    +0.052 HD
ATOM    144  H   UNL     1     162.540 162.748 192.394  0.00  0.00    +0.052 HD
ATOM    145  H   UNL     1     161.073 163.770 192.208  0.00  0.00    +0.052 HD
ENDBRANCH 141 142
ENDBRANCH  16 141
BRANCH   6 146
ATOM    146  O   UNL     1     157.799 157.358 187.775  0.00  0.00    -0.379 OA
BRANCH 146 147
ATOM    147  C   UNL     1     157.698 158.359 186.766  0.00  0.00    +0.037 C 
ATOM    148  H   UNL     1     156.682 158.383 186.361  0.00  0.00    +0.052 HD
ATOM    149  H   UNL     1     158.413 158.176 185.956  0.00  0.00    +0.052 HD
ATOM    150  H   UNL     1     157.923 159.331 187.216  0.00  0.00    +0.052 HD
ENDBRANCH 146 147
ENDBRANCH   6 146
BRANCH   4 151
ATOM    151  O   UNL     1     156.011 155.329 186.487  0.00  0.00    -0.376 OA
BRANCH 151 152
ATOM    152  C   UNL     1     155.123 155.005 185.421  0.00  0.00    +0.037 C 
ATOM    153  H   UNL     1     155.461 154.105 184.898  0.00  0.00    +0.052 HD
ATOM    154  H   UNL     1     154.142 154.803 185.851  0.00  0.00    +0.052 HD
ATOM    155  H   UNL     1     155.036 155.836 184.718  0.00  0.00    +0.052 HD
ENDBRANCH 151 152
ENDBRANCH   4 151
TORSDOF 33
ENDMDL
MODEL 4
REMARK VINA RESULT:      -5.2      6.703     11.654
REMARK  Name = Reidispongiolide A_conf3
REMARK  33 active torsions:
REMARK  status: ('A' for Active; 'I' for Inactive)
REMARK    1  A    between atoms: C_1  and  C_2
REMARK    2  A    between atoms: C_5  and  O_67
REMARK    3  A    between atoms: C_7  and  O_65
REMARK    4  A    between atoms: C_8  and  C_64
REMARK    5  A    between atoms: C_17  and  O_62
REMARK    6  A    between atoms: C_19  and  C_61
REMARK    7  A    between atoms: C_26  and  C_38
REMARK    8  A    between atoms: C_27  and  C_37
REMARK    9  A    between atoms: C_30  and  O_35
REMARK   10  A    between atoms: C_32  and  O_33
REMARK   11  A    between atoms: O_33  and  C_34
REMARK   12  A    between atoms: O_35  and  C_36
REMARK   13  A    between atoms: C_38  and  C_39
REMARK   14  A    between atoms: C_38  and  C_40
REMARK   15  A    between atoms: C_40  and  C_41
REMARK   16  A    between atoms: C_40  and  O_59
REMARK   17  A    between atoms: C_41  and  C_42
REMARK   18  A    between atoms: C_41  and  C_43
REMARK   19  A    between atoms: C_43  and  C_44
REMARK   20  A    between atoms: C_44  and  C_45
REMARK   21  A    between atoms: C_45  and  C_47
REMARK   22  A    between atoms: C_47  and  C_48
REMARK   23  A    between atoms: C_47  and  C_49
REMARK   24  A    between atoms: C_49  and  C_50
REMARK   25  A    between atoms: C_49  and  O_57
REMARK   26  A    between atoms: C_50  and  C_51
REMARK   27  A    between atoms: C_52  and  N_53
REMARK   28  A    between atoms: N_53  and  C_54
REMARK   29  A    between atoms: O_57  and  C_58
REMARK   30  A    between atoms: O_59  and  C_60
REMARK   31  A    between atoms: O_62  and  C_63
REMARK   32  A    between atoms: O_65  and  C_66
REMARK   33  A    between atoms: O_67  and  C_68
REMARK                            x       y       z     vdW  Elec       q    Type
REMARK                         _______ _______ _______ _____ _____    ______ ____
ROOT
ATOM      1  C   UNL     1     153.113 166.928 188.487  0.00  0.00    +0.001 C 
ATOM      2  C   UNL     1     152.163 166.163 187.572  0.00  0.00    -0.080 C 
ATOM      3  C   UNL     1     152.311 164.888 187.168  0.00  0.00    -0.059 C 
ATOM      4  C   UNL     1     151.478 164.060 186.223  0.00  0.00    +0.079 C 
ATOM      5  C   UNL     1     150.318 164.737 185.466  0.00  0.00    +0.004 C 
ATOM      6  C   UNL     1     149.049 165.070 186.282  0.00  0.00    +0.067 C 
ATOM      7  C   UNL     1     148.146 166.140 185.596  0.00  0.00    +0.020 C 
ATOM      8  C   UNL     1     147.662 165.739 184.164  0.00  0.00    +0.112 C 
ATOM      9  C   UNL     1     146.370 164.895 184.103  0.00  0.00    +0.006 C 
ATOM     10  C   UNL     1     145.115 165.724 184.028  0.00  0.00    -0.057 C 
ATOM     11  C   UNL     1     145.193 167.023 183.692  0.00  0.00    +0.022 C 
ATOM     12  C   UNL     1     146.457 167.680 183.316  0.00  0.00    +0.332 C 
ATOM     13  O   UNL     1     146.477 168.852 182.960  0.00  0.00    -0.246 OA
ATOM     14  O   UNL     1     147.565 166.905 183.305  0.00  0.00    -0.458 OA
ATOM     15  C   UNL     1     143.774 165.009 184.122  0.00  0.00    -0.004 C 
ATOM     16  C   UNL     1     142.666 165.445 185.128  0.00  0.00    +0.066 C 
ATOM     17  C   UNL     1     142.749 164.763 186.520  0.00  0.00    -0.005 C 
ATOM     18  C   UNL     1     143.486 165.457 187.652  0.00  0.00    -0.070 C 
ATOM     19  C   UNL     1     142.904 165.592 188.865  0.00  0.00    -0.062 C 
ATOM     20  C   UNL     1     143.517 166.201 190.027  0.00  0.00    -0.055 C 
ATOM     21  C   UNL     1     144.637 165.735 190.601  0.00  0.00    +0.023 C 
ATOM     22  C   UNL     1     145.273 166.512 191.675  0.00  0.00    +0.332 C 
ATOM     23  O   UNL     1     144.702 167.315 192.398  0.00  0.00    -0.246 OA
ATOM     24  O   UNL     1     146.600 166.246 191.650  0.00  0.00    -0.457 OA
ATOM     25  C   UNL     1     147.460 167.239 192.254  0.00  0.00    +0.114 C 
ATOM     26  C   UNL     1     148.515 166.570 193.192  0.00  0.00    +0.012 C 
ATOM     27  C   UNL     1     149.675 165.879 192.512  0.00  0.00    -0.079 C 
ATOM     28  C   UNL     1     150.959 166.248 192.697  0.00  0.00    -0.059 C 
ATOM     29  C   UNL     1     152.149 165.558 192.091  0.00  0.00    +0.079 C 
ATOM     30  C   UNL     1     152.255 165.619 190.554  0.00  0.00    +0.004 C 
ATOM     31  C   UNL     1     152.654 166.992 189.977  0.00  0.00    +0.067 C 
ATOM     32  H   UNL     1     153.111 167.959 188.099  0.00  0.00    +0.037 HD
ATOM     33  H   UNL     1     151.312 166.747 187.235  0.00  0.00    +0.057 HD
ATOM     34  H   UNL     1     153.163 164.328 187.548  0.00  0.00    +0.059 HD
ATOM     35  H   UNL     1     152.194 163.730 185.454  0.00  0.00    +0.064 HD
ATOM     36  H   UNL     1     150.029 164.049 184.664  0.00  0.00    +0.032 HD
ATOM     37  H   UNL     1     150.716 165.633 184.982  0.00  0.00    +0.032 HD
ATOM     38  H   UNL     1     149.344 165.455 187.265  0.00  0.00    +0.060 HD
ATOM     39  H   UNL     1     147.254 166.250 186.216  0.00  0.00    +0.036 HD
ATOM     40  H   UNL     1     148.443 165.134 183.693  0.00  0.00    +0.074 HD
ATOM     41  H   UNL     1     146.320 164.201 184.946  0.00  0.00    +0.035 HD
ATOM     42  H   UNL     1     146.402 164.281 183.192  0.00  0.00    +0.035 HD
ATOM     43  H   UNL     1     144.311 167.644 183.565  0.00  0.00    +0.069 HD
ATOM     44  H   UNL     1     143.942 163.926 184.227  0.00  0.00    +0.034 HD
ATOM     45  H   UNL     1     143.328 165.115 183.118  0.00  0.00    +0.034 HD
ATOM     46  H   UNL     1     141.740 165.065 184.671  0.00  0.00    +0.060 HD
ATOM     47  H   UNL     1     143.167 163.752 186.405  0.00  0.00    +0.034 HD
ATOM     48  H   UNL     1     141.711 164.605 186.844  0.00  0.00    +0.034 HD
ATOM     49  H   UNL     1     141.878 165.257 189.019  0.00  0.00    +0.062 HD
ATOM     50  H   UNL     1     143.020 167.088 190.419  0.00  0.00    +0.062 HD
ATOM     51  H   UNL     1     145.160 164.859 190.243  0.00  0.00    +0.069 HD
ATOM     52  H   UNL     1     146.865 167.857 192.937  0.00  0.00    +0.074 HD
ATOM     53  H   UNL     1     148.920 167.389 193.802  0.00  0.00    +0.038 HD
ATOM     54  H   UNL     1     149.441 165.030 191.869  0.00  0.00    +0.057 HD
ATOM     55  H   UNL     1     151.176 167.084 193.364  0.00  0.00    +0.059 HD
ATOM     56  H   UNL     1     152.105 164.499 192.384  0.00  0.00    +0.064 HD
ATOM     57  H   UNL     1     151.308 165.279 190.120  0.00  0.00    +0.032 HD
ATOM     58  H   UNL     1     153.029 164.893 190.271  0.00  0.00    +0.032 HD
ATOM     59  H   UNL     1     153.495 167.393 190.561  0.00  0.00    +0.060 HD
ENDROOT
BRANCH   1  60
ATOM     60  C   UNL     1     154.572 166.454 188.392  0.00  0.00    -0.057 C 
ATOM     61  H   UNL     1     155.174 166.909 189.185  0.00  0.00    +0.024 HD
ATOM     62  H   UNL     1     155.017 166.747 187.436  0.00  0.00    +0.024 HD
ATOM     63  H   UNL     1     154.667 165.370 188.490  0.00  0.00    +0.024 HD
ENDBRANCH   1  60
BRANCH  26  64
ATOM     64  C   UNL     1     147.830 165.584 194.149  0.00  0.00    -0.056 C 
ATOM     65  H   UNL     1     146.948 165.126 193.683  0.00  0.00    +0.024 HD
ATOM     66  H   UNL     1     147.507 166.085 195.065  0.00  0.00    +0.024 HD
ATOM     67  H   UNL     1     148.520 164.788 194.440  0.00  0.00    +0.024 HD
ENDBRANCH  26  64
BRANCH  18  68
ATOM     68  C   UNL     1     144.868 165.940 187.329  0.00  0.00    -0.043 C 
ATOM     69  H   UNL     1     145.281 166.504 188.167  0.00  0.00    +0.027 HD
ATOM     70  H   UNL     1     145.585 165.144 187.124  0.00  0.00    +0.027 HD
ATOM     71  H   UNL     1     144.817 166.571 186.441  0.00  0.00    +0.027 HD
ENDBRANCH  18  68
BRANCH   7  72
ATOM     72  C   UNL     1     148.843 167.507 185.633  0.00  0.00    -0.057 C 
ATOM     73  H   UNL     1     149.927 167.389 185.628  0.00  0.00    +0.023 HD
ATOM     74  H   UNL     1     148.565 168.138 184.784  0.00  0.00    +0.023 HD
ATOM     75  H   UNL     1     148.592 168.044 186.552  0.00  0.00    +0.023 HD
ENDBRANCH   7  72
BRANCH  25  76
ATOM     76  C   UNL     1     148.046 168.163 191.130  0.00  0.00    +0.020 C 
ATOM     77  H   UNL     1     149.052 168.452 191.456  0.00  0.00    +0.036 HD
BRANCH  76  78
ATOM     78  C   UNL     1     148.193 167.409 189.803  0.00  0.00    -0.057 C 
ATOM     79  H   UNL     1     148.208 166.324 189.935  0.00  0.00    +0.023 HD
ATOM     80  H   UNL     1     147.385 167.674 189.119  0.00  0.00    +0.023 HD
ATOM     81  H   UNL     1     149.114 167.672 189.281  0.00  0.00    +0.023 HD
ENDBRANCH  76  78
BRANCH  76  82
ATOM     82  C   UNL     1     147.204 169.486 191.035  0.00  0.00    +0.067 C 
ATOM     83  H   UNL     1     146.589 169.568 191.937  0.00  0.00    +0.060 HD
BRANCH  82  84
ATOM     84  C   UNL     1     146.196 169.691 189.863  0.00  0.00    -0.017 C 
ATOM     85  H   UNL     1     145.950 168.702 189.461  0.00  0.00    +0.032 HD
BRANCH  84  86
ATOM     86  C   UNL     1     144.874 170.243 190.428  0.00  0.00    -0.060 C 
ATOM     87  H   UNL     1     145.060 171.150 191.012  0.00  0.00    +0.023 HD
ATOM     88  H   UNL     1     144.396 169.519 191.098  0.00  0.00    +0.023 HD
ATOM     89  H   UNL     1     144.158 170.491 189.633  0.00  0.00    +0.023 HD
ENDBRANCH  84  86
BRANCH  84  90
ATOM     90  C   UNL     1     146.623 170.564 188.659  0.00  0.00    -0.041 C 
ATOM     91  H   UNL     1     146.537 169.954 187.749  0.00  0.00    +0.027 HD
ATOM     92  H   UNL     1     147.691 170.782 188.727  0.00  0.00    +0.027 HD
BRANCH  90  93
ATOM     93  C   UNL     1     145.870 171.874 188.440  0.00  0.00    +0.007 C 
ATOM     94  H   UNL     1     146.259 172.676 189.072  0.00  0.00    +0.034 HD
ATOM     95  H   UNL     1     144.807 171.747 188.682  0.00  0.00    +0.034 HD
BRANCH  93  96
ATOM     96  C   UNL     1     145.941 172.340 186.991  0.00  0.00    +0.139 C 
ATOM     97  O   UNL     1     145.916 173.549 186.736  0.00  0.00    -0.297 OA
BRANCH  96  98
ATOM     98  C   UNL     1     146.008 171.278 185.885  0.00  0.00    +0.041 C 
ATOM     99  H   UNL     1     146.551 170.440 186.326  0.00  0.00    +0.040 HD
BRANCH  98 100
ATOM    100  C   UNL     1     146.831 171.747 184.684  0.00  0.00    -0.053 C 
ATOM    101  H   UNL     1     146.200 172.084 183.855  0.00  0.00    +0.024 HD
ATOM    102  H   UNL     1     147.468 172.594 184.963  0.00  0.00    +0.024 HD
ATOM    103  H   UNL     1     147.494 170.952 184.324  0.00  0.00    +0.024 HD
ENDBRANCH  98 100
BRANCH  98 104
ATOM    104  C   UNL     1     144.607 170.745 185.496  0.00  0.00    +0.071 C 
ATOM    105  H   UNL     1     144.589 170.443 184.441  0.00  0.00    +0.061 HD
BRANCH 104 106
ATOM    106  C   UNL     1     144.069 169.562 186.339  0.00  0.00    -0.006 C 
ATOM    107  H   UNL     1     143.815 168.724 185.677  0.00  0.00    +0.033 HD
ATOM    108  H   UNL     1     144.896 169.184 186.953  0.00  0.00    +0.033 HD
BRANCH 106 109
ATOM    109  C   UNL     1     142.931 169.894 187.267  0.00  0.00    -0.067 C 
ATOM    110  C   UNL     1     142.179 168.957 187.862  0.00  0.00    -0.005 C 
ATOM    111  H   UNL     1     142.772 170.957 187.431  0.00  0.00    +0.059 HD
ATOM    112  H   UNL     1     142.421 167.909 187.694  0.00  0.00    +0.078 HD
BRANCH 110 113
ATOM    113  N   UNL     1     141.094 169.163 188.697  0.00  0.00    -0.284 N 
ATOM    114  C   UNL     1     141.166 169.386 190.071  0.00  0.00    +0.206 C 
ATOM    115  O   UNL     1     140.207 169.567 190.817  0.00  0.00    -0.279 OA
ATOM    116  H   UNL     1     142.187 169.403 190.471  0.00  0.00    +0.126 HD
BRANCH 113 117
ATOM    117  C   UNL     1     139.771 169.190 188.079  0.00  0.00    +0.007 C 
ATOM    118  H   UNL     1     139.425 170.231 188.056  0.00  0.00    +0.043 HD
ATOM    119  H   UNL     1     139.043 168.592 188.633  0.00  0.00    +0.043 HD
ATOM    120  H   UNL     1     139.837 168.802 187.057  0.00  0.00    +0.043 HD
ENDBRANCH 113 117
ENDBRANCH 110 113
ENDBRANCH 106 109
ENDBRANCH 104 106
BRANCH 104 121
ATOM    121  O   UNL     1     143.643 171.808 185.683  0.00  0.00    -0.379 OA
BRANCH 121 122
ATOM    122  C   UNL     1     143.150 172.345 184.458  0.00  0.00    +0.037 C 
ATOM    123  H   UNL     1     142.088 172.577 184.584  0.00  0.00    +0.052 HD
ATOM    124  H   UNL     1     143.676 173.264 184.196  0.00  0.00    +0.052 HD
ATOM    125  H   UNL     1     143.256 171.614 183.651  0.00  0.00    +0.052 HD
ENDBRANCH 121 122
ENDBRANCH 104 121
ENDBRANCH  98 104
ENDBRANCH  96  98
ENDBRANCH  93  96
ENDBRANCH  90  93
ENDBRANCH  84  90
ENDBRANCH  82  84
BRANCH  82 126
ATOM    126  O   UNL     1     148.118 170.601 191.044  0.00  0.00    -0.379 OA
BRANCH 126 127
ATOM    127  C   UNL     1     148.335 171.143 192.344  0.00  0.00    +0.037 C 
ATOM    128  H   UNL     1     148.802 172.131 192.271  0.00  0.00    +0.052 HD
ATOM    129  H   UNL     1     147.393 171.208 192.899  0.00  0.00    +0.052 HD
ATOM    130  H   UNL     1     149.015 170.478 192.887  0.00  0.00    +0.052 HD
ENDBRANCH 126 127
ENDBRANCH  82 126
ENDBRANCH  76  82
ENDBRANCH  25  76
BRANCH  31 131
ATOM    131  O   UNL     1     151.532 167.887 190.075  0.00  0.00    -0.379 OA
BRANCH 131 132
ATOM    132  C   UNL     1     151.774 168.953 190.989  0.00  0.00    +0.037 C 
ATOM    133  H   UNL     1     151.446 169.905 190.560  0.00  0.00    +0.052 HD
ATOM    134  H   UNL     1     151.206 168.761 191.903  0.00  0.00    +0.052 HD
ATOM    135  H   UNL     1     152.840 169.001 191.243  0.00  0.00    +0.052 HD
ENDBRANCH 131 132
ENDBRANCH  31 131
BRANCH  29 136
ATOM    136  O   UNL     1     153.321 166.172 192.657  0.00  0.00    -0.376 OA
BRANCH 136 137
ATOM    137  C   UNL     1     153.042 166.942 193.819  0.00  0.00    +0.037 C 
ATOM    138  H   UNL     1     151.962 166.986 194.000  0.00  0.00    +0.052 HD
ATOM    139  H   UNL     1     153.519 166.451 194.674  0.00  0.00    +0.052 HD
ATOM    140  H   UNL     1     153.455 167.949 193.722  0.00  0.00    +0.052 HD
ENDBRANCH 136 137
ENDBRANCH  29 136
BRANCH  16 141
ATOM    141  O   UNL     1     142.560 166.870 185.181  0.00  0.00    -0.379 OA
BRANCH 141 142
ATOM    142  C   UNL     1     141.398 167.384 184.546  0.00  0.00    +0.037 C 
ATOM    143  H   UNL     1     141.104 166.682 183.757  0.00  0.00    +0.052 HD
ATOM    144  H   UNL     1     141.587 168.361 184.088  0.00  0.00    +0.052 HD
ATOM    145  H   UNL     1     140.575 167.457 185.269  0.00  0.00    +0.052 HD
ENDBRANCH 141 142
ENDBRANCH  16 141
BRANCH   6 146
ATOM    146  O   UNL     1     148.274 163.875 186.444  0.00  0.00    -0.379 OA
BRANCH 146 147
ATOM    147  C   UNL     1     147.734 163.749 187.757  0.00  0.00    +0.037 C 
ATOM    148  H   UNL     1     147.240 162.779 187.868  0.00  0.00    +0.052 HD
ATOM    149  H   UNL     1     147.019 164.553 187.969  0.00  0.00    +0.052 HD
ATOM    150  H   UNL     1     148.554 163.813 188.479  0.00  0.00    +0.052 HD
ENDBRANCH 146 147
ENDBRANCH   6 146
BRANCH   4 151
ATOM    151  O   UNL     1     151.062 162.918 186.977  0.00  0.00    -0.376 OA
BRANCH 151 152
ATOM    152  C   UNL     1     151.921 162.624 188.075  0.00  0.00    +0.037 C 
ATOM    153  H   UNL     1     152.966 162.597 187.750  0.00  0.00    +0.052 HD
ATOM    154  H   UNL     1     151.812 163.421 188.810  0.00  0.00    +0.052 HD
ATOM    155  H   UNL     1     151.649 161.674 188.541  0.00  0.00    +0.052 HD
ENDBRANCH 151 152
ENDBRANCH   4 151
TORSDOF 33
ENDMDL
MODEL 5
REMARK VINA RESULT:      -5.1      5.674     10.934
REMARK  Name = Reidispongiolide A_conf3
REMARK  33 active torsions:
REMARK  status: ('A' for Active; 'I' for Inactive)
REMARK    1  A    between atoms: C_1  and  C_2
REMARK    2  A    between atoms: C_5  and  O_67
REMARK    3  A    between atoms: C_7  and  O_65
REMARK    4  A    between atoms: C_8  and  C_64
REMARK    5  A    between atoms: C_17  and  O_62
REMARK    6  A    between atoms: C_19  and  C_61
REMARK    7  A    between atoms: C_26  and  C_38
REMARK    8  A    between atoms: C_27  and  C_37
REMARK    9  A    between atoms: C_30  and  O_35
REMARK   10  A    between atoms: C_32  and  O_33
REMARK   11  A    between atoms: O_33  and  C_34
REMARK   12  A    between atoms: O_35  and  C_36
REMARK   13  A    between atoms: C_38  and  C_39
REMARK   14  A    between atoms: C_38  and  C_40
REMARK   15  A    between atoms: C_40  and  C_41
REMARK   16  A    between atoms: C_40  and  O_59
REMARK   17  A    between atoms: C_41  and  C_42
REMARK   18  A    between atoms: C_41  and  C_43
REMARK   19  A    between atoms: C_43  and  C_44
REMARK   20  A    between atoms: C_44  and  C_45
REMARK   21  A    between atoms: C_45  and  C_47
REMARK   22  A    between atoms: C_47  and  C_48
REMARK   23  A    between atoms: C_47  and  C_49
REMARK   24  A    between atoms: C_49  and  C_50
REMARK   25  A    between atoms: C_49  and  O_57
REMARK   26  A    between atoms: C_50  and  C_51
REMARK   27  A    between atoms: C_52  and  N_53
REMARK   28  A    between atoms: N_53  and  C_54
REMARK   29  A    between atoms: O_57  and  C_58
REMARK   30  A    between atoms: O_59  and  C_60
REMARK   31  A    between atoms: O_62  and  C_63
REMARK   32  A    between atoms: O_65  and  C_66
REMARK   33  A    between atoms: O_67  and  C_68
REMARK                            x       y       z     vdW  Elec       q    Type
REMARK                         _______ _______ _______ _____ _____    ______ ____
ROOT
ATOM      1  C   UNL     1     151.731 157.288 187.911  0.00  0.00    +0.001 C 
ATOM      2  C   UNL     1     153.211 156.966 188.094  0.00  0.00    -0.080 C 
ATOM      3  C   UNL     1     153.898 156.012 187.440  0.00  0.00    -0.059 C 
ATOM      4  C   UNL     1     155.331 155.567 187.585  0.00  0.00    +0.079 C 
ATOM      5  C   UNL     1     156.185 156.169 188.719  0.00  0.00    +0.004 C 
ATOM      6  C   UNL     1     156.664 157.627 188.537  0.00  0.00    +0.067 C 
ATOM      7  C   UNL     1     157.095 158.299 189.877  0.00  0.00    +0.020 C 
ATOM      8  C   UNL     1     158.243 157.544 190.625  0.00  0.00    +0.112 C 
ATOM      9  C   UNL     1     159.680 157.916 190.202  0.00  0.00    +0.006 C 
ATOM     10  C   UNL     1     160.257 159.065 190.986  0.00  0.00    -0.057 C 
ATOM     11  C   UNL     1     159.681 159.439 192.142  0.00  0.00    +0.022 C 
ATOM     12  C   UNL     1     158.534 158.729 192.734  0.00  0.00    +0.332 C 
ATOM     13  O   UNL     1     158.075 159.066 193.818  0.00  0.00    -0.246 OA
ATOM     14  O   UNL     1     158.077 157.647 192.063  0.00  0.00    -0.458 OA
ATOM     15  C   UNL     1     161.606 159.626 190.555  0.00  0.00    -0.004 C 
ATOM     16  C   UNL     1     161.832 161.146 190.299  0.00  0.00    +0.066 C 
ATOM     17  C   UNL     1     161.552 161.608 188.844  0.00  0.00    -0.005 C 
ATOM     18  C   UNL     1     160.184 162.162 188.485  0.00  0.00    -0.070 C 
ATOM     19  C   UNL     1     160.076 163.330 187.813  0.00  0.00    -0.062 C 
ATOM     20  C   UNL     1     158.834 163.941 187.384  0.00  0.00    -0.055 C 
ATOM     21  C   UNL     1     157.979 163.355 186.533  0.00  0.00    +0.023 C 
ATOM     22  C   UNL     1     156.670 163.978 186.284  0.00  0.00    +0.332 C 
ATOM     23  O   UNL     1     156.416 165.165 186.426  0.00  0.00    -0.246 OA
ATOM     24  O   UNL     1     155.796 162.995 185.964  0.00  0.00    -0.457 OA
ATOM     25  C   UNL     1     154.397 163.297 186.168  0.00  0.00    +0.114 C 
ATOM     26  C   UNL     1     153.547 162.875 184.928  0.00  0.00    +0.012 C 
ATOM     27  C   UNL     1     153.277 161.396 184.771  0.00  0.00    -0.079 C 
ATOM     28  C   UNL     1     152.033 160.873 184.768  0.00  0.00    -0.059 C 
ATOM     29  C   UNL     1     151.709 159.420 184.558  0.00  0.00    +0.079 C 
ATOM     30  C   UNL     1     152.214 158.452 185.645  0.00  0.00    +0.004 C 
ATOM     31  C   UNL     1     151.453 158.512 186.984  0.00  0.00    +0.067 C 
ATOM     32  H   UNL     1     151.372 157.552 188.918  0.00  0.00    +0.037 HD
ATOM     33  H   UNL     1     153.706 157.582 188.839  0.00  0.00    +0.057 HD
ATOM     34  H   UNL     1     153.372 155.434 186.683  0.00  0.00    +0.059 HD
ATOM     35  H   UNL     1     155.256 154.489 187.798  0.00  0.00    +0.064 HD
ATOM     36  H   UNL     1     157.073 155.535 188.807  0.00  0.00    +0.032 HD
ATOM     37  H   UNL     1     155.625 156.056 189.651  0.00  0.00    +0.032 HD
ATOM     38  H   UNL     1     155.849 158.221 188.106  0.00  0.00    +0.060 HD
ATOM     39  H   UNL     1     157.475 159.292 189.627  0.00  0.00    +0.036 HD
ATOM     40  H   UNL     1     158.135 156.472 190.428  0.00  0.00    +0.074 HD
ATOM     41  H   UNL     1     159.728 158.125 189.129  0.00  0.00    +0.035 HD
ATOM     42  H   UNL     1     160.329 157.048 190.383  0.00  0.00    +0.035 HD
ATOM     43  H   UNL     1     160.097 160.219 192.772  0.00  0.00    +0.069 HD
ATOM     44  H   UNL     1     161.977 159.060 189.687  0.00  0.00    +0.034 HD
ATOM     45  H   UNL     1     162.298 159.351 191.370  0.00  0.00    +0.034 HD
ATOM     46  H   UNL     1     162.916 161.272 190.442  0.00  0.00    +0.060 HD
ATOM     47  H   UNL     1     161.783 160.786 188.151  0.00  0.00    +0.034 HD
ATOM     48  H   UNL     1     162.296 162.384 188.622  0.00  0.00    +0.034 HD
ATOM     49  H   UNL     1     160.968 163.912 187.579  0.00  0.00    +0.062 HD
ATOM     50  H   UNL     1     158.614 164.921 187.807  0.00  0.00    +0.062 HD
ATOM     51  H   UNL     1     158.160 162.385 186.092  0.00  0.00    +0.069 HD
ATOM     52  H   UNL     1     154.269 164.385 186.209  0.00  0.00    +0.074 HD
ATOM     53  H   UNL     1     152.580 163.383 185.053  0.00  0.00    +0.038 HD
ATOM     54  H   UNL     1     154.139 160.744 184.628  0.00  0.00    +0.057 HD
ATOM     55  H   UNL     1     151.180 161.544 184.887  0.00  0.00    +0.059 HD
ATOM     56  H   UNL     1     152.156 159.115 183.600  0.00  0.00    +0.064 HD
ATOM     57  H   UNL     1     153.286 158.624 185.803  0.00  0.00    +0.032 HD
ATOM     58  H   UNL     1     152.099 157.441 185.233  0.00  0.00    +0.032 HD
ATOM     59  H   UNL     1     150.373 158.528 186.780  0.00  0.00    +0.060 HD
ENDROOT
BRANCH   1  60
ATOM     60  C   UNL     1     150.888 156.079 187.476  0.00  0.00    -0.057 C 
ATOM     61  H   UNL     1     150.280 155.717 188.311  0.00  0.00    +0.024 HD
ATOM     62  H   UNL     1     151.528 155.251 187.155  0.00  0.00    +0.024 HD
ATOM     63  H   UNL     1     150.208 156.317 186.654  0.00  0.00    +0.024 HD
ENDBRANCH   1  60
BRANCH  26  64
ATOM     64  C   UNL     1     154.182 163.412 183.637  0.00  0.00    -0.056 C 
ATOM     65  H   UNL     1     154.886 164.227 183.850  0.00  0.00    +0.024 HD
ATOM     66  H   UNL     1     153.420 163.794 182.954  0.00  0.00    +0.024 HD
ATOM     67  H   UNL     1     154.719 162.618 183.113  0.00  0.00    +0.024 HD
ENDBRANCH  26  64
BRANCH  18  68
ATOM     68  C   UNL     1     159.013 161.325 188.902  0.00  0.00    -0.043 C 
ATOM     69  H   UNL     1     158.753 161.524 189.944  0.00  0.00    +0.027 HD
ATOM     70  H   UNL     1     158.103 161.509 188.328  0.00  0.00    +0.027 HD
ATOM     71  H   UNL     1     159.274 160.274 188.775  0.00  0.00    +0.027 HD
ENDBRANCH  18  68
BRANCH   7  72
ATOM     72  C   UNL     1     155.861 158.540 190.756  0.00  0.00    -0.057 C 
ATOM     73  H   UNL     1     155.302 157.614 190.902  0.00  0.00    +0.023 HD
ATOM     74  H   UNL     1     156.125 158.937 191.741  0.00  0.00    +0.023 HD
ATOM     75  H   UNL     1     155.177 159.246 190.277  0.00  0.00    +0.023 HD
ENDBRANCH   7  72
BRANCH  25  76
ATOM     76  C   UNL     1     153.936 162.691 187.540  0.00  0.00    +0.020 C 
ATOM     77  H   UNL     1     153.020 162.123 187.339  0.00  0.00    +0.036 HD
BRANCH  76  78
ATOM     78  C   UNL     1     154.972 161.707 188.095  0.00  0.00    -0.057 C 
ATOM     79  H   UNL     1     155.758 161.471 187.374  0.00  0.00    +0.023 HD
ATOM     80  H   UNL     1     155.429 162.102 189.004  0.00  0.00    +0.023 HD
ATOM     81  H   UNL     1     154.522 160.757 188.387  0.00  0.00    +0.023 HD
ENDBRANCH  76  78
BRANCH  76  82
ATOM     82  C   UNL     1     153.544 163.847 188.528  0.00  0.00    +0.067 C 
ATOM     83  H   UNL     1     153.706 164.804 188.020  0.00  0.00    +0.060 HD
BRANCH  82  84
ATOM     84  C   UNL     1     154.290 164.003 189.888  0.00  0.00    -0.017 C 
ATOM     85  H   UNL     1     154.563 162.999 190.233  0.00  0.00    +0.032 HD
BRANCH  84  86
ATOM     86  C   UNL     1     155.627 164.729 189.648  0.00  0.00    -0.060 C 
ATOM     87  H   UNL     1     155.845 164.778 188.576  0.00  0.00    +0.023 HD
ATOM     88  H   UNL     1     156.459 164.196 190.123  0.00  0.00    +0.023 HD
ATOM     89  H   UNL     1     155.616 165.754 190.040  0.00  0.00    +0.023 HD
ENDBRANCH  84  86
BRANCH  84  90
ATOM     90  C   UNL     1     153.558 164.691 191.065  0.00  0.00    -0.041 C 
ATOM     91  H   UNL     1     153.941 164.262 192.002  0.00  0.00    +0.027 HD
ATOM     92  H   UNL     1     152.505 164.402 191.057  0.00  0.00    +0.027 HD
BRANCH  90  93
ATOM     93  C   UNL     1     153.647 166.213 191.152  0.00  0.00    +0.007 C 
ATOM     94  H   UNL     1     154.559 166.595 190.687  0.00  0.00    +0.034 HD
ATOM     95  H   UNL     1     153.650 166.534 192.201  0.00  0.00    +0.034 HD
BRANCH  93  96
ATOM     96  C   UNL     1     152.457 166.894 190.486  0.00  0.00    +0.139 C 
ATOM     97  O   UNL     1     152.649 167.691 189.561  0.00  0.00    -0.297 OA
BRANCH  96  98
ATOM     98  C   UNL     1     151.050 166.587 191.014  0.00  0.00    +0.041 C 
ATOM     99  H   UNL     1     151.080 165.538 191.316  0.00  0.00    +0.040 HD
BRANCH  98 100
ATOM    100  C   UNL     1     149.986 166.694 189.918  0.00  0.00    -0.053 C 
ATOM    101  H   UNL     1     150.366 167.190 189.019  0.00  0.00    +0.024 HD
ATOM    102  H   UNL     1     149.648 165.697 189.614  0.00  0.00    +0.024 HD
ATOM    103  H   UNL     1     149.103 167.236 190.277  0.00  0.00    +0.024 HD
ENDBRANCH  98 100
BRANCH  98 104
ATOM    104  C   UNL     1     150.706 167.406 192.282  0.00  0.00    +0.071 C 
ATOM    105  H   UNL     1     151.242 168.364 192.279  0.00  0.00    +0.061 HD
BRANCH 104 106
ATOM    106  C   UNL     1     149.204 167.702 192.517  0.00  0.00    -0.006 C 
ATOM    107  H   UNL     1     148.595 167.020 191.910  0.00  0.00    +0.033 HD
ATOM    108  H   UNL     1     148.966 167.430 193.554  0.00  0.00    +0.033 HD
BRANCH 106 109
ATOM    109  C   UNL     1     148.788 169.135 192.318  0.00  0.00    -0.067 C 
ATOM    110  C   UNL     1     149.659 170.153 192.318  0.00  0.00    -0.005 C 
ATOM    111  H   UNL     1     147.722 169.282 192.160  0.00  0.00    +0.059 HD
ATOM    112  H   UNL     1     150.719 169.934 192.435  0.00  0.00    +0.078 HD
BRANCH 110 113
ATOM    113  N   UNL     1     149.369 171.501 192.182  0.00  0.00    -0.284 N 
ATOM    114  C   UNL     1     148.963 172.122 191.001  0.00  0.00    +0.206 C 
ATOM    115  O   UNL     1     148.707 173.316 190.874  0.00  0.00    -0.279 OA
ATOM    116  H   UNL     1     148.869 171.443 190.145  0.00  0.00    +0.126 HD
BRANCH 113 117
ATOM    117  C   UNL     1     149.457 172.329 193.382  0.00  0.00    +0.007 C 
ATOM    118  H   UNL     1     149.043 173.317 193.147  0.00  0.00    +0.043 HD
ATOM    119  H   UNL     1     150.487 172.452 193.725  0.00  0.00    +0.043 HD
ATOM    120  H   UNL     1     148.873 171.868 194.187  0.00  0.00    +0.043 HD
ENDBRANCH 113 117
ENDBRANCH 110 113
ENDBRANCH 106 109
ENDBRANCH 104 106
BRANCH 104 121
ATOM    121  O   UNL     1     151.126 166.652 193.443  0.00  0.00    -0.379 OA
BRANCH 121 122
ATOM    122  C   UNL     1     150.040 166.081 194.169  0.00  0.00    +0.037 C 
ATOM    123  H   UNL     1     150.014 166.533 195.166  0.00  0.00    +0.052 HD
ATOM    124  H   UNL     1     149.090 166.282 193.672  0.00  0.00    +0.052 HD
ATOM    125  H   UNL     1     150.181 165.001 194.279  0.00  0.00    +0.052 HD
ENDBRANCH 121 122
ENDBRANCH 104 121
ENDBRANCH  98 104
ENDBRANCH  96  98
ENDBRANCH  93  96
ENDBRANCH  90  93
ENDBRANCH  84  90
ENDBRANCH  82  84
BRANCH  82 126
ATOM    126  O   UNL     1     152.131 163.746 188.799  0.00  0.00    -0.379 OA
BRANCH 126 127
ATOM    127  C   UNL     1     151.316 164.164 187.707  0.00  0.00    +0.037 C 
ATOM    128  H   UNL     1     151.843 164.013 186.759  0.00  0.00    +0.052 HD
ATOM    129  H   UNL     1     150.365 163.622 187.703  0.00  0.00    +0.052 HD
ATOM    130  H   UNL     1     151.108 165.234 187.821  0.00  0.00    +0.052 HD
ENDBRANCH 126 127
ENDBRANCH  82 126
ENDBRANCH  76  82
ENDBRANCH  25  76
BRANCH  31 131
ATOM    131  O   UNL     1     151.826 159.713 187.683  0.00  0.00    -0.379 OA
BRANCH 131 132
ATOM    132  C   UNL     1     150.692 160.411 188.193  0.00  0.00    +0.037 C 
ATOM    133  H   UNL     1     149.881 160.409 187.459  0.00  0.00    +0.052 HD
ATOM    134  H   UNL     1     150.351 159.902 189.099  0.00  0.00    +0.052 HD
ATOM    135  H   UNL     1     150.965 161.441 188.452  0.00  0.00    +0.052 HD
ENDBRANCH 131 132
ENDBRANCH  31 131
BRANCH  29 136
ATOM    136  O   UNL     1     150.276 159.318 184.482  0.00  0.00    -0.376 OA
BRANCH 136 137
ATOM    137  C   UNL     1     149.628 160.583 184.447  0.00  0.00    +0.037 C 
ATOM    138  H   UNL     1     150.234 161.339 184.959  0.00  0.00    +0.052 HD
ATOM    139  H   UNL     1     149.514 160.878 183.399  0.00  0.00    +0.052 HD
ATOM    140  H   UNL     1     148.635 160.518 184.900  0.00  0.00    +0.052 HD
ENDBRANCH 136 137
ENDBRANCH  29 136
BRANCH  16 141
ATOM    141  O   UNL     1     161.179 161.933 191.299  0.00  0.00    -0.379 OA
BRANCH 141 142
ATOM    142  C   UNL     1     161.905 163.091 191.686  0.00  0.00    +0.037 C 
ATOM    143  H   UNL     1     162.754 163.202 191.002  0.00  0.00    +0.052 HD
ATOM    144  H   UNL     1     162.290 163.004 192.707  0.00  0.00    +0.052 HD
ATOM    145  H   UNL     1     161.269 163.981 191.596  0.00  0.00    +0.052 HD
ENDBRANCH 141 142
ENDBRANCH  16 141
BRANCH   6 146
ATOM    146  O   UNL     1     157.791 157.638 187.652  0.00  0.00    -0.379 OA
BRANCH 146 147
ATOM    147  C   UNL     1     157.718 158.687 186.689  0.00  0.00    +0.037 C 
ATOM    148  H   UNL     1     158.377 159.510 186.980  0.00  0.00    +0.052 HD
ATOM    149  H   UNL     1     156.691 159.057 186.586  0.00  0.00    +0.052 HD
ATOM    150  H   UNL     1     158.046 158.295 185.721  0.00  0.00    +0.052 HD
ENDBRANCH 146 147
ENDBRANCH   6 146
BRANCH   4 151
ATOM    151  O   UNL     1     155.919 155.736 186.292  0.00  0.00    -0.376 OA
BRANCH 151 152
ATOM    152  C   UNL     1     155.006 155.505 185.223  0.00  0.00    +0.037 C 
ATOM    153  H   UNL     1     154.840 154.432 185.084  0.00  0.00    +0.052 HD
ATOM    154  H   UNL     1     154.056 155.967 185.487  0.00  0.00    +0.052 HD
ATOM    155  H   UNL     1     155.371 155.950 184.294  0.00  0.00    +0.052 HD
ENDBRANCH 151 152
ENDBRANCH   4 151
TORSDOF 33
ENDMDL
MODEL 6
REMARK VINA RESULT:      -5.1      1.714      1.957
REMARK  Name = Reidispongiolide A_conf3
REMARK  33 active torsions:
REMARK  status: ('A' for Active; 'I' for Inactive)
REMARK    1  A    between atoms: C_1  and  C_2
REMARK    2  A    between atoms: C_5  and  O_67
REMARK    3  A    between atoms: C_7  and  O_65
REMARK    4  A    between atoms: C_8  and  C_64
REMARK    5  A    between atoms: C_17  and  O_62
REMARK    6  A    between atoms: C_19  and  C_61
REMARK    7  A    between atoms: C_26  and  C_38
REMARK    8  A    between atoms: C_27  and  C_37
REMARK    9  A    between atoms: C_30  and  O_35
REMARK   10  A    between atoms: C_32  and  O_33
REMARK   11  A    between atoms: O_33  and  C_34
REMARK   12  A    between atoms: O_35  and  C_36
REMARK   13  A    between atoms: C_38  and  C_39
REMARK   14  A    between atoms: C_38  and  C_40
REMARK   15  A    between atoms: C_40  and  C_41
REMARK   16  A    between atoms: C_40  and  O_59
REMARK   17  A    between atoms: C_41  and  C_42
REMARK   18  A    between atoms: C_41  and  C_43
REMARK   19  A    between atoms: C_43  and  C_44
REMARK   20  A    between atoms: C_44  and  C_45
REMARK   21  A    between atoms: C_45  and  C_47
REMARK   22  A    between atoms: C_47  and  C_48
REMARK   23  A    between atoms: C_47  and  C_49
REMARK   24  A    between atoms: C_49  and  C_50
REMARK   25  A    between atoms: C_49  and  O_57
REMARK   26  A    between atoms: C_50  and  C_51
REMARK   27  A    between atoms: C_52  and  N_53
REMARK   28  A    between atoms: N_53  and  C_54
REMARK   29  A    between atoms: O_57  and  C_58
REMARK   30  A    between atoms: O_59  and  C_60
REMARK   31  A    between atoms: O_62  and  C_63
REMARK   32  A    between atoms: O_65  and  C_66
REMARK   33  A    between atoms: O_67  and  C_68
REMARK                            x       y       z     vdW  Elec       q    Type
REMARK                         _______ _______ _______ _____ _____    ______ ____
ROOT
ATOM      1  C   UNL     1     160.268 166.313 185.943  0.00  0.00    +0.001 C 
ATOM      2  C   UNL     1     160.161 167.502 184.994  0.00  0.00    -0.080 C 
ATOM      3  C   UNL     1     161.086 167.876 184.091  0.00  0.00    -0.059 C 
ATOM      4  C   UNL     1     161.115 169.059 183.157  0.00  0.00    +0.079 C 
ATOM      5  C   UNL     1     160.005 170.122 183.267  0.00  0.00    +0.004 C 
ATOM      6  C   UNL     1     158.610 169.737 182.724  0.00  0.00    +0.067 C 
ATOM      7  C   UNL     1     157.468 170.640 183.281  0.00  0.00    +0.020 C 
ATOM      8  C   UNL     1     157.658 172.163 182.979  0.00  0.00    +0.112 C 
ATOM      9  C   UNL     1     157.115 172.651 181.618  0.00  0.00    +0.006 C 
ATOM     10  C   UNL     1     155.676 173.092 181.671  0.00  0.00    -0.057 C 
ATOM     11  C   UNL     1     155.100 173.348 182.858  0.00  0.00    +0.022 C 
ATOM     12  C   UNL     1     155.832 173.289 184.135  0.00  0.00    +0.332 C 
ATOM     13  O   UNL     1     155.285 173.586 185.190  0.00  0.00    -0.246 OA
ATOM     14  O   UNL     1     157.146 172.974 184.068  0.00  0.00    -0.458 OA
ATOM     15  C   UNL     1     154.983 173.446 180.361  0.00  0.00    -0.004 C 
ATOM     16  C   UNL     1     153.613 172.826 179.951  0.00  0.00    +0.066 C 
ATOM     17  C   UNL     1     153.714 171.499 179.151  0.00  0.00    -0.005 C 
ATOM     18  C   UNL     1     153.636 170.174 179.888  0.00  0.00    -0.070 C 
ATOM     19  C   UNL     1     152.801 169.202 179.458  0.00  0.00    -0.062 C 
ATOM     20  C   UNL     1     152.664 167.888 180.052  0.00  0.00    -0.055 C 
ATOM     21  C   UNL     1     153.672 167.006 180.133  0.00  0.00    +0.023 C 
ATOM     22  C   UNL     1     153.482 165.764 180.898  0.00  0.00    +0.332 C 
ATOM     23  O   UNL     1     152.405 165.233 181.125  0.00  0.00    -0.246 OA
ATOM     24  O   UNL     1     154.690 165.378 181.371  0.00  0.00    -0.457 OA
ATOM     25  C   UNL     1     154.674 164.505 182.523  0.00  0.00    +0.114 C 
ATOM     26  C   UNL     1     155.653 163.304 182.328  0.00  0.00    +0.012 C 
ATOM     27  C   UNL     1     157.125 163.604 182.490  0.00  0.00    -0.079 C 
ATOM     28  C   UNL     1     157.897 163.015 183.427  0.00  0.00    -0.059 C 
ATOM     29  C   UNL     1     159.374 163.236 183.591  0.00  0.00    +0.079 C 
ATOM     30  C   UNL     1     159.803 164.659 184.001  0.00  0.00    +0.004 C 
ATOM     31  C   UNL     1     159.501 165.041 185.463  0.00  0.00    +0.067 C 
ATOM     32  H   UNL     1     159.790 166.651 186.876  0.00  0.00    +0.037 HD
ATOM     33  H   UNL     1     159.244 168.072 185.105  0.00  0.00    +0.057 HD
ATOM     34  H   UNL     1     161.980 167.264 183.993  0.00  0.00    +0.059 HD
ATOM     35  H   UNL     1     162.057 169.573 183.406  0.00  0.00    +0.064 HD
ATOM     36  H   UNL     1     160.353 170.994 182.703  0.00  0.00    +0.032 HD
ATOM     37  H   UNL     1     159.943 170.429 184.314  0.00  0.00    +0.032 HD
ATOM     38  H   UNL     1     158.389 168.700 183.004  0.00  0.00    +0.060 HD
ATOM     39  H   UNL     1     156.545 170.329 182.786  0.00  0.00    +0.036 HD
ATOM     40  H   UNL     1     158.730 172.382 182.975  0.00  0.00    +0.074 HD
ATOM     41  H   UNL     1     157.252 171.887 180.848  0.00  0.00    +0.035 HD
ATOM     42  H   UNL     1     157.704 173.524 181.304  0.00  0.00    +0.035 HD
ATOM     43  H   UNL     1     154.086 173.728 182.942  0.00  0.00    +0.069 HD
ATOM     44  H   UNL     1     155.691 173.325 179.528  0.00  0.00    +0.034 HD
ATOM     45  H   UNL     1     154.816 174.535 180.417  0.00  0.00    +0.034 HD
ATOM     46  H   UNL     1     153.200 173.562 179.244  0.00  0.00    +0.060 HD
ATOM     47  H   UNL     1     154.636 171.506 178.551  0.00  0.00    +0.034 HD
ATOM     48  H   UNL     1     152.898 171.523 178.417  0.00  0.00    +0.034 HD
ATOM     49  H   UNL     1     152.133 169.387 178.616  0.00  0.00    +0.062 HD
ATOM     50  H   UNL     1     151.681 167.646 180.455  0.00  0.00    +0.062 HD
ATOM     51  H   UNL     1     154.661 167.206 179.747  0.00  0.00    +0.069 HD
ATOM     52  H   UNL     1     153.691 164.026 182.593  0.00  0.00    +0.074 HD
ATOM     53  H   UNL     1     155.371 162.573 183.100  0.00  0.00    +0.038 HD
ATOM     54  H   UNL     1     157.569 164.313 181.791  0.00  0.00    +0.057 HD
ATOM     55  H   UNL     1     157.441 162.289 184.103  0.00  0.00    +0.059 HD
ATOM     56  H   UNL     1     159.855 163.003 182.630  0.00  0.00    +0.064 HD
ATOM     57  H   UNL     1     159.345 165.379 183.312  0.00  0.00    +0.032 HD
ATOM     58  H   UNL     1     160.890 164.706 183.855  0.00  0.00    +0.032 HD
ATOM     59  H   UNL     1     159.802 164.211 186.118  0.00  0.00    +0.060 HD
ENDROOT
BRANCH   1  60
ATOM     60  C   UNL     1     161.713 165.959 186.325  0.00  0.00    -0.057 C 
ATOM     61  H   UNL     1     162.123 166.709 187.009  0.00  0.00    +0.024 HD
ATOM     62  H   UNL     1     162.358 165.937 185.441  0.00  0.00    +0.024 HD
ATOM     63  H   UNL     1     161.789 164.987 186.821  0.00  0.00    +0.024 HD
ENDBRANCH   1  60
BRANCH  26  64
ATOM     64  C   UNL     1     155.420 162.640 180.964  0.00  0.00    -0.056 C 
ATOM     65  H   UNL     1     156.366 162.306 180.517  0.00  0.00    +0.024 HD
ATOM     66  H   UNL     1     154.942 163.332 180.266  0.00  0.00    +0.024 HD
ATOM     67  H   UNL     1     154.761 161.774 181.065  0.00  0.00    +0.024 HD
ENDBRANCH  26  64
BRANCH  18  68
ATOM     68  C   UNL     1     154.547 170.032 181.070  0.00  0.00    -0.043 C 
ATOM     69  H   UNL     1     153.977 169.760 181.961  0.00  0.00    +0.027 HD
ATOM     70  H   UNL     1     155.310 169.260 180.959  0.00  0.00    +0.027 HD
ATOM     71  H   UNL     1     155.061 170.981 181.229  0.00  0.00    +0.027 HD
ENDBRANCH  18  68
BRANCH   7  72
ATOM     72  C   UNL     1     157.254 170.346 184.772  0.00  0.00    -0.057 C 
ATOM     73  H   UNL     1     156.190 170.278 185.005  0.00  0.00    +0.023 HD
ATOM     74  H   UNL     1     157.729 169.411 185.082  0.00  0.00    +0.023 HD
ATOM     75  H   UNL     1     157.658 171.154 185.387  0.00  0.00    +0.023 HD
ENDBRANCH   7  72
BRANCH  25  76
ATOM     76  C   UNL     1     154.905 165.361 183.818  0.00  0.00    +0.020 C 
ATOM     77  H   UNL     1     155.626 164.810 184.432  0.00  0.00    +0.036 HD
BRANCH  76  78
ATOM     78  C   UNL     1     155.528 166.722 183.488  0.00  0.00    -0.057 C 
ATOM     79  H   UNL     1     156.437 166.634 182.889  0.00  0.00    +0.023 HD
ATOM     80  H   UNL     1     154.812 167.354 182.960  0.00  0.00    +0.023 HD
ATOM     81  H   UNL     1     155.799 167.278 184.386  0.00  0.00    +0.023 HD
ENDBRANCH  76  78
BRANCH  76  82
ATOM     82  C   UNL     1     153.572 165.441 184.647  0.00  0.00    +0.067 C 
ATOM     83  H   UNL     1     153.081 166.393 184.417  0.00  0.00    +0.060 HD
BRANCH  82  84
ATOM     84  C   UNL     1     153.614 165.397 186.205  0.00  0.00    -0.017 C 
ATOM     85  H   UNL     1     152.594 165.209 186.558  0.00  0.00    +0.032 HD
BRANCH  84  86
ATOM     86  C   UNL     1     154.433 164.171 186.651  0.00  0.00    -0.060 C 
ATOM     87  H   UNL     1     155.495 164.427 186.714  0.00  0.00    +0.023 HD
ATOM     88  H   UNL     1     154.340 163.348 185.932  0.00  0.00    +0.023 HD
ATOM     89  H   UNL     1     154.114 163.798 187.633  0.00  0.00    +0.023 HD
ENDBRANCH  84  86
BRANCH  84  90
ATOM     90  C   UNL     1     154.126 166.639 186.971  0.00  0.00    -0.041 C 
ATOM     91  H   UNL     1     154.171 167.481 186.266  0.00  0.00    +0.027 HD
ATOM     92  H   UNL     1     155.168 166.485 187.261  0.00  0.00    +0.027 HD
BRANCH  90  93
ATOM     93  C   UNL     1     153.337 167.077 188.203  0.00  0.00    +0.007 C 
ATOM     94  H   UNL     1     152.302 166.728 188.169  0.00  0.00    +0.034 HD
ATOM     95  H   UNL     1     153.315 168.172 188.272  0.00  0.00    +0.034 HD
BRANCH  93  96
ATOM     96  C   UNL     1     153.964 166.566 189.495  0.00  0.00    +0.139 C 
ATOM     97  O   UNL     1     155.194 166.526 189.603  0.00  0.00    -0.297 OA
BRANCH  96  98
ATOM     98  C   UNL     1     153.035 166.083 190.617  0.00  0.00    +0.041 C 
ATOM     99  H   UNL     1     153.677 165.524 191.300  0.00  0.00    +0.040 HD
BRANCH  98 100
ATOM    100  C   UNL     1     151.979 165.099 190.108  0.00  0.00    -0.053 C 
ATOM    101  H   UNL     1     152.028 164.135 190.624  0.00  0.00    +0.024 HD
ATOM    102  H   UNL     1     150.972 165.498 190.273  0.00  0.00    +0.024 HD
ATOM    103  H   UNL     1     152.084 164.930 189.029  0.00  0.00    +0.024 HD
ENDBRANCH  98 100
BRANCH  98 104
ATOM    104  C   UNL     1     152.435 167.257 191.430  0.00  0.00    +0.071 C 
ATOM    105  H   UNL     1     152.599 168.209 190.909  0.00  0.00    +0.061 HD
BRANCH 104 106
ATOM    106  C   UNL     1     150.928 167.152 191.769  0.00  0.00    -0.006 C 
ATOM    107  H   UNL     1     150.483 166.313 191.217  0.00  0.00    +0.033 HD
ATOM    108  H   UNL     1     150.839 166.861 192.823  0.00  0.00    +0.033 HD
BRANCH 106 109
ATOM    109  C   UNL     1     150.133 168.417 191.580  0.00  0.00    -0.067 C 
ATOM    110  C   UNL     1     150.330 169.518 192.318  0.00  0.00    -0.005 C 
ATOM    111  H   UNL     1     149.391 168.374 190.786  0.00  0.00    +0.059 HD
ATOM    112  H   UNL     1     151.121 169.511 193.066  0.00  0.00    +0.078 HD
BRANCH 110 113
ATOM    113  N   UNL     1     149.628 170.710 192.245  0.00  0.00    -0.284 N 
ATOM    114  C   UNL     1     149.832 171.816 193.068  0.00  0.00    +0.206 C 
ATOM    115  O   UNL     1     149.211 172.874 193.009  0.00  0.00    -0.279 OA
ATOM    116  H   UNL     1     150.632 171.686 193.807  0.00  0.00    +0.126 HD
BRANCH 113 117
ATOM    117  C   UNL     1     148.622 170.829 191.193  0.00  0.00    +0.007 C 
ATOM    118  H   UNL     1     148.892 170.143 190.381  0.00  0.00    +0.043 HD
ATOM    119  H   UNL     1     148.563 171.843 190.789  0.00  0.00    +0.043 HD
ATOM    120  H   UNL     1     147.639 170.555 191.594  0.00  0.00    +0.043 HD
ENDBRANCH 113 117
ENDBRANCH 110 113
ENDBRANCH 106 109
ENDBRANCH 104 106
BRANCH 104 121
ATOM    121  O   UNL     1     153.104 167.316 192.711  0.00  0.00    -0.379 OA
BRANCH 121 122
ATOM    122  C   UNL     1     152.832 166.191 193.544  0.00  0.00    +0.037 C 
ATOM    123  H   UNL     1     153.374 165.327 193.147  0.00  0.00    +0.052 HD
ATOM    124  H   UNL     1     153.169 166.372 194.566  0.00  0.00    +0.052 HD
ATOM    125  H   UNL     1     151.761 165.965 193.540  0.00  0.00    +0.052 HD
ENDBRANCH 121 122
ENDBRANCH 104 121
ENDBRANCH  98 104
ENDBRANCH  96  98
ENDBRANCH  93  96
ENDBRANCH  90  93
ENDBRANCH  84  90
ENDBRANCH  82  84
BRANCH  82 126
ATOM    126  O   UNL     1     152.696 164.391 184.190  0.00  0.00    -0.379 OA
BRANCH 126 127
ATOM    127  C   UNL     1     151.328 164.613 184.523  0.00  0.00    +0.037 C 
ATOM    128  H   UNL     1     150.987 165.570 184.114  0.00  0.00    +0.052 HD
ATOM    129  H   UNL     1     150.701 163.796 184.151  0.00  0.00    +0.052 HD
ATOM    130  H   UNL     1     151.240 164.652 185.614  0.00  0.00    +0.052 HD
ENDBRANCH 126 127
ENDBRANCH  82 126
ENDBRANCH  76  82
ENDBRANCH  25  76
BRANCH  31 131
ATOM    131  O   UNL     1     158.088 165.275 185.606  0.00  0.00    -0.379 OA
BRANCH 131 132
ATOM    132  C   UNL     1     157.707 165.441 186.969  0.00  0.00    +0.037 C 
ATOM    133  H   UNL     1     157.174 164.555 187.327  0.00  0.00    +0.052 HD
ATOM    134  H   UNL     1     158.612 165.576 187.568  0.00  0.00    +0.052 HD
ATOM    135  H   UNL     1     157.077 166.332 187.082  0.00  0.00    +0.052 HD
ENDBRANCH 131 132
ENDBRANCH  31 131
BRANCH  29 136
ATOM    136  O   UNL     1     159.826 162.313 184.598  0.00  0.00    -0.376 OA
BRANCH 136 137
ATOM    137  C   UNL     1     158.825 161.383 184.992  0.00  0.00    +0.037 C 
ATOM    138  H   UNL     1     158.867 161.208 186.072  0.00  0.00    +0.052 HD
ATOM    139  H   UNL     1     157.847 161.811 184.746  0.00  0.00    +0.052 HD
ATOM    140  H   UNL     1     158.939 160.442 184.447  0.00  0.00    +0.052 HD
ENDBRANCH 136 137
ENDBRANCH  29 136
BRANCH  16 141
ATOM    141  O   UNL     1     152.725 172.768 181.070  0.00  0.00    -0.379 OA
BRANCH 141 142
ATOM    142  C   UNL     1     151.440 173.316 180.814  0.00  0.00    +0.037 C 
ATOM    143  H   UNL     1     151.366 174.270 181.348  0.00  0.00    +0.052 HD
ATOM    144  H   UNL     1     150.642 172.657 181.171  0.00  0.00    +0.052 HD
ATOM    145  H   UNL     1     151.320 173.510 179.741  0.00  0.00    +0.052 HD
ENDBRANCH 141 142
ENDBRANCH  16 141
BRANCH   6 146
ATOM    146  O   UNL     1     158.617 169.861 181.296  0.00  0.00    -0.379 OA
BRANCH 146 147
ATOM    147  C   UNL     1     157.973 168.766 180.650  0.00  0.00    +0.037 C 
ATOM    148  H   UNL     1     157.649 168.031 181.392  0.00  0.00    +0.052 HD
ATOM    149  H   UNL     1     158.642 168.287 179.926  0.00  0.00    +0.052 HD
ATOM    150  H   UNL     1     157.095 169.143 180.117  0.00  0.00    +0.052 HD
ENDBRANCH 146 147
ENDBRANCH   6 146
BRANCH   4 151
ATOM    151  O   UNL     1     161.233 168.508 181.842  0.00  0.00    -0.376 OA
BRANCH 151 152
ATOM    152  C   UNL     1     162.118 169.240 181.000  0.00  0.00    +0.037 C 
ATOM    153  H   UNL     1     163.143 169.189 181.381  0.00  0.00    +0.052 HD
ATOM    154  H   UNL     1     162.097 168.783 180.012  0.00  0.00    +0.052 HD
ATOM    155  H   UNL     1     161.802 170.283 180.915  0.00  0.00    +0.052 HD
ENDBRANCH 151 152
ENDBRANCH   4 151
TORSDOF 33
ENDMDL
MODEL 7
REMARK VINA RESULT:      -5.0      5.617      9.344
REMARK  Name = Reidispongiolide A_conf3
REMARK  33 active torsions:
REMARK  status: ('A' for Active; 'I' for Inactive)
REMARK    1  A    between atoms: C_1  and  C_2
REMARK    2  A    between atoms: C_5  and  O_67
REMARK    3  A    between atoms: C_7  and  O_65
REMARK    4  A    between atoms: C_8  and  C_64
REMARK    5  A    between atoms: C_17  and  O_62
REMARK    6  A    between atoms: C_19  and  C_61
REMARK    7  A    between atoms: C_26  and  C_38
REMARK    8  A    between atoms: C_27  and  C_37
REMARK    9  A    between atoms: C_30  and  O_35
REMARK   10  A    between atoms: C_32  and  O_33
REMARK   11  A    between atoms: O_33  and  C_34
REMARK   12  A    between atoms: O_35  and  C_36
REMARK   13  A    between atoms: C_38  and  C_39
REMARK   14  A    between atoms: C_38  and  C_40
REMARK   15  A    between atoms: C_40  and  C_41
REMARK   16  A    between atoms: C_40  and  O_59
REMARK   17  A    between atoms: C_41  and  C_42
REMARK   18  A    between atoms: C_41  and  C_43
REMARK   19  A    between atoms: C_43  and  C_44
REMARK   20  A    between atoms: C_44  and  C_45
REMARK   21  A    between atoms: C_45  and  C_47
REMARK   22  A    between atoms: C_47  and  C_48
REMARK   23  A    between atoms: C_47  and  C_49
REMARK   24  A    between atoms: C_49  and  C_50
REMARK   25  A    between atoms: C_49  and  O_57
REMARK   26  A    between atoms: C_50  and  C_51
REMARK   27  A    between atoms: C_52  and  N_53
REMARK   28  A    between atoms: N_53  and  C_54
REMARK   29  A    between atoms: O_57  and  C_58
REMARK   30  A    between atoms: O_59  and  C_60
REMARK   31  A    between atoms: O_62  and  C_63
REMARK   32  A    between atoms: O_65  and  C_66
REMARK   33  A    between atoms: O_67  and  C_68
REMARK                            x       y       z     vdW  Elec       q    Type
REMARK                         _______ _______ _______ _____ _____    ______ ____
ROOT
ATOM      1  C   UNL     1     155.581 162.089 188.788  0.00  0.00    +0.001 C 
ATOM      2  C   UNL     1     155.203 163.520 189.157  0.00  0.00    -0.080 C 
ATOM      3  C   UNL     1     155.924 164.622 188.882  0.00  0.00    -0.059 C 
ATOM      4  C   UNL     1     155.683 166.064 189.251  0.00  0.00    +0.079 C 
ATOM      5  C   UNL     1     154.508 166.405 190.188  0.00  0.00    +0.004 C 
ATOM      6  C   UNL     1     153.087 166.329 189.587  0.00  0.00    +0.067 C 
ATOM      7  C   UNL     1     151.971 166.222 190.670  0.00  0.00    +0.020 C 
ATOM      8  C   UNL     1     151.959 167.408 191.690  0.00  0.00    +0.112 C 
ATOM      9  C   UNL     1     151.153 168.654 191.263  0.00  0.00    +0.006 C 
ATOM     10  C   UNL     1     149.707 168.603 191.680  0.00  0.00    -0.057 C 
ATOM     11  C   UNL     1     149.314 167.726 192.619  0.00  0.00    +0.022 C 
ATOM     12  C   UNL     1     150.250 166.839 193.331  0.00  0.00    +0.332 C 
ATOM     13  O   UNL     1     149.860 166.094 194.222  0.00  0.00    -0.246 OA
ATOM     14  O   UNL     1     151.559 166.952 193.008  0.00  0.00    -0.458 OA
ATOM     15  C   UNL     1     148.775 169.700 191.180  0.00  0.00    -0.004 C 
ATOM     16  C   UNL     1     147.423 169.385 190.472  0.00  0.00    +0.066 C 
ATOM     17  C   UNL     1     147.518 169.227 188.931  0.00  0.00    -0.005 C 
ATOM     18  C   UNL     1     147.693 167.844 188.330  0.00  0.00    -0.070 C 
ATOM     19  C   UNL     1     146.896 167.434 187.318  0.00  0.00    -0.062 C 
ATOM     20  C   UNL     1     146.988 166.157 186.640  0.00  0.00    -0.055 C 
ATOM     21  C   UNL     1     148.076 165.756 185.965  0.00  0.00    +0.023 C 
ATOM     22  C   UNL     1     148.137 164.380 185.450  0.00  0.00    +0.332 C 
ATOM     23  O   UNL     1     147.169 163.679 185.193  0.00  0.00    -0.246 OA
ATOM     24  O   UNL     1     149.439 164.012 185.402  0.00  0.00    -0.457 OA
ATOM     25  C   UNL     1     149.699 162.590 185.411  0.00  0.00    +0.114 C 
ATOM     26  C   UNL     1     150.745 162.205 184.315  0.00  0.00    +0.012 C 
ATOM     27  C   UNL     1     152.187 162.541 184.616  0.00  0.00    -0.079 C 
ATOM     28  C   UNL     1     153.157 161.607 184.700  0.00  0.00    -0.059 C 
ATOM     29  C   UNL     1     154.612 161.895 184.939  0.00  0.00    +0.079 C 
ATOM     30  C   UNL     1     154.963 162.514 186.306  0.00  0.00    +0.004 C 
ATOM     31  C   UNL     1     154.872 161.551 187.506  0.00  0.00    +0.067 C 
ATOM     32  H   UNL     1     155.234 161.477 189.636  0.00  0.00    +0.037 HD
ATOM     33  H   UNL     1     154.267 163.602 189.699  0.00  0.00    +0.057 HD
ATOM     34  H   UNL     1     156.845 164.502 188.315  0.00  0.00    +0.059 HD
ATOM     35  H   UNL     1     156.598 166.360 189.788  0.00  0.00    +0.064 HD
ATOM     36  H   UNL     1     154.672 167.433 190.529  0.00  0.00    +0.032 HD
ATOM     37  H   UNL     1     154.592 165.765 191.071  0.00  0.00    +0.032 HD
ATOM     38  H   UNL     1     153.018 165.447 188.940  0.00  0.00    +0.060 HD
ATOM     39  H   UNL     1     151.014 166.243 190.145  0.00  0.00    +0.036 HD
ATOM     40  H   UNL     1     152.990 167.748 191.835  0.00  0.00    +0.074 HD
ATOM     41  H   UNL     1     151.234 168.818 190.185  0.00  0.00    +0.035 HD
ATOM     42  H   UNL     1     151.595 169.534 191.749  0.00  0.00    +0.035 HD
ATOM     43  H   UNL     1     148.296 167.696 192.996  0.00  0.00    +0.069 HD
ATOM     44  H   UNL     1     149.344 170.410 190.560  0.00  0.00    +0.034 HD
ATOM     45  H   UNL     1     148.515 170.280 192.083  0.00  0.00    +0.034 HD
ATOM     46  H   UNL     1     146.829 170.297 190.637  0.00  0.00    +0.060 HD
ATOM     47  H   UNL     1     148.322 169.873 188.549  0.00  0.00    +0.034 HD
ATOM     48  H   UNL     1     146.593 169.655 188.524  0.00  0.00    +0.034 HD
ATOM     49  H   UNL     1     146.083 168.071 186.969  0.00  0.00    +0.062 HD
ATOM     50  H   UNL     1     146.113 165.512 186.717  0.00  0.00    +0.062 HD
ATOM     51  H   UNL     1     148.964 166.365 185.865  0.00  0.00    +0.069 HD
ATOM     52  H   UNL     1     148.792 162.060 185.097  0.00  0.00    +0.074 HD
ATOM     53  H   UNL     1     150.667 161.114 184.212  0.00  0.00    +0.038 HD
ATOM     54  H   UNL     1     152.437 163.595 184.742  0.00  0.00    +0.057 HD
ATOM     55  H   UNL     1     152.892 160.559 184.546  0.00  0.00    +0.059 HD
ATOM     56  H   UNL     1     154.947 162.593 184.157  0.00  0.00    +0.064 HD
ATOM     57  H   UNL     1     154.329 163.394 186.469  0.00  0.00    +0.032 HD
ATOM     58  H   UNL     1     156.000 162.863 186.228  0.00  0.00    +0.032 HD
ATOM     59  H   UNL     1     155.357 160.601 187.239  0.00  0.00    +0.060 HD
ENDROOT
BRANCH   1  60
ATOM     60  C   UNL     1     157.097 161.856 188.704  0.00  0.00    -0.057 C 
ATOM     61  H   UNL     1     157.407 161.722 187.663  0.00  0.00    +0.024 HD
ATOM     62  H   UNL     1     157.385 160.950 189.248  0.00  0.00    +0.024 HD
ATOM     63  H   UNL     1     157.673 162.691 189.113  0.00  0.00    +0.024 HD
ENDBRANCH   1  60
BRANCH  26  64
ATOM     64  C   UNL     1     150.354 162.821 182.964  0.00  0.00    -0.056 C 
ATOM     65  H   UNL     1     151.238 163.171 182.416  0.00  0.00    +0.024 HD
ATOM     66  H   UNL     1     149.681 163.672 183.099  0.00  0.00    +0.024 HD
ATOM     67  H   UNL     1     149.830 162.088 182.345  0.00  0.00    +0.024 HD
ENDBRANCH  26  64
BRANCH  18  68
ATOM     68  C   UNL     1     148.797 167.014 188.914  0.00  0.00    -0.043 C 
ATOM     69  H   UNL     1     149.764 167.333 188.519  0.00  0.00    +0.027 HD
ATOM     70  H   UNL     1     148.882 167.081 190.000  0.00  0.00    +0.027 HD
ATOM     71  H   UNL     1     148.616 165.968 188.663  0.00  0.00    +0.027 HD
ENDBRANCH  18  68
BRANCH   7  72
ATOM     72  C   UNL     1     152.037 164.847 191.349  0.00  0.00    -0.057 C 
ATOM     73  H   UNL     1     152.082 164.952 192.434  0.00  0.00    +0.023 HD
ATOM     74  H   UNL     1     151.175 164.221 191.103  0.00  0.00    +0.023 HD
ATOM     75  H   UNL     1     152.943 164.312 191.049  0.00  0.00    +0.023 HD
ENDBRANCH   7  72
BRANCH  25  76
ATOM     76  C   UNL     1     150.057 162.143 186.871  0.00  0.00    +0.020 C 
ATOM     77  H   UNL     1     151.047 161.674 186.821  0.00  0.00    +0.036 HD
BRANCH  76  78
ATOM     78  C   UNL     1     150.167 163.346 187.815  0.00  0.00    -0.057 C 
ATOM     79  H   UNL     1     149.224 163.889 187.917  0.00  0.00    +0.023 HD
ATOM     80  H   UNL     1     150.506 163.030 188.803  0.00  0.00    +0.023 HD
ATOM     81  H   UNL     1     150.908 164.071 187.473  0.00  0.00    +0.023 HD
ENDBRANCH  76  78
BRANCH  76  82
ATOM     82  C   UNL     1     149.054 161.033 187.349  0.00  0.00    +0.067 C 
ATOM     83  H   UNL     1     148.667 161.318 188.333  0.00  0.00    +0.060 HD
BRANCH  82  84
ATOM     84  C   UNL     1     149.543 159.565 187.541  0.00  0.00    -0.017 C 
ATOM     85  H   UNL     1     148.756 158.902 187.163  0.00  0.00    +0.032 HD
BRANCH  84  86
ATOM     86  C   UNL     1     150.759 159.316 186.630  0.00  0.00    -0.060 C 
ATOM     87  H   UNL     1     150.663 159.891 185.703  0.00  0.00    +0.023 HD
ATOM     88  H   UNL     1     150.834 158.258 186.348  0.00  0.00    +0.023 HD
ATOM     89  H   UNL     1     151.702 159.603 187.113  0.00  0.00    +0.023 HD
ENDBRANCH  84  86
BRANCH  84  90
ATOM     90  C   UNL     1     149.885 159.074 188.968  0.00  0.00    -0.041 C 
ATOM     91  H   UNL     1     149.720 159.908 189.664  0.00  0.00    +0.027 HD
ATOM     92  H   UNL     1     150.958 158.882 189.039  0.00  0.00    +0.027 HD
BRANCH  90  93
ATOM     93  C   UNL     1     149.135 157.849 189.488  0.00  0.00    +0.007 C 
ATOM     94  H   UNL     1     149.775 157.212 190.103  0.00  0.00    +0.034 HD
ATOM     95  H   UNL     1     148.770 157.243 188.650  0.00  0.00    +0.034 HD
BRANCH  93  96
ATOM     96  C   UNL     1     147.916 158.235 190.317  0.00  0.00    +0.139 C 
ATOM     97  O   UNL     1     148.008 159.139 191.155  0.00  0.00    -0.297 OA
BRANCH  96  98
ATOM     98  C   UNL     1     146.611 157.457 190.104  0.00  0.00    +0.041 C 
ATOM     99  H   UNL     1     146.653 156.628 190.813  0.00  0.00    +0.040 HD
BRANCH  98 100
ATOM    100  C   UNL     1     146.534 156.832 188.709  0.00  0.00    -0.053 C 
ATOM    101  H   UNL     1     146.561 157.585 187.915  0.00  0.00    +0.024 HD
ATOM    102  H   UNL     1     147.385 156.162 188.541  0.00  0.00    +0.024 HD
ATOM    103  H   UNL     1     145.625 156.229 188.596  0.00  0.00    +0.024 HD
ENDBRANCH  98 100
BRANCH  98 104
ATOM    104  C   UNL     1     145.360 158.293 190.469  0.00  0.00    +0.071 C 
ATOM    105  H   UNL     1     145.655 159.243 190.934  0.00  0.00    +0.061 HD
BRANCH 104 106
ATOM    106  C   UNL     1     144.390 158.613 189.305  0.00  0.00    -0.006 C 
ATOM    107  H   UNL     1     144.720 158.093 188.397  0.00  0.00    +0.033 HD
ATOM    108  H   UNL     1     143.419 158.158 189.543  0.00  0.00    +0.033 HD
BRANCH 106 109
ATOM    109  C   UNL     1     144.152 160.077 189.045  0.00  0.00    -0.067 C 
ATOM    110  C   UNL     1     145.111 161.005 189.171  0.00  0.00    -0.005 C 
ATOM    111  H   UNL     1     143.140 160.325 188.733  0.00  0.00    +0.059 HD
ATOM    112  H   UNL     1     146.115 160.684 189.442  0.00  0.00    +0.078 HD
BRANCH 110 113
ATOM    113  N   UNL     1     144.979 162.372 188.991  0.00  0.00    -0.284 N 
ATOM    114  C   UNL     1     143.794 163.092 189.132  0.00  0.00    +0.206 C 
ATOM    115  O   UNL     1     143.671 164.303 188.972  0.00  0.00    -0.279 OA
ATOM    116  H   UNL     1     142.929 162.483 189.421  0.00  0.00    +0.126 HD
BRANCH 113 117
ATOM    117  C   UNL     1     146.189 163.123 188.669  0.00  0.00    +0.007 C 
ATOM    118  H   UNL     1     146.841 162.481 188.064  0.00  0.00    +0.043 HD
ATOM    119  H   UNL     1     146.735 163.432 189.564  0.00  0.00    +0.043 HD
ATOM    120  H   UNL     1     145.922 164.019 188.096  0.00  0.00    +0.043 HD
ENDBRANCH 113 117
ENDBRANCH 110 113
ENDBRANCH 106 109
ENDBRANCH 104 106
BRANCH 104 121
ATOM    121  O   UNL     1     144.570 157.545 191.422  0.00  0.00    -0.379 OA
BRANCH 121 122
ATOM    122  C   UNL     1     143.384 156.988 190.859  0.00  0.00    +0.037 C 
ATOM    123  H   UNL     1     143.666 156.363 190.006  0.00  0.00    +0.052 HD
ATOM    124  H   UNL     1     142.863 156.364 191.587  0.00  0.00    +0.052 HD
ATOM    125  H   UNL     1     142.720 157.783 190.507  0.00  0.00    +0.052 HD
ENDBRANCH 121 122
ENDBRANCH 104 121
ENDBRANCH  98 104
ENDBRANCH  96  98
ENDBRANCH  93  96
ENDBRANCH  90  93
ENDBRANCH  84  90
ENDBRANCH  82  84
BRANCH  82 126
ATOM    126  O   UNL     1     147.934 161.020 186.442  0.00  0.00    -0.379 OA
BRANCH 126 127
ATOM    127  C   UNL     1     147.189 159.806 186.482  0.00  0.00    +0.037 C 
ATOM    128  H   UNL     1     147.788 158.978 186.088  0.00  0.00    +0.052 HD
ATOM    129  H   UNL     1     146.861 159.586 187.503  0.00  0.00    +0.052 HD
ATOM    130  H   UNL     1     146.303 159.923 185.848  0.00  0.00    +0.052 HD
ENDBRANCH 126 127
ENDBRANCH  82 126
ENDBRANCH  76  82
ENDBRANCH  25  76
BRANCH  31 131
ATOM    131  O   UNL     1     153.487 161.311 187.813  0.00  0.00    -0.379 OA
BRANCH 131 132
ATOM    132  C   UNL     1     153.327 160.384 188.883  0.00  0.00    +0.037 C 
ATOM    133  H   UNL     1     152.283 160.067 188.962  0.00  0.00    +0.052 HD
ATOM    134  H   UNL     1     153.949 159.507 188.678  0.00  0.00    +0.052 HD
ATOM    135  H   UNL     1     153.658 160.832 189.828  0.00  0.00    +0.052 HD
ENDBRANCH 131 132
ENDBRANCH  31 131
BRANCH  29 136
ATOM    136  O   UNL     1     155.312 160.644 184.808  0.00  0.00    -0.376 OA
BRANCH 136 137
ATOM    137  C   UNL     1     154.481 159.584 184.356  0.00  0.00    +0.037 C 
ATOM    138  H   UNL     1     153.860 159.206 185.176  0.00  0.00    +0.052 HD
ATOM    139  H   UNL     1     153.822 159.978 183.574  0.00  0.00    +0.052 HD
ATOM    140  H   UNL     1     155.083 158.777 183.929  0.00  0.00    +0.052 HD
ENDBRANCH 136 137
ENDBRANCH  29 136
BRANCH  16 141
ATOM    141  O   UNL     1     146.743 168.312 191.129  0.00  0.00    -0.379 OA
BRANCH 141 142
ATOM    142  C   UNL     1     145.377 168.184 190.760  0.00  0.00    +0.037 C 
ATOM    143  H   UNL     1     144.988 167.265 191.213  0.00  0.00    +0.052 HD
ATOM    144  H   UNL     1     145.257 168.112 189.674  0.00  0.00    +0.052 HD
ATOM    145  H   UNL     1     144.801 169.032 191.150  0.00  0.00    +0.052 HD
ENDBRANCH 141 142
ENDBRANCH  16 141
BRANCH   6 146
ATOM    146  O   UNL     1     152.845 167.514 188.816  0.00  0.00    -0.379 OA
BRANCH 146 147
ATOM    147  C   UNL     1     152.219 167.233 187.567  0.00  0.00    +0.037 C 
ATOM    148  H   UNL     1     151.710 166.266 187.611  0.00  0.00    +0.052 HD
ATOM    149  H   UNL     1     152.952 167.226 186.752  0.00  0.00    +0.052 HD
ATOM    150  H   UNL     1     151.480 168.014 187.364  0.00  0.00    +0.052 HD
ENDBRANCH 146 147
ENDBRANCH   6 146
BRANCH   4 151
ATOM    151  O   UNL     1     155.634 166.775 188.011  0.00  0.00    -0.376 OA
BRANCH 151 152
ATOM    152  C   UNL     1     156.319 166.112 186.953  0.00  0.00    +0.037 C 
ATOM    153  H   UNL     1     156.165 165.030 187.013  0.00  0.00    +0.052 HD
ATOM    154  H   UNL     1     155.903 166.465 186.010  0.00  0.00    +0.052 HD
ATOM    155  H   UNL     1     157.388 166.340 186.975  0.00  0.00    +0.052 HD
ENDBRANCH 151 152
ENDBRANCH   4 151
TORSDOF 33
ENDMDL
MODEL 8
REMARK VINA RESULT:      -4.9      7.544     12.969
REMARK  Name = Reidispongiolide A_conf3
REMARK  33 active torsions:
REMARK  status: ('A' for Active; 'I' for Inactive)
REMARK    1  A    between atoms: C_1  and  C_2
REMARK    2  A    between atoms: C_5  and  O_67
REMARK    3  A    between atoms: C_7  and  O_65
REMARK    4  A    between atoms: C_8  and  C_64
REMARK    5  A    between atoms: C_17  and  O_62
REMARK    6  A    between atoms: C_19  and  C_61
REMARK    7  A    between atoms: C_26  and  C_38
REMARK    8  A    between atoms: C_27  and  C_37
REMARK    9  A    between atoms: C_30  and  O_35
REMARK   10  A    between atoms: C_32  and  O_33
REMARK   11  A    between atoms: O_33  and  C_34
REMARK   12  A    between atoms: O_35  and  C_36
REMARK   13  A    between atoms: C_38  and  C_39
REMARK   14  A    between atoms: C_38  and  C_40
REMARK   15  A    between atoms: C_40  and  C_41
REMARK   16  A    between atoms: C_40  and  O_59
REMARK   17  A    between atoms: C_41  and  C_42
REMARK   18  A    between atoms: C_41  and  C_43
REMARK   19  A    between atoms: C_43  and  C_44
REMARK   20  A    between atoms: C_44  and  C_45
REMARK   21  A    between atoms: C_45  and  C_47
REMARK   22  A    between atoms: C_47  and  C_48
REMARK   23  A    between atoms: C_47  and  C_49
REMARK   24  A    between atoms: C_49  and  C_50
REMARK   25  A    between atoms: C_49  and  O_57
REMARK   26  A    between atoms: C_50  and  C_51
REMARK   27  A    between atoms: C_52  and  N_53
REMARK   28  A    between atoms: N_53  and  C_54
REMARK   29  A    between atoms: O_57  and  C_58
REMARK   30  A    between atoms: O_59  and  C_60
REMARK   31  A    between atoms: O_62  and  C_63
REMARK   32  A    between atoms: O_65  and  C_66
REMARK   33  A    between atoms: O_67  and  C_68
REMARK                            x       y       z     vdW  Elec       q    Type
REMARK                         _______ _______ _______ _____ _____    ______ ____
ROOT
ATOM      1  C   UNL     1     143.697 171.045 189.147  0.00  0.00    +0.001 C 
ATOM      2  C   UNL     1     144.264 170.528 187.829  0.00  0.00    -0.080 C 
ATOM      3  C   UNL     1     144.603 171.280 186.766  0.00  0.00    -0.059 C 
ATOM      4  C   UNL     1     145.106 170.875 185.404  0.00  0.00    +0.079 C 
ATOM      5  C   UNL     1     145.162 169.376 185.047  0.00  0.00    +0.004 C 
ATOM      6  C   UNL     1     146.286 168.542 185.702  0.00  0.00    +0.067 C 
ATOM      7  C   UNL     1     146.002 167.009 185.676  0.00  0.00    +0.020 C 
ATOM      8  C   UNL     1     145.795 166.426 184.239  0.00  0.00    +0.112 C 
ATOM      9  C   UNL     1     147.079 166.003 183.494  0.00  0.00    +0.006 C 
ATOM     10  C   UNL     1     147.478 164.573 183.751  0.00  0.00    -0.057 C 
ATOM     11  C   UNL     1     146.587 163.718 184.281  0.00  0.00    +0.022 C 
ATOM     12  C   UNL     1     145.190 164.088 184.566  0.00  0.00    +0.332 C 
ATOM     13  O   UNL     1     144.393 163.263 184.995  0.00  0.00    -0.246 OA
ATOM     14  O   UNL     1     144.820 165.351 184.253  0.00  0.00    -0.458 OA
ATOM     15  C   UNL     1     148.811 164.087 183.198  0.00  0.00    -0.004 C 
ATOM     16  C   UNL     1     149.870 163.369 184.088  0.00  0.00    +0.066 C 
ATOM     17  C   UNL     1     150.884 164.317 184.782  0.00  0.00    -0.005 C 
ATOM     18  C   UNL     1     150.612 164.799 186.197  0.00  0.00    -0.070 C 
ATOM     19  C   UNL     1     151.572 164.711 187.145  0.00  0.00    -0.062 C 
ATOM     20  C   UNL     1     151.445 165.167 188.513  0.00  0.00    -0.055 C 
ATOM     21  C   UNL     1     151.213 166.446 188.847  0.00  0.00    +0.023 C 
ATOM     22  C   UNL     1     150.938 166.785 190.251  0.00  0.00    +0.332 C 
ATOM     23  O   UNL     1     151.296 166.129 191.219  0.00  0.00    -0.246 OA
ATOM     24  O   UNL     1     150.151 167.886 190.266  0.00  0.00    -0.457 OA
ATOM     25  C   UNL     1     149.369 168.094 191.464  0.00  0.00    +0.114 C 
ATOM     26  C   UNL     1     149.475 169.574 191.951  0.00  0.00    +0.012 C 
ATOM     27  C   UNL     1     148.680 170.596 191.172  0.00  0.00    -0.079 C 
ATOM     28  C   UNL     1     147.707 171.349 191.727  0.00  0.00    -0.059 C 
ATOM     29  C   UNL     1     146.928 172.416 191.010  0.00  0.00    +0.079 C 
ATOM     30  C   UNL     1     146.026 171.935 189.857  0.00  0.00    +0.004 C 
ATOM     31  C   UNL     1     144.753 171.182 190.288  0.00  0.00    +0.067 C 
ATOM     32  H   UNL     1     142.971 170.280 189.463  0.00  0.00    +0.037 HD
ATOM     33  H   UNL     1     144.373 169.448 187.791  0.00  0.00    +0.057 HD
ATOM     34  H   UNL     1     144.502 172.360 186.852  0.00  0.00    +0.059 HD
ATOM     35  H   UNL     1     144.385 171.328 184.706  0.00  0.00    +0.064 HD
ATOM     36  H   UNL     1     145.295 169.321 183.962  0.00  0.00    +0.032 HD
ATOM     37  H   UNL     1     144.181 168.947 185.265  0.00  0.00    +0.032 HD
ATOM     38  H   UNL     1     146.397 168.848 186.749  0.00  0.00    +0.060 HD
ATOM     39  H   UNL     1     146.880 166.515 186.098  0.00  0.00    +0.036 HD
ATOM     40  H   UNL     1     145.323 167.196 183.620  0.00  0.00    +0.074 HD
ATOM     41  H   UNL     1     147.907 166.678 183.731  0.00  0.00    +0.035 HD
ATOM     42  H   UNL     1     146.898 166.094 182.415  0.00  0.00    +0.035 HD
ATOM     43  H   UNL     1     146.808 162.664 184.425  0.00  0.00    +0.069 HD
ATOM     44  H   UNL     1     149.303 164.907 182.653  0.00  0.00    +0.034 HD
ATOM     45  H   UNL     1     148.541 163.364 182.409  0.00  0.00    +0.034 HD
ATOM     46  H   UNL     1     150.461 162.787 183.365  0.00  0.00    +0.060 HD
ATOM     47  H   UNL     1     151.054 165.197 184.145  0.00  0.00    +0.034 HD
ATOM     48  H   UNL     1     151.844 163.783 184.789  0.00  0.00    +0.034 HD
ATOM     49  H   UNL     1     152.527 164.237 186.914  0.00  0.00    +0.062 HD
ATOM     50  H   UNL     1     151.536 164.400 189.282  0.00  0.00    +0.062 HD
ATOM     51  H   UNL     1     151.116 167.236 188.116  0.00  0.00    +0.069 HD
ATOM     52  H   UNL     1     149.816 167.521 192.285  0.00  0.00    +0.074 HD
ATOM     53  H   UNL     1     149.095 169.567 192.983  0.00  0.00    +0.038 HD
ATOM     54  H   UNL     1     148.938 170.734 190.122  0.00  0.00    +0.057 HD
ATOM     55  H   UNL     1     147.478 171.215 192.786  0.00  0.00    +0.059 HD
ATOM     56  H   UNL     1     147.651 173.134 190.596  0.00  0.00    +0.064 HD
ATOM     57  H   UNL     1     146.624 171.322 189.172  0.00  0.00    +0.032 HD
ATOM     58  H   UNL     1     145.720 172.837 189.310  0.00  0.00    +0.032 HD
ATOM     59  H   UNL     1     144.275 171.732 191.111  0.00  0.00    +0.060 HD
ENDROOT
BRANCH   1  60
ATOM     60  C   UNL     1     142.889 172.344 189.001  0.00  0.00    -0.057 C 
ATOM     61  H   UNL     1     142.727 172.577 187.943  0.00  0.00    +0.024 HD
ATOM     62  H   UNL     1     143.425 173.191 189.442  0.00  0.00    +0.024 HD
ATOM     63  H   UNL     1     141.907 172.283 189.477  0.00  0.00    +0.024 HD
ENDBRANCH   1  60
BRANCH  26  64
ATOM     64  C   UNL     1     150.944 170.015 192.009  0.00  0.00    -0.056 C 
ATOM     65  H   UNL     1     151.563 169.426 191.320  0.00  0.00    +0.024 HD
ATOM     66  H   UNL     1     151.352 169.894 193.015  0.00  0.00    +0.024 HD
ATOM     67  H   UNL     1     151.040 171.070 191.743  0.00  0.00    +0.024 HD
ENDBRANCH  26  64
BRANCH  18  68
ATOM     68  C   UNL     1     149.251 165.379 186.436  0.00  0.00    -0.043 C 
ATOM     69  H   UNL     1     149.313 166.231 187.116  0.00  0.00    +0.027 HD
ATOM     70  H   UNL     1     148.757 165.752 185.537  0.00  0.00    +0.027 HD
ATOM     71  H   UNL     1     148.612 164.604 186.862  0.00  0.00    +0.027 HD
ENDBRANCH  18  68
BRANCH   7  72
ATOM     72  C   UNL     1     144.846 166.679 186.630  0.00  0.00    -0.057 C 
ATOM     73  H   UNL     1     144.879 165.630 186.931  0.00  0.00    +0.023 HD
ATOM     74  H   UNL     1     144.868 167.293 187.535  0.00  0.00    +0.023 HD
ATOM     75  H   UNL     1     143.882 166.833 186.138  0.00  0.00    +0.023 HD
ENDBRANCH   7  72
BRANCH  25  76
ATOM     76  C   UNL     1     147.911 167.565 191.223  0.00  0.00    +0.020 C 
ATOM     77  H   UNL     1     147.239 168.249 191.754  0.00  0.00    +0.036 HD
BRANCH  76  78
ATOM     78  C   UNL     1     147.536 167.612 189.738  0.00  0.00    -0.057 C 
ATOM     79  H   UNL     1     147.896 166.742 189.185  0.00  0.00    +0.023 HD
ATOM     80  H   UNL     1     146.454 167.689 189.617  0.00  0.00    +0.023 HD
ATOM     81  H   UNL     1     147.946 168.491 189.238  0.00  0.00    +0.023 HD
ENDBRANCH  76  78
BRANCH  76  82
ATOM     82  C   UNL     1     147.740 166.154 191.892  0.00  0.00    +0.067 C 
ATOM     83  H   UNL     1     148.528 165.495 191.511  0.00  0.00    +0.060 HD
BRANCH  82  84
ATOM     84  C   UNL     1     146.426 165.342 191.684  0.00  0.00    -0.017 C 
ATOM     85  H   UNL     1     146.539 164.387 192.211  0.00  0.00    +0.032 HD
BRANCH  84  86
ATOM     86  C   UNL     1     145.269 166.066 192.397  0.00  0.00    -0.060 C 
ATOM     87  H   UNL     1     145.052 167.017 191.899  0.00  0.00    +0.023 HD
ATOM     88  H   UNL     1     145.526 166.296 193.438  0.00  0.00    +0.023 HD
ATOM     89  H   UNL     1     144.348 165.467 192.402  0.00  0.00    +0.023 HD
ENDBRANCH  84  86
BRANCH  84  90
ATOM     90  C   UNL     1     145.982 165.001 190.241  0.00  0.00    -0.041 C 
ATOM     91  H   UNL     1     146.550 164.120 189.910  0.00  0.00    +0.027 HD
ATOM     92  H   UNL     1     146.308 165.792 189.563  0.00  0.00    +0.027 HD
BRANCH  90  93
ATOM     93  C   UNL     1     144.496 164.740 190.008  0.00  0.00    +0.007 C 
ATOM     94  H   UNL     1     143.937 165.669 189.869  0.00  0.00    +0.034 HD
ATOM     95  H   UNL     1     144.061 164.217 190.869  0.00  0.00    +0.034 HD
BRANCH  93  96
ATOM     96  C   UNL     1     144.255 163.857 188.788  0.00  0.00    +0.139 C 
ATOM     97  O   UNL     1     145.191 163.208 188.310  0.00  0.00    -0.297 OA
BRANCH  96  98
ATOM     98  C   UNL     1     142.850 163.832 188.172  0.00  0.00    +0.041 C 
ATOM     99  H   UNL     1     142.989 164.130 187.131  0.00  0.00    +0.040 HD
BRANCH  98 100
ATOM    100  C   UNL     1     141.924 164.874 188.803  0.00  0.00    -0.053 C 
ATOM    101  H   UNL     1     142.404 165.853 188.896  0.00  0.00    +0.024 HD
ATOM    102  H   UNL     1     141.029 165.015 188.186  0.00  0.00    +0.024 HD
ATOM    103  H   UNL     1     141.582 164.551 189.793  0.00  0.00    +0.024 HD
ENDBRANCH  98 100
BRANCH  98 104
ATOM    104  C   UNL     1     142.243 162.408 188.150  0.00  0.00    +0.071 C 
ATOM    105  H   UNL     1     142.784 161.770 187.440  0.00  0.00    +0.061 HD
BRANCH 104 106
ATOM    106  C   UNL     1     142.189 161.668 189.509  0.00  0.00    -0.006 C 
ATOM    107  H   UNL     1     142.316 162.389 190.327  0.00  0.00    +0.033 HD
ATOM    108  H   UNL     1     141.170 161.282 189.642  0.00  0.00    +0.033 HD
BRANCH 106 109
ATOM    109  C   UNL     1     143.135 160.505 189.651  0.00  0.00    -0.067 C 
ATOM    110  C   UNL     1     142.719 159.235 189.744  0.00  0.00    -0.005 C 
ATOM    111  H   UNL     1     144.189 160.774 189.658  0.00  0.00    +0.059 HD
ATOM    112  H   UNL     1     141.652 159.028 189.682  0.00  0.00    +0.078 HD
BRANCH 110 113
ATOM    113  N   UNL     1     143.507 158.108 189.914  0.00  0.00    -0.284 N 
ATOM    114  C   UNL     1     143.294 157.113 190.867  0.00  0.00    +0.206 C 
ATOM    115  O   UNL     1     143.990 156.113 191.023  0.00  0.00    -0.279 OA
ATOM    116  H   UNL     1     142.413 157.276 191.498  0.00  0.00    +0.126 HD
BRANCH 113 117
ATOM    117  C   UNL     1     144.626 157.930 188.992  0.00  0.00    +0.007 C 
ATOM    118  H   UNL     1     144.334 158.335 188.016  0.00  0.00    +0.043 HD
ATOM    119  H   UNL     1     144.897 156.878 188.868  0.00  0.00    +0.043 HD
ATOM    120  H   UNL     1     145.500 158.474 189.369  0.00  0.00    +0.043 HD
ENDBRANCH 113 117
ENDBRANCH 110 113
ENDBRANCH 106 109
ENDBRANCH 104 106
BRANCH 104 121
ATOM    121  O   UNL     1     140.865 162.503 187.720  0.00  0.00    -0.379 OA
BRANCH 121 122
ATOM    122  C   UNL     1     140.709 162.430 186.304  0.00  0.00    +0.037 C 
ATOM    123  H   UNL     1     141.323 163.212 185.847  0.00  0.00    +0.052 HD
ATOM    124  H   UNL     1     141.041 161.463 185.925  0.00  0.00    +0.052 HD
ATOM    125  H   UNL     1     139.664 162.599 186.027  0.00  0.00    +0.052 HD
ENDBRANCH 121 122
ENDBRANCH 104 121
ENDBRANCH  98 104
ENDBRANCH  96  98
ENDBRANCH  93  96
ENDBRANCH  90  93
ENDBRANCH  84  90
ENDBRANCH  82  84
BRANCH  82 126
ATOM    126  O   UNL     1     147.960 166.300 193.309  0.00  0.00    -0.379 OA
BRANCH 126 127
ATOM    127  C   UNL     1     148.832 165.311 193.850  0.00  0.00    +0.037 C 
ATOM    128  H   UNL     1     149.649 165.787 194.403  0.00  0.00    +0.052 HD
ATOM    129  H   UNL     1     148.283 164.623 194.501  0.00  0.00    +0.052 HD
ATOM    130  H   UNL     1     149.263 164.739 193.021  0.00  0.00    +0.052 HD
ENDBRANCH 126 127
ENDBRANCH  82 126
ENDBRANCH  76  82
ENDBRANCH  25  76
BRANCH  31 131
ATOM    131  O   UNL     1     145.115 169.865 190.739  0.00  0.00    -0.379 OA
BRANCH 131 132
ATOM    132  C   UNL     1     143.999 168.980 190.762  0.00  0.00    +0.037 C 
ATOM    133  H   UNL     1     144.080 168.241 189.959  0.00  0.00    +0.052 HD
ATOM    134  H   UNL     1     143.991 168.458 191.724  0.00  0.00    +0.052 HD
ATOM    135  H   UNL     1     143.064 169.544 190.663  0.00  0.00    +0.052 HD
ENDBRANCH 131 132
ENDBRANCH  31 131
BRANCH  29 136
ATOM    136  O   UNL     1     146.106 173.066 191.996  0.00  0.00    -0.376 OA
BRANCH 136 137
ATOM    137  C   UNL     1     146.844 173.540 193.114  0.00  0.00    +0.037 C 
ATOM    138  H   UNL     1     146.804 174.634 193.165  0.00  0.00    +0.052 HD
ATOM    139  H   UNL     1     146.386 173.132 194.022  0.00  0.00    +0.052 HD
ATOM    140  H   UNL     1     147.881 173.198 193.064  0.00  0.00    +0.052 HD
ENDBRANCH 136 137
ENDBRANCH  29 136
BRANCH  16 141
ATOM    141  O   UNL     1     149.243 162.436 184.972  0.00  0.00    -0.379 OA
BRANCH 141 142
ATOM    142  C   UNL     1     149.990 161.245 185.176  0.00  0.00    +0.037 C 
ATOM    143  H   UNL     1     149.392 160.574 185.803  0.00  0.00    +0.052 HD
ATOM    144  H   UNL     1     150.937 161.446 185.688  0.00  0.00    +0.052 HD
ATOM    145  H   UNL     1     150.176 160.748 184.216  0.00  0.00    +0.052 HD
ENDBRANCH 141 142
ENDBRANCH  16 141
BRANCH   6 146
ATOM    146  O   UNL     1     147.511 168.778 184.997  0.00  0.00    -0.379 OA
BRANCH 146 147
ATOM    147  C   UNL     1     148.641 168.815 185.864  0.00  0.00    +0.037 C 
ATOM    148  H   UNL     1     149.544 168.525 185.318  0.00  0.00    +0.052 HD
ATOM    149  H   UNL     1     148.502 168.149 186.723  0.00  0.00    +0.052 HD
ATOM    150  H   UNL     1     148.765 169.838 186.233  0.00  0.00    +0.052 HD
ENDBRANCH 146 147
ENDBRANCH   6 146
BRANCH   4 151
ATOM    151  O   UNL     1     146.365 171.534 185.248  0.00  0.00    -0.376 OA
BRANCH 151 152
ATOM    152  C   UNL     1     146.242 172.920 184.942  0.00  0.00    +0.037 C 
ATOM    153  H   UNL     1     145.366 173.098 184.311  0.00  0.00    +0.052 HD
ATOM    154  H   UNL     1     146.105 173.460 185.878  0.00  0.00    +0.052 HD
ATOM    155  H   UNL     1     147.142 173.293 184.447  0.00  0.00    +0.052 HD
ENDBRANCH 151 152
ENDBRANCH   4 151
TORSDOF 33
ENDMDL
MODEL 9
REMARK VINA RESULT:      -4.9      2.253      4.056
REMARK  Name = Reidispongiolide A_conf3
REMARK  33 active torsions:
REMARK  status: ('A' for Active; 'I' for Inactive)
REMARK    1  A    between atoms: C_1  and  C_2
REMARK    2  A    between atoms: C_5  and  O_67
REMARK    3  A    between atoms: C_7  and  O_65
REMARK    4  A    between atoms: C_8  and  C_64
REMARK    5  A    between atoms: C_17  and  O_62
REMARK    6  A    between atoms: C_19  and  C_61
REMARK    7  A    between atoms: C_26  and  C_38
REMARK    8  A    between atoms: C_27  and  C_37
REMARK    9  A    between atoms: C_30  and  O_35
REMARK   10  A    between atoms: C_32  and  O_33
REMARK   11  A    between atoms: O_33  and  C_34
REMARK   12  A    between atoms: O_35  and  C_36
REMARK   13  A    between atoms: C_38  and  C_39
REMARK   14  A    between atoms: C_38  and  C_40
REMARK   15  A    between atoms: C_40  and  C_41
REMARK   16  A    between atoms: C_40  and  O_59
REMARK   17  A    between atoms: C_41  and  C_42
REMARK   18  A    between atoms: C_41  and  C_43
REMARK   19  A    between atoms: C_43  and  C_44
REMARK   20  A    between atoms: C_44  and  C_45
REMARK   21  A    between atoms: C_45  and  C_47
REMARK   22  A    between atoms: C_47  and  C_48
REMARK   23  A    between atoms: C_47  and  C_49
REMARK   24  A    between atoms: C_49  and  C_50
REMARK   25  A    between atoms: C_49  and  O_57
REMARK   26  A    between atoms: C_50  and  C_51
REMARK   27  A    between atoms: C_52  and  N_53
REMARK   28  A    between atoms: N_53  and  C_54
REMARK   29  A    between atoms: O_57  and  C_58
REMARK   30  A    between atoms: O_59  and  C_60
REMARK   31  A    between atoms: O_62  and  C_63
REMARK   32  A    between atoms: O_65  and  C_66
REMARK   33  A    between atoms: O_67  and  C_68
REMARK                            x       y       z     vdW  Elec       q    Type
REMARK                         _______ _______ _______ _____ _____    ______ ____
ROOT
ATOM      1  C   UNL     1     160.038 171.989 183.615  0.00  0.00    +0.001 C 
ATOM      2  C   UNL     1     159.110 172.501 182.519  0.00  0.00    -0.080 C 
ATOM      3  C   UNL     1     159.493 173.018 181.337  0.00  0.00    -0.059 C 
ATOM      4  C   UNL     1     158.674 173.609 180.218  0.00  0.00    +0.079 C 
ATOM      5  C   UNL     1     157.158 173.795 180.424  0.00  0.00    +0.004 C 
ATOM      6  C   UNL     1     156.284 172.522 180.382  0.00  0.00    +0.067 C 
ATOM      7  C   UNL     1     154.887 172.719 181.048  0.00  0.00    +0.020 C 
ATOM      8  C   UNL     1     154.035 173.865 180.410  0.00  0.00    +0.112 C 
ATOM      9  C   UNL     1     153.179 173.466 179.189  0.00  0.00    +0.006 C 
ATOM     10  C   UNL     1     151.802 172.980 179.556  0.00  0.00    -0.057 C 
ATOM     11  C   UNL     1     151.311 173.230 180.782  0.00  0.00    +0.022 C 
ATOM     12  C   UNL     1     152.032 174.030 181.787  0.00  0.00    +0.332 C 
ATOM     13  O   UNL     1     151.525 174.284 182.873  0.00  0.00    -0.246 OA
ATOM     14  O   UNL     1     153.231 174.534 181.417  0.00  0.00    -0.458 OA
ATOM     15  C   UNL     1     150.921 172.411 178.451  0.00  0.00    -0.004 C 
ATOM     16  C   UNL     1     150.227 171.020 178.573  0.00  0.00    +0.066 C 
ATOM     17  C   UNL     1     151.072 169.826 178.055  0.00  0.00    -0.005 C 
ATOM     18  C   UNL     1     151.927 169.035 179.031  0.00  0.00    -0.070 C 
ATOM     19  C   UNL     1     151.864 167.685 179.054  0.00  0.00    -0.062 C 
ATOM     20  C   UNL     1     152.651 166.822 179.910  0.00  0.00    -0.055 C 
ATOM     21  C   UNL     1     153.992 166.773 179.876  0.00  0.00    +0.023 C 
ATOM     22  C   UNL     1     154.710 165.989 180.893  0.00  0.00    +0.332 C 
ATOM     23  O   UNL     1     154.244 165.045 181.514  0.00  0.00    -0.246 OA
ATOM     24  O   UNL     1     155.925 166.557 181.073  0.00  0.00    -0.457 OA
ATOM     25  C   UNL     1     156.578 166.277 182.332  0.00  0.00    +0.114 C 
ATOM     26  C   UNL     1     158.073 165.882 182.112  0.00  0.00    +0.012 C 
ATOM     27  C   UNL     1     159.025 167.012 181.791  0.00  0.00    -0.079 C 
ATOM     28  C   UNL     1     160.080 167.327 182.570  0.00  0.00    -0.059 C 
ATOM     29  C   UNL     1     161.087 168.401 182.265  0.00  0.00    +0.079 C 
ATOM     30  C   UNL     1     160.549 169.846 182.248  0.00  0.00    +0.004 C 
ATOM     31  C   UNL     1     160.214 170.438 183.631  0.00  0.00    +0.067 C 
ATOM     32  H   UNL     1     159.546 172.273 184.559  0.00  0.00    +0.037 HD
ATOM     33  H   UNL     1     158.055 172.433 182.768  0.00  0.00    +0.057 HD
ATOM     34  H   UNL     1     160.558 173.046 181.114  0.00  0.00    +0.059 HD
ATOM     35  H   UNL     1     159.092 174.619 180.085  0.00  0.00    +0.064 HD
ATOM     36  H   UNL     1     156.817 174.461 179.625  0.00  0.00    +0.032 HD
ATOM     37  H   UNL     1     157.016 174.335 181.364  0.00  0.00    +0.032 HD
ATOM     38  H   UNL     1     156.801 171.713 180.911  0.00  0.00    +0.060 HD
ATOM     39  H   UNL     1     154.332 171.790 180.904  0.00  0.00    +0.036 HD
ATOM     40  H   UNL     1     154.717 174.648 180.061  0.00  0.00    +0.074 HD
ATOM     41  H   UNL     1     153.697 172.721 178.578  0.00  0.00    +0.035 HD
ATOM     42  H   UNL     1     153.046 174.354 178.556  0.00  0.00    +0.035 HD
ATOM     43  H   UNL     1     150.301 172.954 181.071  0.00  0.00    +0.069 HD
ATOM     44  H   UNL     1     151.461 172.456 177.492  0.00  0.00    +0.034 HD
ATOM     45  H   UNL     1     150.106 173.146 178.335  0.00  0.00    +0.034 HD
ATOM     46  H   UNL     1     149.375 171.098 177.880  0.00  0.00    +0.060 HD
ATOM     47  H   UNL     1     151.716 170.166 177.231  0.00  0.00    +0.034 HD
ATOM     48  H   UNL     1     150.362 169.129 177.591  0.00  0.00    +0.034 HD
ATOM     49  H   UNL     1     151.154 167.159 178.414  0.00  0.00    +0.062 HD
ATOM     50  H   UNL     1     152.091 166.205 180.612  0.00  0.00    +0.062 HD
ATOM     51  H   UNL     1     154.585 167.368 179.196  0.00  0.00    +0.069 HD
ATOM     52  H   UNL     1     156.136 165.373 182.769  0.00  0.00    +0.074 HD
ATOM     53  H   UNL     1     158.396 165.429 183.060  0.00  0.00    +0.038 HD
ATOM     54  H   UNL     1     158.847 167.566 180.869  0.00  0.00    +0.057 HD
ATOM     55  H   UNL     1     160.257 166.745 183.476  0.00  0.00    +0.059 HD
ATOM     56  H   UNL     1     161.510 168.188 181.273  0.00  0.00    +0.064 HD
ATOM     57  H   UNL     1     159.674 169.891 181.588  0.00  0.00    +0.032 HD
ATOM     58  H   UNL     1     161.337 170.461 181.796  0.00  0.00    +0.032 HD
ATOM     59  H   UNL     1     161.035 170.210 184.325  0.00  0.00    +0.060 HD
ENDROOT
BRANCH   1  60
ATOM     60  C   UNL     1     161.407 172.687 183.637  0.00  0.00    -0.057 C 
ATOM     61  H   UNL     1     161.781 172.829 182.618  0.00  0.00    +0.024 HD
ATOM     62  H   UNL     1     162.145 172.084 184.175  0.00  0.00    +0.024 HD
ATOM     63  H   UNL     1     161.367 173.672 184.112  0.00  0.00    +0.024 HD
ENDBRANCH   1  60
BRANCH  26  64
ATOM     64  C   UNL     1     158.187 164.802 181.027  0.00  0.00    -0.056 C 
ATOM     65  H   UNL     1     157.216 164.326 180.837  0.00  0.00    +0.024 HD
ATOM     66  H   UNL     1     158.894 164.022 181.321  0.00  0.00    +0.024 HD
ATOM     67  H   UNL     1     158.550 165.234 180.091  0.00  0.00    +0.024 HD
ENDBRANCH  26  64
BRANCH  18  68
ATOM     68  C   UNL     1     152.827 169.846 179.913  0.00  0.00    -0.043 C 
ATOM     69  H   UNL     1     153.348 170.608 179.330  0.00  0.00    +0.027 HD
ATOM     70  H   UNL     1     152.310 170.383 180.710  0.00  0.00    +0.027 HD
ATOM     71  H   UNL     1     153.548 169.176 180.383  0.00  0.00    +0.027 HD
ENDBRANCH  18  68
BRANCH   7  72
ATOM     72  C   UNL     1     155.053 172.868 182.566  0.00  0.00    -0.057 C 
ATOM     73  H   UNL     1     156.095 173.066 182.824  0.00  0.00    +0.023 HD
ATOM     74  H   UNL     1     154.442 173.678 182.973  0.00  0.00    +0.023 HD
ATOM     75  H   UNL     1     154.776 171.942 183.078  0.00  0.00    +0.023 HD
ENDBRANCH   7  72
BRANCH  25  76
ATOM     76  C   UNL     1     156.334 167.475 183.315  0.00  0.00    +0.020 C 
ATOM     77  H   UNL     1     157.322 167.870 183.578  0.00  0.00    +0.036 HD
BRANCH  76  78
ATOM     78  C   UNL     1     155.553 168.607 182.637  0.00  0.00    -0.057 C 
ATOM     79  H   UNL     1     155.863 169.597 182.979  0.00  0.00    +0.023 HD
ATOM     80  H   UNL     1     155.662 168.553 181.553  0.00  0.00    +0.023 HD
ATOM     81  H   UNL     1     154.480 168.534 182.824  0.00  0.00    +0.023 HD
ENDBRANCH  76  78
BRANCH  76  82
ATOM     82  C   UNL     1     155.689 166.949 184.647  0.00  0.00    +0.067 C 
ATOM     83  H   UNL     1     155.342 167.811 185.226  0.00  0.00    +0.060 HD
BRANCH  82  84
ATOM     84  C   UNL     1     156.542 166.126 185.659  0.00  0.00    -0.017 C 
ATOM     85  H   UNL     1     156.509 165.076 185.344  0.00  0.00    +0.032 HD
BRANCH  84  86
ATOM     86  C   UNL     1     158.019 166.544 185.531  0.00  0.00    -0.060 C 
ATOM     87  H   UNL     1     158.192 167.489 186.056  0.00  0.00    +0.023 HD
ATOM     88  H   UNL     1     158.297 166.701 184.481  0.00  0.00    +0.023 HD
ATOM     89  H   UNL     1     158.699 165.792 185.951  0.00  0.00    +0.023 HD
ENDBRANCH  84  86
BRANCH  84  90
ATOM     90  C   UNL     1     156.150 166.149 187.156  0.00  0.00    -0.041 C 
ATOM     91  H   UNL     1     155.053 166.165 187.221  0.00  0.00    +0.027 HD
ATOM     92  H   UNL     1     156.451 167.102 187.596  0.00  0.00    +0.027 HD
BRANCH  90  93
ATOM     93  C   UNL     1     156.675 165.017 188.037  0.00  0.00    +0.007 C 
ATOM     94  H   UNL     1     157.660 165.248 188.451  0.00  0.00    +0.034 HD
ATOM     95  H   UNL     1     156.769 164.093 187.453  0.00  0.00    +0.034 HD
BRANCH  93  96
ATOM     96  C   UNL     1     155.735 164.713 189.197  0.00  0.00    +0.139 C 
ATOM     97  O   UNL     1     155.367 163.550 189.396  0.00  0.00    -0.297 OA
BRANCH  96  98
ATOM     98  C   UNL     1     155.247 165.878 190.067  0.00  0.00    +0.041 C 
ATOM     99  H   UNL     1     154.973 166.666 189.362  0.00  0.00    +0.040 HD
BRANCH  98 100
ATOM    100  C   UNL     1     156.363 166.449 190.946  0.00  0.00    -0.053 C 
ATOM    101  H   UNL     1     156.086 166.472 192.004  0.00  0.00    +0.024 HD
ATOM    102  H   UNL     1     157.266 165.833 190.866  0.00  0.00    +0.024 HD
ATOM    103  H   UNL     1     156.637 167.462 190.628  0.00  0.00    +0.024 HD
ENDBRANCH  98 100
BRANCH  98 104
ATOM    104  C   UNL     1     153.965 165.524 190.860  0.00  0.00    +0.071 C 
ATOM    105  H   UNL     1     154.012 164.491 191.226  0.00  0.00    +0.061 HD
BRANCH 104 106
ATOM    106  C   UNL     1     153.632 166.441 192.063  0.00  0.00    -0.006 C 
ATOM    107  H   UNL     1     154.560 166.844 192.488  0.00  0.00    +0.033 HD
ATOM    108  H   UNL     1     153.103 167.323 191.677  0.00  0.00    +0.033 HD
BRANCH 106 109
ATOM    109  C   UNL     1     152.763 165.823 193.126  0.00  0.00    -0.067 C 
ATOM    110  C   UNL     1     151.444 166.044 193.209  0.00  0.00    -0.005 C 
ATOM    111  H   UNL     1     153.287 165.169 193.818  0.00  0.00    +0.059 HD
ATOM    112  H   UNL     1     150.971 166.673 192.456  0.00  0.00    +0.078 HD
BRANCH 110 113
ATOM    113  N   UNL     1     150.573 165.554 194.168  0.00  0.00    -0.284 N 
ATOM    114  C   UNL     1     150.953 164.974 195.378  0.00  0.00    +0.206 C 
ATOM    115  O   UNL     1     150.185 164.535 196.231  0.00  0.00    -0.279 OA
ATOM    116  H   UNL     1     152.036 164.939 195.540  0.00  0.00    +0.126 HD
BRANCH 113 117
ATOM    117  C   UNL     1     149.144 165.693 193.907  0.00  0.00    +0.007 C 
ATOM    118  H   UNL     1     148.910 166.763 193.840  0.00  0.00    +0.043 HD
ATOM    119  H   UNL     1     148.533 165.251 194.699  0.00  0.00    +0.043 HD
ATOM    120  H   UNL     1     148.895 165.203 192.959  0.00  0.00    +0.043 HD
ENDBRANCH 113 117
ENDBRANCH 110 113
ENDBRANCH 106 109
ENDBRANCH 104 106
BRANCH 104 121
ATOM    121  O   UNL     1     152.829 165.642 189.972  0.00  0.00    -0.379 OA
BRANCH 121 122
ATOM    122  C   UNL     1     152.689 166.942 189.403  0.00  0.00    +0.037 C 
ATOM    123  H   UNL     1     153.443 167.598 189.849  0.00  0.00    +0.052 HD
ATOM    124  H   UNL     1     152.850 166.914 188.324  0.00  0.00    +0.052 HD
ATOM    125  H   UNL     1     151.697 167.349 189.621  0.00  0.00    +0.052 HD
ENDBRANCH 121 122
ENDBRANCH 104 121
ENDBRANCH  98 104
ENDBRANCH  96  98
ENDBRANCH  93  96
ENDBRANCH  90  93
ENDBRANCH  84  90
ENDBRANCH  82  84
BRANCH  82 126
ATOM    126  O   UNL     1     154.524 166.173 184.304  0.00  0.00    -0.379 OA
BRANCH 126 127
ATOM    127  C   UNL     1     154.517 164.874 184.892  0.00  0.00    +0.037 C 
ATOM    128  H   UNL     1     155.217 164.216 184.367  0.00  0.00    +0.052 HD
ATOM    129  H   UNL     1     154.771 164.928 185.955  0.00  0.00    +0.052 HD
ATOM    130  H   UNL     1     153.509 164.456 184.795  0.00  0.00    +0.052 HD
ENDBRANCH 126 127
ENDBRANCH  82 126
ENDBRANCH  76  82
ENDBRANCH  25  76
BRANCH  31 131
ATOM    131  O   UNL     1     158.997 169.843 184.116  0.00  0.00    -0.379 OA
BRANCH 131 132
ATOM    132  C   UNL     1     158.926 169.851 185.540  0.00  0.00    +0.037 C 
ATOM    133  H   UNL     1     159.429 170.736 185.942  0.00  0.00    +0.052 HD
ATOM    134  H   UNL     1     157.873 169.878 185.833  0.00  0.00    +0.052 HD
ATOM    135  H   UNL     1     159.380 168.940 185.948  0.00  0.00    +0.052 HD
ENDBRANCH 131 132
ENDBRANCH  31 131
BRANCH  29 136
ATOM    136  O   UNL     1     162.116 168.306 183.266  0.00  0.00    -0.376 OA
BRANCH 136 137
ATOM    137  C   UNL     1     161.935 167.208 184.150  0.00  0.00    +0.037 C 
ATOM    138  H   UNL     1     161.497 166.355 183.618  0.00  0.00    +0.052 HD
ATOM    139  H   UNL     1     162.918 166.912 184.531  0.00  0.00    +0.052 HD
ATOM    140  H   UNL     1     161.306 167.494 184.997  0.00  0.00    +0.052 HD
ENDBRANCH 136 137
ENDBRANCH  29 136
BRANCH  16 141
ATOM    141  O   UNL     1     149.691 170.833 179.885  0.00  0.00    -0.379 OA
BRANCH 141 142
ATOM    142  C   UNL     1     148.301 171.109 179.984  0.00  0.00    +0.037 C 
ATOM    143  H   UNL     1     147.865 171.013 178.983  0.00  0.00    +0.052 HD
ATOM    144  H   UNL     1     148.116 172.125 180.347  0.00  0.00    +0.052 HD
ATOM    145  H   UNL     1     147.818 170.376 180.643  0.00  0.00    +0.052 HD
ENDBRANCH 141 142
ENDBRANCH  16 141
BRANCH   6 146
ATOM    146  O   UNL     1     156.073 172.148 179.014  0.00  0.00    -0.379 OA
BRANCH 146 147
ATOM    147  C   UNL     1     156.219 170.746 178.804  0.00  0.00    +0.037 C 
ATOM    148  H   UNL     1     156.893 170.561 177.962  0.00  0.00    +0.052 HD
ATOM    149  H   UNL     1     155.250 170.273 178.609  0.00  0.00    +0.052 HD
ATOM    150  H   UNL     1     156.650 170.301 179.706  0.00  0.00    +0.052 HD
ENDBRANCH 146 147
ENDBRANCH   6 146
BRANCH   4 151
ATOM    151  O   UNL     1     158.989 172.832 179.059  0.00  0.00    -0.376 OA
BRANCH 151 152
ATOM    152  C   UNL     1     160.309 172.296 179.081  0.00  0.00    +0.037 C 
ATOM    153  H   UNL     1     160.719 172.324 180.095  0.00  0.00    +0.052 HD
ATOM    154  H   UNL     1     160.255 171.256 178.763  0.00  0.00    +0.052 HD
ATOM    155  H   UNL     1     160.964 172.842 178.397  0.00  0.00    +0.052 HD
ENDBRANCH 151 152
ENDBRANCH   4 151
TORSDOF 33
ENDMDL
MODEL 10
REMARK VINA RESULT:      -4.9      7.663     12.848
REMARK  Name = Reidispongiolide A_conf3
REMARK  33 active torsions:
REMARK  status: ('A' for Active; 'I' for Inactive)
REMARK    1  A    between atoms: C_1  and  C_2
REMARK    2  A    between atoms: C_5  and  O_67
REMARK    3  A    between atoms: C_7  and  O_65
REMARK    4  A    between atoms: C_8  and  C_64
REMARK    5  A    between atoms: C_17  and  O_62
REMARK    6  A    between atoms: C_19  and  C_61
REMARK    7  A    between atoms: C_26  and  C_38
REMARK    8  A    between atoms: C_27  and  C_37
REMARK    9  A    between atoms: C_30  and  O_35
REMARK   10  A    between atoms: C_32  and  O_33
REMARK   11  A    between atoms: O_33  and  C_34
REMARK   12  A    between atoms: O_35  and  C_36
REMARK   13  A    between atoms: C_38  and  C_39
REMARK   14  A    between atoms: C_38  and  C_40
REMARK   15  A    between atoms: C_40  and  C_41
REMARK   16  A    between atoms: C_40  and  O_59
REMARK   17  A    between atoms: C_41  and  C_42
REMARK   18  A    between atoms: C_41  and  C_43
REMARK   19  A    between atoms: C_43  and  C_44
REMARK   20  A    between atoms: C_44  and  C_45
REMARK   21  A    between atoms: C_45  and  C_47
REMARK   22  A    between atoms: C_47  and  C_48
REMARK   23  A    between atoms: C_47  and  C_49
REMARK   24  A    between atoms: C_49  and  C_50
REMARK   25  A    between atoms: C_49  and  O_57
REMARK   26  A    between atoms: C_50  and  C_51
REMARK   27  A    between atoms: C_52  and  N_53
REMARK   28  A    between atoms: N_53  and  C_54
REMARK   29  A    between atoms: O_57  and  C_58
REMARK   30  A    between atoms: O_59  and  C_60
REMARK   31  A    between atoms: O_62  and  C_63
REMARK   32  A    between atoms: O_65  and  C_66
REMARK   33  A    between atoms: O_67  and  C_68
REMARK                            x       y       z     vdW  Elec       q    Type
REMARK                         _______ _______ _______ _____ _____    ______ ____
ROOT
ATOM      1  C   UNL     1     143.778 171.189 188.958  0.00  0.00    +0.001 C 
ATOM      2  C   UNL     1     144.354 170.634 187.660  0.00  0.00    -0.080 C 
ATOM      3  C   UNL     1     144.774 171.360 186.608  0.00  0.00    -0.059 C 
ATOM      4  C   UNL     1     145.295 170.921 185.263  0.00  0.00    +0.079 C 
ATOM      5  C   UNL     1     145.268 169.422 184.909  0.00  0.00    +0.004 C 
ATOM      6  C   UNL     1     146.315 168.520 185.601  0.00  0.00    +0.067 C 
ATOM      7  C   UNL     1     145.936 167.007 185.566  0.00  0.00    +0.020 C 
ATOM      8  C   UNL     1     145.740 166.435 184.123  0.00  0.00    +0.112 C 
ATOM      9  C   UNL     1     147.019 165.930 183.421  0.00  0.00    +0.006 C 
ATOM     10  C   UNL     1     147.318 164.479 183.691  0.00  0.00    -0.057 C 
ATOM     11  C   UNL     1     146.358 163.683 184.191  0.00  0.00    +0.022 C 
ATOM     12  C   UNL     1     144.978 164.141 184.431  0.00  0.00    +0.332 C 
ATOM     13  O   UNL     1     144.118 163.368 184.834  0.00  0.00    -0.246 OA
ATOM     14  O   UNL     1     144.699 165.424 184.105  0.00  0.00    -0.458 OA
ATOM     15  C   UNL     1     148.635 163.909 183.182  0.00  0.00    -0.004 C 
ATOM     16  C   UNL     1     149.617 163.128 184.107  0.00  0.00    +0.066 C 
ATOM     17  C   UNL     1     150.666 164.011 184.834  0.00  0.00    -0.005 C 
ATOM     18  C   UNL     1     150.378 164.513 186.238  0.00  0.00    -0.070 C 
ATOM     19  C   UNL     1     151.299 164.367 187.217  0.00  0.00    -0.062 C 
ATOM     20  C   UNL     1     151.157 164.833 188.581  0.00  0.00    -0.055 C 
ATOM     21  C   UNL     1     150.995 166.125 188.906  0.00  0.00    +0.023 C 
ATOM     22  C   UNL     1     150.696 166.484 190.300  0.00  0.00    +0.332 C 
ATOM     23  O   UNL     1     150.980 165.809 191.279  0.00  0.00    -0.246 OA
ATOM     24  O   UNL     1     149.980 167.633 190.289  0.00  0.00    -0.457 OA
ATOM     25  C   UNL     1     149.174 167.893 191.460  0.00  0.00    +0.114 C 
ATOM     26  C   UNL     1     149.357 169.364 191.951  0.00  0.00    +0.012 C 
ATOM     27  C   UNL     1     148.653 170.432 191.145  0.00  0.00    -0.079 C 
ATOM     28  C   UNL     1     147.712 171.246 191.668  0.00  0.00    -0.059 C 
ATOM     29  C   UNL     1     147.026 172.359 190.926  0.00  0.00    +0.079 C 
ATOM     30  C   UNL     1     146.134 171.933 189.743  0.00  0.00    +0.004 C 
ATOM     31  C   UNL     1     144.802 171.262 190.133  0.00  0.00    +0.067 C 
ATOM     32  H   UNL     1     142.995 170.472 189.251  0.00  0.00    +0.037 HD
ATOM     33  H   UNL     1     144.396 169.549 187.626  0.00  0.00    +0.057 HD
ATOM     34  H   UNL     1     144.739 172.445 186.691  0.00  0.00    +0.059 HD
ATOM     35  H   UNL     1     144.627 171.418 184.542  0.00  0.00    +0.064 HD
ATOM     36  H   UNL     1     145.433 169.355 183.829  0.00  0.00    +0.032 HD
ATOM     37  H   UNL     1     144.255 169.055 185.095  0.00  0.00    +0.032 HD
ATOM     38  H   UNL     1     146.411 168.821 186.651  0.00  0.00    +0.060 HD
ATOM     39  H   UNL     1     146.767 166.460 186.017  0.00  0.00    +0.036 HD
ATOM     40  H   UNL     1     145.338 167.232 183.489  0.00  0.00    +0.074 HD
ATOM     41  H   UNL     1     147.879 166.552 183.685  0.00  0.00    +0.035 HD
ATOM     42  H   UNL     1     146.879 166.031 182.336  0.00  0.00    +0.035 HD
ATOM     43  H   UNL     1     146.507 162.618 184.344  0.00  0.00    +0.069 HD
ATOM     44  H   UNL     1     149.195 164.695 182.653  0.00  0.00    +0.034 HD
ATOM     45  H   UNL     1     148.346 163.203 182.385  0.00  0.00    +0.034 HD
ATOM     46  H   UNL     1     150.193 162.508 183.403  0.00  0.00    +0.060 HD
ATOM     47  H   UNL     1     150.911 164.878 184.202  0.00  0.00    +0.034 HD
ATOM     48  H   UNL     1     151.589 163.418 184.872  0.00  0.00    +0.034 HD
ATOM     49  H   UNL     1     152.229 163.833 187.018  0.00  0.00    +0.062 HD
ATOM     50  H   UNL     1     151.174 164.064 189.352  0.00  0.00    +0.062 HD
ATOM     51  H   UNL     1     150.972 166.918 188.171  0.00  0.00    +0.069 HD
ATOM     52  H   UNL     1     149.556 167.294 192.296  0.00  0.00    +0.074 HD
ATOM     53  H   UNL     1     148.944 169.383 192.969  0.00  0.00    +0.038 HD
ATOM     54  H   UNL     1     148.955 170.551 190.104  0.00  0.00    +0.057 HD
ATOM     55  H   UNL     1     147.441 171.129 192.718  0.00  0.00    +0.059 HD
ATOM     56  H   UNL     1     147.806 173.029 190.535  0.00  0.00    +0.064 HD
ATOM     57  H   UNL     1     146.714 171.281 189.078  0.00  0.00    +0.032 HD
ATOM     58  H   UNL     1     145.903 172.850 189.187  0.00  0.00    +0.032 HD
ATOM     59  H   UNL     1     144.333 171.843 190.940  0.00  0.00    +0.060 HD
ENDROOT
BRANCH   1  60
ATOM     60  C   UNL     1     143.059 172.536 188.785  0.00  0.00    -0.057 C 
ATOM     61  H   UNL     1     143.234 172.938 187.782  0.00  0.00    +0.024 HD
ATOM     62  H   UNL     1     143.433 173.275 189.501  0.00  0.00    +0.024 HD
ATOM     63  H   UNL     1     141.977 172.454 188.920  0.00  0.00    +0.024 HD
ENDBRANCH   1  60
BRANCH  26  64
ATOM     64  C   UNL     1     150.848 169.711 192.056  0.00  0.00    -0.056 C 
ATOM     65  H   UNL     1     150.996 170.695 192.520  0.00  0.00    +0.024 HD
ATOM     66  H   UNL     1     151.319 169.729 191.070  0.00  0.00    +0.024 HD
ATOM     67  H   UNL     1     151.376 168.964 192.655  0.00  0.00    +0.024 HD
ENDBRANCH  26  64
BRANCH  18  68
ATOM     68  C   UNL     1     149.049 165.178 186.432  0.00  0.00    -0.043 C 
ATOM     69  H   UNL     1     149.019 166.133 185.903  0.00  0.00    +0.027 HD
ATOM     70  H   UNL     1     148.201 164.604 186.058  0.00  0.00    +0.027 HD
ATOM     71  H   UNL     1     148.892 165.336 187.500  0.00  0.00    +0.027 HD
ENDBRANCH  18  68
BRANCH   7  72
ATOM     72  C   UNL     1     144.731 166.753 186.482  0.00  0.00    -0.057 C 
ATOM     73  H   UNL     1     144.920 167.138 187.486  0.00  0.00    +0.023 HD
ATOM     74  H   UNL     1     143.818 167.221 186.105  0.00  0.00    +0.023 HD
ATOM     75  H   UNL     1     144.546 165.681 186.588  0.00  0.00    +0.023 HD
ENDBRANCH   7  72
BRANCH  25  76
ATOM     76  C   UNL     1     147.695 167.456 191.173  0.00  0.00    +0.020 C 
ATOM     77  H   UNL     1     147.051 168.238 191.590  0.00  0.00    +0.036 HD
BRANCH  76  78
ATOM     78  C   UNL     1     147.413 167.385 189.667  0.00  0.00    -0.057 C 
ATOM     79  H   UNL     1     148.279 167.667 189.063  0.00  0.00    +0.023 HD
ATOM     80  H   UNL     1     147.092 166.382 189.383  0.00  0.00    +0.023 HD
ATOM     81  H   UNL     1     146.597 168.046 189.370  0.00  0.00    +0.023 HD
ENDBRANCH  76  78
BRANCH  76  82
ATOM     82  C   UNL     1     147.367 166.135 191.957  0.00  0.00    +0.067 C 
ATOM     83  H   UNL     1     147.960 165.321 191.524  0.00  0.00    +0.060 HD
BRANCH  82  84
ATOM     84  C   UNL     1     145.911 165.578 191.982  0.00  0.00    -0.017 C 
ATOM     85  H   UNL     1     145.970 164.508 192.217  0.00  0.00    +0.032 HD
BRANCH  84  86
ATOM     86  C   UNL     1     145.149 166.213 193.160  0.00  0.00    -0.060 C 
ATOM     87  H   UNL     1     144.645 167.128 192.835  0.00  0.00    +0.023 HD
ATOM     88  H   UNL     1     145.833 166.490 193.971  0.00  0.00    +0.023 HD
ATOM     89  H   UNL     1     144.392 165.535 193.574  0.00  0.00    +0.023 HD
ENDBRANCH  84  86
BRANCH  84  90
ATOM     90  C   UNL     1     145.044 165.703 190.706  0.00  0.00    -0.041 C 
ATOM     91  H   UNL     1     145.660 166.160 189.919  0.00  0.00    +0.027 HD
ATOM     92  H   UNL     1     144.251 166.435 190.876  0.00  0.00    +0.027 HD
BRANCH  90  93
ATOM     93  C   UNL     1     144.418 164.424 190.156  0.00  0.00    +0.007 C 
ATOM     94  H   UNL     1     143.472 164.622 189.644  0.00  0.00    +0.034 HD
ATOM     95  H   UNL     1     144.213 163.719 190.971  0.00  0.00    +0.034 HD
BRANCH  93  96
ATOM     96  C   UNL     1     145.343 163.710 189.177  0.00  0.00    +0.139 C 
ATOM     97  O   UNL     1     146.243 164.343 188.615  0.00  0.00    -0.297 OA
BRANCH  96  98
ATOM     98  C   UNL     1     145.100 162.221 188.897  0.00  0.00    +0.041 C 
ATOM     99  H   UNL     1     145.713 161.689 189.627  0.00  0.00    +0.040 HD
BRANCH  98 100
ATOM    100  C   UNL     1     145.609 161.803 187.515  0.00  0.00    -0.053 C 
ATOM    101  H   UNL     1     146.167 162.604 187.019  0.00  0.00    +0.024 HD
ATOM    102  H   UNL     1     146.288 160.947 187.599  0.00  0.00    +0.024 HD
ATOM    103  H   UNL     1     144.781 161.493 186.866  0.00  0.00    +0.024 HD
ENDBRANCH  98 100
BRANCH  98 104
ATOM    104  C   UNL     1     143.632 161.805 189.159  0.00  0.00    +0.071 C 
ATOM    105  H   UNL     1     143.223 162.355 190.017  0.00  0.00    +0.061 HD
BRANCH 104 106
ATOM    106  C   UNL     1     142.651 161.977 187.972  0.00  0.00    -0.006 C 
ATOM    107  H   UNL     1     143.210 161.961 187.028  0.00  0.00    +0.033 HD
ATOM    108  H   UNL     1     142.017 161.082 187.928  0.00  0.00    +0.033 HD
BRANCH 106 109
ATOM    109  C   UNL     1     141.741 163.173 188.053  0.00  0.00    -0.067 C 
ATOM    110  C   UNL     1     142.026 164.346 187.471  0.00  0.00    -0.005 C 
ATOM    111  H   UNL     1     140.823 163.009 188.612  0.00  0.00    +0.059 HD
ATOM    112  H   UNL     1     142.940 164.430 186.885  0.00  0.00    +0.078 HD
BRANCH 110 113
ATOM    113  N   UNL     1     141.273 165.508 187.521  0.00  0.00    -0.284 N 
ATOM    114  C   UNL     1     141.538 166.604 188.342  0.00  0.00    +0.206 C 
ATOM    115  O   UNL     1     140.874 167.635 188.392  0.00  0.00    -0.279 OA
ATOM    116  H   UNL     1     142.431 166.491 188.968  0.00  0.00    +0.126 HD
BRANCH 113 117
ATOM    117  C   UNL     1     140.136 165.608 186.610  0.00  0.00    +0.007 C 
ATOM    118  H   UNL     1     140.444 165.216 185.633  0.00  0.00    +0.043 HD
ATOM    119  H   UNL     1     139.797 166.639 186.483  0.00  0.00    +0.043 HD
ATOM    120  H   UNL     1     139.303 165.012 187.000  0.00  0.00    +0.043 HD
ENDBRANCH 113 117
ENDBRANCH 110 113
ENDBRANCH 106 109
ENDBRANCH 104 106
BRANCH 104 121
ATOM    121  O   UNL     1     143.603 160.392 189.468  0.00  0.00    -0.379 OA
BRANCH 121 122
ATOM    122  C   UNL     1     142.649 159.664 188.698  0.00  0.00    +0.037 C 
ATOM    123  H   UNL     1     141.689 159.691 189.222  0.00  0.00    +0.052 HD
ATOM    124  H   UNL     1     142.518 160.114 187.713  0.00  0.00    +0.052 HD
ATOM    125  H   UNL     1     142.961 158.621 188.591  0.00  0.00    +0.052 HD
ENDBRANCH 121 122
ENDBRANCH 104 121
ENDBRANCH  98 104
ENDBRANCH  96  98
ENDBRANCH  93  96
ENDBRANCH  90  93
ENDBRANCH  84  90
ENDBRANCH  82  84
BRANCH  82 126
ATOM    126  O   UNL     1     147.809 166.301 193.319  0.00  0.00    -0.379 OA
BRANCH 126 127
ATOM    127  C   UNL     1     148.621 165.226 193.785  0.00  0.00    +0.037 C 
ATOM    128  H   UNL     1     149.680 165.500 193.738  0.00  0.00    +0.052 HD
ATOM    129  H   UNL     1     148.345 164.946 194.807  0.00  0.00    +0.052 HD
ATOM    130  H   UNL     1     148.458 164.362 193.131  0.00  0.00    +0.052 HD
ENDBRANCH 126 127
ENDBRANCH  82 126
ENDBRANCH  76  82
ENDBRANCH  25  76
BRANCH  31 131
ATOM    131  O   UNL     1     145.066 169.926 190.596  0.00  0.00    -0.379 OA
BRANCH 131 132
ATOM    132  C   UNL     1     143.874 169.155 190.719  0.00  0.00    +0.037 C 
ATOM    133  H   UNL     1     143.120 169.707 191.289  0.00  0.00    +0.052 HD
ATOM    134  H   UNL     1     143.484 168.957 189.716  0.00  0.00    +0.052 HD
ATOM    135  H   UNL     1     144.089 168.197 191.206  0.00  0.00    +0.052 HD
ENDBRANCH 131 132
ENDBRANCH  31 131
BRANCH  29 136
ATOM    136  O   UNL     1     146.215 173.062 191.883  0.00  0.00    -0.376 OA
BRANCH 136 137
ATOM    137  C   UNL     1     146.948 173.507 193.017  0.00  0.00    +0.037 C 
ATOM    138  H   UNL     1     147.001 174.601 193.034  0.00  0.00    +0.052 HD
ATOM    139  H   UNL     1     146.422 173.170 193.916  0.00  0.00    +0.052 HD
ATOM    140  H   UNL     1     147.952 173.076 193.019  0.00  0.00    +0.052 HD
ENDBRANCH 136 137
ENDBRANCH  29 136
BRANCH  16 141
ATOM    141  O   UNL     1     148.903 162.238 184.969  0.00  0.00    -0.379 OA
BRANCH 141 142
ATOM    142  C   UNL     1     148.924 160.883 184.543  0.00  0.00    +0.037 C 
ATOM    143  H   UNL     1     149.646 160.343 185.166  0.00  0.00    +0.052 HD
ATOM    144  H   UNL     1     149.233 160.794 183.497  0.00  0.00    +0.052 HD
ATOM    145  H   UNL     1     147.935 160.429 184.685  0.00  0.00    +0.052 HD
ENDBRANCH 141 142
ENDBRANCH  16 141
BRANCH   6 146
ATOM    146  O   UNL     1     147.575 168.676 184.936  0.00  0.00    -0.379 OA
BRANCH 146 147
ATOM    147  C   UNL     1     148.671 168.715 185.846  0.00  0.00    +0.037 C 
ATOM    148  H   UNL     1     148.507 168.003 186.661  0.00  0.00    +0.052 HD
ATOM    149  H   UNL     1     148.806 169.721 186.259  0.00  0.00    +0.052 HD
ATOM    150  H   UNL     1     149.582 168.433 185.309  0.00  0.00    +0.052 HD
ENDBRANCH 146 147
ENDBRANCH   6 146
BRANCH   4 151
ATOM    151  O   UNL     1     146.598 171.500 185.148  0.00  0.00    -0.376 OA
BRANCH 151 152
ATOM    152  C   UNL     1     146.916 171.913 183.823  0.00  0.00    +0.037 C 
ATOM    153  H   UNL     1     147.444 172.872 183.834  0.00  0.00    +0.052 HD
ATOM    154  H   UNL     1     147.576 171.164 183.386  0.00  0.00    +0.052 HD
ATOM    155  H   UNL     1     146.014 171.990 183.210  0.00  0.00    +0.052 HD
ENDBRANCH 151 152
ENDBRANCH   4 151
TORSDOF 33
ENDMDL
