MODEL 1
REMARK VINA RESULT:      -5.5      0.000      0.000
REMARK  Name = Reidispongiolide A_conf2
REMARK  33 active torsions:
REMARK  status: ('A' for Active; 'I' for Inactive)
REMARK    1  A    between atoms: C_1  and  C_2
REMARK    2  A    between atoms: C_5  and  O_67
REMARK    3  A    between atoms: C_7  and  O_65
REMARK    4  A    between atoms: C_8  and  C_64
REMARK    5  A    between atoms: C_17  and  O_62
REMARK    6  A    between atoms: C_19  and  C_61
REMARK    7  A    between atoms: C_26  and  C_38
REMARK    8  A    between atoms: C_27  and  C_37
REMARK    9  A    between atoms: C_30  and  O_35
REMARK   10  A    between atoms: C_32  and  O_33
REMARK   11  A    between atoms: O_33  and  C_34
REMARK   12  A    between atoms: O_35  and  C_36
REMARK   13  A    between atoms: C_38  and  C_39
REMARK   14  A    between atoms: C_38  and  C_40
REMARK   15  A    between atoms: C_40  and  C_41
REMARK   16  A    between atoms: C_40  and  O_59
REMARK   17  A    between atoms: C_41  and  C_42
REMARK   18  A    between atoms: C_41  and  C_43
REMARK   19  A    between atoms: C_43  and  C_44
REMARK   20  A    between atoms: C_44  and  C_45
REMARK   21  A    between atoms: C_45  and  C_47
REMARK   22  A    between atoms: C_47  and  C_48
REMARK   23  A    between atoms: C_47  and  C_49
REMARK   24  A    between atoms: C_49  and  C_50
REMARK   25  A    between atoms: C_49  and  O_57
REMARK   26  A    between atoms: C_50  and  C_51
REMARK   27  A    between atoms: C_52  and  N_53
REMARK   28  A    between atoms: N_53  and  C_54
REMARK   29  A    between atoms: O_57  and  C_58
REMARK   30  A    between atoms: O_59  and  C_60
REMARK   31  A    between atoms: O_62  and  C_63
REMARK   32  A    between atoms: O_65  and  C_66
REMARK   33  A    between atoms: O_67  and  C_68
REMARK                            x       y       z     vdW  Elec       q    Type
REMARK                         _______ _______ _______ _____ _____    ______ ____
ROOT
ATOM      1  C   UNL     1     159.108 165.051 180.047  0.00  0.00    +0.001 C 
ATOM      2  C   UNL     1     160.033 165.206 181.242  0.00  0.00    -0.080 C 
ATOM      3  C   UNL     1     159.910 166.152 182.193  0.00  0.00    -0.059 C 
ATOM      4  C   UNL     1     160.795 166.372 183.396  0.00  0.00    +0.079 C 
ATOM      5  C   UNL     1     161.132 167.869 183.597  0.00  0.00    +0.004 C 
ATOM      6  C   UNL     1     162.326 168.411 182.786  0.00  0.00    +0.067 C 
ATOM      7  C   UNL     1     162.023 169.491 181.704  0.00  0.00    +0.020 C 
ATOM      8  C   UNL     1     161.442 170.876 182.114  0.00  0.00    +0.112 C 
ATOM      9  C   UNL     1     159.932 170.945 182.377  0.00  0.00    +0.006 C 
ATOM     10  C   UNL     1     159.530 172.336 182.770  0.00  0.00    -0.057 C 
ATOM     11  C   UNL     1     160.456 173.146 183.317  0.00  0.00    +0.022 C 
ATOM     12  C   UNL     1     161.827 172.690 183.636  0.00  0.00    +0.332 C 
ATOM     13  O   UNL     1     162.570 173.386 184.312  0.00  0.00    -0.246 OA
ATOM     14  O   UNL     1     162.176 171.450 183.205  0.00  0.00    -0.458 OA
ATOM     15  C   UNL     1     158.071 172.746 182.697  0.00  0.00    -0.004 C 
ATOM     16  C   UNL     1     157.405 172.867 181.304  0.00  0.00    +0.066 C 
ATOM     17  C   UNL     1     156.890 171.535 180.692  0.00  0.00    -0.005 C 
ATOM     18  C   UNL     1     156.161 170.587 181.636  0.00  0.00    -0.070 C 
ATOM     19  C   UNL     1     156.699 169.388 181.929  0.00  0.00    -0.062 C 
ATOM     20  C   UNL     1     156.218 168.371 182.832  0.00  0.00    -0.055 C 
ATOM     21  C   UNL     1     155.870 168.581 184.116  0.00  0.00    +0.023 C 
ATOM     22  C   UNL     1     155.539 167.486 185.058  0.00  0.00    +0.332 C 
ATOM     23  O   UNL     1     155.109 167.687 186.181  0.00  0.00    -0.246 OA
ATOM     24  O   UNL     1     155.857 166.290 184.518  0.00  0.00    -0.457 OA
ATOM     25  C   UNL     1     155.753 165.089 185.338  0.00  0.00    +0.114 C 
ATOM     26  C   UNL     1     154.806 164.129 184.556  0.00  0.00    +0.012 C 
ATOM     27  C   UNL     1     155.189 163.939 183.098  0.00  0.00    -0.079 C 
ATOM     28  C   UNL     1     155.911 162.906 182.636  0.00  0.00    -0.059 C 
ATOM     29  C   UNL     1     156.208 162.642 181.184  0.00  0.00    +0.079 C 
ATOM     30  C   UNL     1     157.605 163.130 180.779  0.00  0.00    +0.004 C 
ATOM     31  C   UNL     1     157.658 164.635 180.447  0.00  0.00    +0.067 C 
ATOM     32  H   UNL     1     159.526 164.245 179.426  0.00  0.00    +0.037 HD
ATOM     33  H   UNL     1     160.857 164.496 181.299  0.00  0.00    +0.057 HD
ATOM     34  H   UNL     1     159.060 166.826 182.132  0.00  0.00    +0.059 HD
ATOM     35  H   UNL     1     160.190 166.051 184.251  0.00  0.00    +0.064 HD
ATOM     36  H   UNL     1     160.226 168.445 183.418  0.00  0.00    +0.032 HD
ATOM     37  H   UNL     1     161.349 167.996 184.669  0.00  0.00    +0.032 HD
ATOM     38  H   UNL     1     162.816 167.567 182.281  0.00  0.00    +0.060 HD
ATOM     39  H   UNL     1     163.015 169.747 181.300  0.00  0.00    +0.036 HD
ATOM     40  H   UNL     1     161.639 171.531 181.247  0.00  0.00    +0.074 HD
ATOM     41  H   UNL     1     159.614 170.288 183.188  0.00  0.00    +0.035 HD
ATOM     42  H   UNL     1     159.414 170.652 181.463  0.00  0.00    +0.035 HD
ATOM     43  H   UNL     1     160.222 174.141 183.675  0.00  0.00    +0.069 HD
ATOM     44  H   UNL     1     157.970 173.725 183.188  0.00  0.00    +0.034 HD
ATOM     45  H   UNL     1     157.494 172.076 183.346  0.00  0.00    +0.034 HD
ATOM     46  H   UNL     1     158.137 173.308 180.611  0.00  0.00    +0.060 HD
ATOM     47  H   UNL     1     157.740 171.017 180.230  0.00  0.00    +0.034 HD
ATOM     48  H   UNL     1     156.208 171.741 179.854  0.00  0.00    +0.034 HD
ATOM     49  H   UNL     1     157.624 169.097 181.431  0.00  0.00    +0.062 HD
ATOM     50  H   UNL     1     156.261 167.357 182.433  0.00  0.00    +0.062 HD
ATOM     51  H   UNL     1     155.852 169.572 184.552  0.00  0.00    +0.069 HD
ATOM     52  H   UNL     1     155.290 165.330 186.304  0.00  0.00    +0.074 HD
ATOM     53  H   UNL     1     154.775 163.146 185.028  0.00  0.00    +0.038 HD
ATOM     54  H   UNL     1     154.815 164.684 182.401  0.00  0.00    +0.057 HD
ATOM     55  H   UNL     1     156.287 162.161 183.337  0.00  0.00    +0.059 HD
ATOM     56  H   UNL     1     155.449 163.097 180.535  0.00  0.00    +0.064 HD
ATOM     57  H   UNL     1     157.926 162.562 179.894  0.00  0.00    +0.032 HD
ATOM     58  H   UNL     1     158.325 162.892 181.571  0.00  0.00    +0.032 HD
ATOM     59  H   UNL     1     157.333 165.204 181.326  0.00  0.00    +0.060 HD
ENDROOT
BRANCH   1  60
ATOM     60  C   UNL     1     159.165 166.301 179.162  0.00  0.00    -0.057 C 
ATOM     61  H   UNL     1     158.658 166.126 178.207  0.00  0.00    +0.024 HD
ATOM     62  H   UNL     1     160.194 166.601 178.949  0.00  0.00    +0.024 HD
ATOM     63  H   UNL     1     158.658 167.147 179.639  0.00  0.00    +0.024 HD
ENDBRANCH   1  60
BRANCH  26  64
ATOM     64  C   UNL     1     153.362 164.655 184.612  0.00  0.00    -0.056 C 
ATOM     65  H   UNL     1     152.788 164.178 185.412  0.00  0.00    +0.024 HD
ATOM     66  H   UNL     1     152.846 164.466 183.664  0.00  0.00    +0.024 HD
ATOM     67  H   UNL     1     153.350 165.736 184.789  0.00  0.00    +0.024 HD
ENDBRANCH  26  64
BRANCH  18  68
ATOM     68  C   UNL     1     154.836 171.084 182.149  0.00  0.00    -0.043 C 
ATOM     69  H   UNL     1     154.567 172.027 181.654  0.00  0.00    +0.027 HD
ATOM     70  H   UNL     1     154.012 170.387 181.956  0.00  0.00    +0.027 HD
ATOM     71  H   UNL     1     154.881 171.262 183.230  0.00  0.00    +0.027 HD
ENDBRANCH  18  68
BRANCH   7  72
ATOM     72  C   UNL     1     161.253 168.890 180.527  0.00  0.00    -0.057 C 
ATOM     73  H   UNL     1     160.522 168.153 180.881  0.00  0.00    +0.023 HD
ATOM     74  H   UNL     1     161.933 168.372 179.839  0.00  0.00    +0.023 HD
ATOM     75  H   UNL     1     160.719 169.655 179.958  0.00  0.00    +0.023 HD
ENDBRANCH   7  72
BRANCH  25  76
ATOM     76  C   UNL     1     157.204 164.571 185.618  0.00  0.00    +0.020 C 
ATOM     77  H   UNL     1     157.456 163.865 184.822  0.00  0.00    +0.036 HD
BRANCH  76  78
ATOM     78  C   UNL     1     158.205 165.742 185.493  0.00  0.00    -0.057 C 
ATOM     79  H   UNL     1     158.133 166.426 186.343  0.00  0.00    +0.023 HD
ATOM     80  H   UNL     1     159.236 165.371 185.443  0.00  0.00    +0.023 HD
ATOM     81  H   UNL     1     158.029 166.345 184.600  0.00  0.00    +0.023 HD
ENDBRANCH  76  78
BRANCH  76  82
ATOM     82  C   UNL     1     157.412 163.901 187.017  0.00  0.00    +0.067 C 
ATOM     83  H   UNL     1     157.383 162.815 186.856  0.00  0.00    +0.060 HD
BRANCH  82  84
ATOM     84  C   UNL     1     156.295 164.263 188.053  0.00  0.00    -0.017 C 
ATOM     85  H   UNL     1     155.346 164.389 187.519  0.00  0.00    +0.032 HD
BRANCH  84  86
ATOM     86  C   UNL     1     156.094 163.093 189.031  0.00  0.00    -0.060 C 
ATOM     87  H   UNL     1     156.400 162.147 188.576  0.00  0.00    +0.023 HD
ATOM     88  H   UNL     1     155.040 162.985 189.305  0.00  0.00    +0.023 HD
ATOM     89  H   UNL     1     156.669 163.234 189.953  0.00  0.00    +0.023 HD
ENDBRANCH  84  86
BRANCH  84  90
ATOM     90  C   UNL     1     156.595 165.568 188.828  0.00  0.00    -0.041 C 
ATOM     91  H   UNL     1     156.226 166.434 188.269  0.00  0.00    +0.027 HD
ATOM     92  H   UNL     1     157.678 165.710 188.923  0.00  0.00    +0.027 HD
BRANCH  90  93
ATOM     93  C   UNL     1     155.956 165.604 190.214  0.00  0.00    +0.007 C 
ATOM     94  H   UNL     1     156.047 164.635 190.713  0.00  0.00    +0.034 HD
ATOM     95  H   UNL     1     156.450 166.338 190.862  0.00  0.00    +0.034 HD
BRANCH  93  96
ATOM     96  C   UNL     1     154.496 166.004 190.128  0.00  0.00    +0.139 C 
ATOM     97  O   UNL     1     154.144 166.897 189.354  0.00  0.00    -0.297 OA
BRANCH  96  98
ATOM     98  C   UNL     1     153.498 165.247 191.000  0.00  0.00    +0.041 C 
ATOM     99  H   UNL     1     154.085 164.611 191.676  0.00  0.00    +0.040 HD
BRANCH  98 100
ATOM    100  C   UNL     1     152.672 164.277 190.144  0.00  0.00    -0.053 C 
ATOM    101  H   UNL     1     153.204 163.332 189.983  0.00  0.00    +0.024 HD
ATOM    102  H   UNL     1     152.474 164.711 189.157  0.00  0.00    +0.024 HD
ATOM    103  H   UNL     1     151.704 164.052 190.601  0.00  0.00    +0.024 HD
ENDBRANCH  98 100
BRANCH  98 104
ATOM    104  C   UNL     1     152.632 166.184 191.876  0.00  0.00    +0.071 C 
ATOM    105  H   UNL     1     152.752 167.207 191.490  0.00  0.00    +0.061 HD
BRANCH 104 106
ATOM    106  C   UNL     1     151.126 165.820 191.909  0.00  0.00    -0.006 C 
ATOM    107  H   UNL     1     150.618 166.181 191.005  0.00  0.00    +0.033 HD
ATOM    108  H   UNL     1     150.997 164.732 191.888  0.00  0.00    +0.033 HD
BRANCH 106 109
ATOM    109  C   UNL     1     150.456 166.324 193.156  0.00  0.00    -0.067 C 
ATOM    110  C   UNL     1     149.610 165.593 193.894  0.00  0.00    -0.005 C 
ATOM    111  H   UNL     1     150.698 167.346 193.432  0.00  0.00    +0.059 HD
ATOM    112  H   UNL     1     149.419 164.562 193.598  0.00  0.00    +0.078 HD
BRANCH 110 113
ATOM    113  N   UNL     1     148.916 166.011 195.017  0.00  0.00    -0.284 N 
ATOM    114  C   UNL     1     149.402 165.971 196.322  0.00  0.00    +0.206 C 
ATOM    115  O   UNL     1     150.516 165.653 196.719  0.00  0.00    -0.279 OA
ATOM    116  H   UNL     1     148.641 166.301 197.051  0.00  0.00    +0.126 HD
BRANCH 113 117
ATOM    117  C   UNL     1     147.625 166.647 194.780  0.00  0.00    +0.007 C 
ATOM    118  H   UNL     1     147.695 167.700 195.073  0.00  0.00    +0.043 HD
ATOM    119  H   UNL     1     147.367 166.570 193.720  0.00  0.00    +0.043 HD
ATOM    120  H   UNL     1     146.832 166.180 195.370  0.00  0.00    +0.043 HD
ENDBRANCH 113 117
ENDBRANCH 110 113
ENDBRANCH 106 109
ENDBRANCH 104 106
BRANCH 104 121
ATOM    121  O   UNL     1     153.158 166.151 193.217  0.00  0.00    -0.379 OA
BRANCH 121 122
ATOM    122  C   UNL     1     153.980 167.271 193.529  0.00  0.00    +0.037 C 
ATOM    123  H   UNL     1     154.160 167.861 192.626  0.00  0.00    +0.052 HD
ATOM    124  H   UNL     1     153.529 167.905 194.299  0.00  0.00    +0.052 HD
ATOM    125  H   UNL     1     154.938 166.896 193.895  0.00  0.00    +0.052 HD
ENDBRANCH 121 122
ENDBRANCH 104 121
ENDBRANCH  98 104
ENDBRANCH  96  98
ENDBRANCH  93  96
ENDBRANCH  90  93
ENDBRANCH  84  90
ENDBRANCH  82  84
BRANCH  82 126
ATOM    126  O   UNL     1     158.667 164.262 187.591  0.00  0.00    -0.379 OA
BRANCH 126 127
ATOM    127  C   UNL     1     159.548 163.158 187.764  0.00  0.00    +0.037 C 
ATOM    128  H   UNL     1     159.377 162.454 186.947  0.00  0.00    +0.052 HD
ATOM    129  H   UNL     1     160.590 163.482 187.735  0.00  0.00    +0.052 HD
ATOM    130  H   UNL     1     159.341 162.649 188.711  0.00  0.00    +0.052 HD
ENDBRANCH 126 127
ENDBRANCH  82 126
ENDBRANCH  76  82
ENDBRANCH  25  76
BRANCH  31 131
ATOM    131  O   UNL     1     156.761 164.866 179.350  0.00  0.00    -0.379 OA
BRANCH 131 132
ATOM    132  C   UNL     1     155.719 165.786 179.653  0.00  0.00    +0.037 C 
ATOM    133  H   UNL     1     155.561 165.870 180.732  0.00  0.00    +0.052 HD
ATOM    134  H   UNL     1     156.006 166.769 179.267  0.00  0.00    +0.052 HD
ATOM    135  H   UNL     1     154.789 165.484 179.164  0.00  0.00    +0.052 HD
ENDBRANCH 131 132
ENDBRANCH  31 131
BRANCH  29 136
ATOM    136  O   UNL     1     156.191 161.218 181.010  0.00  0.00    -0.376 OA
BRANCH 136 137
ATOM    137  C   UNL     1     156.205 160.838 179.639  0.00  0.00    +0.037 C 
ATOM    138  H   UNL     1     157.131 161.164 179.154  0.00  0.00    +0.052 HD
ATOM    139  H   UNL     1     155.360 161.319 179.141  0.00  0.00    +0.052 HD
ATOM    140  H   UNL     1     156.094 159.751 179.543  0.00  0.00    +0.052 HD
ENDBRANCH 136 137
ENDBRANCH  29 136
BRANCH  16 141
ATOM    141  O   UNL     1     156.315 173.799 181.452  0.00  0.00    -0.379 OA
BRANCH 141 142
ATOM    142  C   UNL     1     156.256 174.426 182.729  0.00  0.00    +0.037 C 
ATOM    143  H   UNL     1     156.970 173.971 183.421  0.00  0.00    +0.052 HD
ATOM    144  H   UNL     1     156.526 175.476 182.605  0.00  0.00    +0.052 HD
ATOM    145  H   UNL     1     155.245 174.378 183.144  0.00  0.00    +0.052 HD
ENDBRANCH 141 142
ENDBRANCH  16 141
BRANCH   6 146
ATOM    146  O   UNL     1     163.249 168.936 183.758  0.00  0.00    -0.379 OA
BRANCH 146 147
ATOM    147  C   UNL     1     164.553 168.374 183.678  0.00  0.00    +0.037 C 
ATOM    148  H   UNL     1     164.713 167.615 184.449  0.00  0.00    +0.052 HD
ATOM    149  H   UNL     1     164.660 167.901 182.700  0.00  0.00    +0.052 HD
ATOM    150  H   UNL     1     165.311 169.159 183.765  0.00  0.00    +0.052 HD
ENDBRANCH 146 147
ENDBRANCH   6 146
BRANCH   4 151
ATOM    151  O   UNL     1     161.949 165.537 183.331  0.00  0.00    -0.376 OA
BRANCH 151 152
ATOM    152  C   UNL     1     162.408 165.116 184.612  0.00  0.00    +0.037 C 
ATOM    153  H   UNL     1     162.171 164.060 184.780  0.00  0.00    +0.052 HD
ATOM    154  H   UNL     1     163.495 165.234 184.641  0.00  0.00    +0.052 HD
ATOM    155  H   UNL     1     161.976 165.733 185.404  0.00  0.00    +0.052 HD
ENDBRANCH 151 152
ENDBRANCH   4 151
TORSDOF 33
ENDMDL
MODEL 2
REMARK VINA RESULT:      -5.2      6.828     12.498
REMARK  Name = Reidispongiolide A_conf2
REMARK  33 active torsions:
REMARK  status: ('A' for Active; 'I' for Inactive)
REMARK    1  A    between atoms: C_1  and  C_2
REMARK    2  A    between atoms: C_5  and  O_67
REMARK    3  A    between atoms: C_7  and  O_65
REMARK    4  A    between atoms: C_8  and  C_64
REMARK    5  A    between atoms: C_17  and  O_62
REMARK    6  A    between atoms: C_19  and  C_61
REMARK    7  A    between atoms: C_26  and  C_38
REMARK    8  A    between atoms: C_27  and  C_37
REMARK    9  A    between atoms: C_30  and  O_35
REMARK   10  A    between atoms: C_32  and  O_33
REMARK   11  A    between atoms: O_33  and  C_34
REMARK   12  A    between atoms: O_35  and  C_36
REMARK   13  A    between atoms: C_38  and  C_39
REMARK   14  A    between atoms: C_38  and  C_40
REMARK   15  A    between atoms: C_40  and  C_41
REMARK   16  A    between atoms: C_40  and  O_59
REMARK   17  A    between atoms: C_41  and  C_42
REMARK   18  A    between atoms: C_41  and  C_43
REMARK   19  A    between atoms: C_43  and  C_44
REMARK   20  A    between atoms: C_44  and  C_45
REMARK   21  A    between atoms: C_45  and  C_47
REMARK   22  A    between atoms: C_47  and  C_48
REMARK   23  A    between atoms: C_47  and  C_49
REMARK   24  A    between atoms: C_49  and  C_50
REMARK   25  A    between atoms: C_49  and  O_57
REMARK   26  A    between atoms: C_50  and  C_51
REMARK   27  A    between atoms: C_52  and  N_53
REMARK   28  A    between atoms: N_53  and  C_54
REMARK   29  A    between atoms: O_57  and  C_58
REMARK   30  A    between atoms: O_59  and  C_60
REMARK   31  A    between atoms: O_62  and  C_63
REMARK   32  A    between atoms: O_65  and  C_66
REMARK   33  A    between atoms: O_67  and  C_68
REMARK                            x       y       z     vdW  Elec       q    Type
REMARK                         _______ _______ _______ _____ _____    ______ ____
ROOT
ATOM      1  C   UNL     1     145.816 165.743 184.408  0.00  0.00    +0.001 C 
ATOM      2  C   UNL     1     145.523 164.570 185.328  0.00  0.00    -0.080 C 
ATOM      3  C   UNL     1     146.329 164.150 186.322  0.00  0.00    -0.059 C 
ATOM      4  C   UNL     1     146.107 162.990 187.262  0.00  0.00    +0.079 C 
ATOM      5  C   UNL     1     147.388 162.140 187.439  0.00  0.00    +0.004 C 
ATOM      6  C   UNL     1     147.636 161.055 186.373  0.00  0.00    +0.067 C 
ATOM      7  C   UNL     1     148.887 161.225 185.460  0.00  0.00    +0.020 C 
ATOM      8  C   UNL     1     150.319 161.203 186.072  0.00  0.00    +0.112 C 
ATOM      9  C   UNL     1     150.815 162.501 186.722  0.00  0.00    +0.006 C 
ATOM     10  C   UNL     1     152.199 162.318 187.272  0.00  0.00    -0.057 C 
ATOM     11  C   UNL     1     152.605 161.076 187.597  0.00  0.00    +0.022 C 
ATOM     12  C   UNL     1     151.712 159.899 187.526  0.00  0.00    +0.332 C 
ATOM     13  O   UNL     1     152.051 158.833 188.018  0.00  0.00    -0.246 OA
ATOM     14  O   UNL     1     150.492 160.090 186.961  0.00  0.00    -0.458 OA
ATOM     15  C   UNL     1     153.044 163.534 187.601  0.00  0.00    -0.004 C 
ATOM     16  C   UNL     1     153.544 164.425 186.437  0.00  0.00    +0.066 C 
ATOM     17  C   UNL     1     152.527 165.478 185.917  0.00  0.00    -0.005 C 
ATOM     18  C   UNL     1     151.736 166.241 186.972  0.00  0.00    -0.070 C 
ATOM     19  C   UNL     1     150.402 166.078 187.057  0.00  0.00    -0.062 C 
ATOM     20  C   UNL     1     149.475 166.647 188.005  0.00  0.00    -0.055 C 
ATOM     21  C   UNL     1     149.613 166.600 189.343  0.00  0.00    +0.023 C 
ATOM     22  C   UNL     1     148.561 167.048 190.286  0.00  0.00    +0.332 C 
ATOM     23  O   UNL     1     148.737 167.116 191.490  0.00  0.00    -0.246 OA
ATOM     24  O   UNL     1     147.406 167.277 189.625  0.00  0.00    -0.457 OA
ATOM     25  C   UNL     1     146.199 167.581 190.386  0.00  0.00    +0.114 C 
ATOM     26  C   UNL     1     145.688 168.945 189.832  0.00  0.00    +0.012 C 
ATOM     27  C   UNL     1     145.580 168.994 188.317  0.00  0.00    -0.079 C 
ATOM     28  C   UNL     1     144.445 168.782 187.634  0.00  0.00    -0.059 C 
ATOM     29  C   UNL     1     144.293 168.932 186.144  0.00  0.00    +0.079 C 
ATOM     30  C   UNL     1     144.375 167.585 185.414  0.00  0.00    +0.004 C 
ATOM     31  C   UNL     1     145.820 167.115 185.152  0.00  0.00    +0.067 C 
ATOM     32  H   UNL     1     145.008 165.771 183.662  0.00  0.00    +0.037 HD
ATOM     33  H   UNL     1     144.592 164.038 185.133  0.00  0.00    +0.057 HD
ATOM     34  H   UNL     1     147.234 164.719 186.516  0.00  0.00    +0.059 HD
ATOM     35  H   UNL     1     145.880 163.453 188.228  0.00  0.00    +0.064 HD
ATOM     36  H   UNL     1     148.233 162.819 187.530  0.00  0.00    +0.032 HD
ATOM     37  H   UNL     1     147.301 161.652 188.423  0.00  0.00    +0.032 HD
ATOM     38  H   UNL     1     146.755 161.003 185.718  0.00  0.00    +0.060 HD
ATOM     39  H   UNL     1     148.876 160.325 184.824  0.00  0.00    +0.036 HD
ATOM     40  H   UNL     1     150.987 161.005 185.216  0.00  0.00    +0.074 HD
ATOM     41  H   UNL     1     150.189 162.822 187.555  0.00  0.00    +0.035 HD
ATOM     42  H   UNL     1     150.817 163.283 185.961  0.00  0.00    +0.035 HD
ATOM     43  H   UNL     1     153.569 160.878 188.051  0.00  0.00    +0.069 HD
ATOM     44  H   UNL     1     153.934 163.189 188.148  0.00  0.00    +0.034 HD
ATOM     45  H   UNL     1     152.507 164.134 188.345  0.00  0.00    +0.034 HD
ATOM     46  H   UNL     1     153.824 163.769 185.599  0.00  0.00    +0.060 HD
ATOM     47  H   UNL     1     151.837 164.978 185.226  0.00  0.00    +0.034 HD
ATOM     48  H   UNL     1     153.040 166.227 185.296  0.00  0.00    +0.034 HD
ATOM     49  H   UNL     1     149.907 165.443 186.322  0.00  0.00    +0.062 HD
ATOM     50  H   UNL     1     148.558 167.035 187.560  0.00  0.00    +0.062 HD
ATOM     51  H   UNL     1     150.496 166.187 189.816  0.00  0.00    +0.069 HD
ATOM     52  H   UNL     1     146.444 167.702 191.449  0.00  0.00    +0.074 HD
ATOM     53  H   UNL     1     144.710 169.191 190.249  0.00  0.00    +0.038 HD
ATOM     54  H   UNL     1     146.489 169.250 187.778  0.00  0.00    +0.057 HD
ATOM     55  H   UNL     1     143.535 168.522 188.177  0.00  0.00    +0.059 HD
ATOM     56  H   UNL     1     145.040 169.626 185.737  0.00  0.00    +0.064 HD
ATOM     57  H   UNL     1     143.855 167.685 184.450  0.00  0.00    +0.032 HD
ATOM     58  H   UNL     1     143.826 166.824 185.979  0.00  0.00    +0.032 HD
ATOM     59  H   UNL     1     146.342 167.022 186.111  0.00  0.00    +0.060 HD
ENDROOT
BRANCH   1  60
ATOM     60  C   UNL     1     147.092 165.481 183.599  0.00  0.00    -0.057 C 
ATOM     61  H   UNL     1     147.258 166.276 182.865  0.00  0.00    +0.024 HD
ATOM     62  H   UNL     1     147.045 164.530 183.064  0.00  0.00    +0.024 HD
ATOM     63  H   UNL     1     147.975 165.461 184.248  0.00  0.00    +0.024 HD
ENDBRANCH   1  60
BRANCH  26  64
ATOM     64  C   UNL     1     146.622 170.080 190.288  0.00  0.00    -0.056 C 
ATOM     65  H   UNL     1     147.627 169.712 190.512  0.00  0.00    +0.024 HD
ATOM     66  H   UNL     1     146.227 170.564 191.188  0.00  0.00    +0.024 HD
ATOM     67  H   UNL     1     146.710 170.845 189.508  0.00  0.00    +0.024 HD
ENDBRANCH  26  64
BRANCH  18  68
ATOM     68  C   UNL     1     152.546 167.170 187.835  0.00  0.00    -0.043 C 
ATOM     69  H   UNL     1     153.150 167.840 187.209  0.00  0.00    +0.027 HD
ATOM     70  H   UNL     1     151.928 167.815 188.470  0.00  0.00    +0.027 HD
ATOM     71  H   UNL     1     153.221 166.604 188.487  0.00  0.00    +0.027 HD
ENDBRANCH  18  68
BRANCH   7  72
ATOM     72  C   UNL     1     148.712 162.400 184.496  0.00  0.00    -0.057 C 
ATOM     73  H   UNL     1     149.329 162.258 183.601  0.00  0.00    +0.023 HD
ATOM     74  H   UNL     1     149.028 163.340 184.965  0.00  0.00    +0.023 HD
ATOM     75  H   UNL     1     147.673 162.514 184.180  0.00  0.00    +0.023 HD
ENDBRANCH   7  72
BRANCH  25  76
ATOM     76  C   UNL     1     145.228 166.360 190.253  0.00  0.00    +0.020 C 
ATOM     77  H   UNL     1     144.777 166.410 189.258  0.00  0.00    +0.036 HD
BRANCH  76  78
ATOM     78  C   UNL     1     146.040 165.045 190.297  0.00  0.00    -0.057 C 
ATOM     79  H   UNL     1     145.522 164.236 189.777  0.00  0.00    +0.023 HD
ATOM     80  H   UNL     1     147.022 165.177 189.826  0.00  0.00    +0.023 HD
ATOM     81  H   UNL     1     146.209 164.696 191.317  0.00  0.00    +0.023 HD
ENDBRANCH  76  78
BRANCH  76  82
ATOM     82  C   UNL     1     144.110 166.278 191.346  0.00  0.00    +0.067 C 
ATOM     83  H   UNL     1     143.288 166.922 191.007  0.00  0.00    +0.060 HD
BRANCH  82  84
ATOM     84  C   UNL     1     144.574 166.792 192.750  0.00  0.00    -0.017 C 
ATOM     85  H   UNL     1     145.395 167.505 192.612  0.00  0.00    +0.032 HD
BRANCH  84  86
ATOM     86  C   UNL     1     143.431 167.568 193.424  0.00  0.00    -0.060 C 
ATOM     87  H   UNL     1     143.815 168.225 194.209  0.00  0.00    +0.023 HD
ATOM     88  H   UNL     1     142.720 166.887 193.902  0.00  0.00    +0.023 HD
ATOM     89  H   UNL     1     142.877 168.180 192.703  0.00  0.00    +0.023 HD
ENDBRANCH  84  86
BRANCH  84  90
ATOM     90  C   UNL     1     145.069 165.653 193.673  0.00  0.00    -0.041 C 
ATOM     91  H   UNL     1     144.626 164.700 193.371  0.00  0.00    +0.027 HD
ATOM     92  H   UNL     1     144.733 165.829 194.702  0.00  0.00    +0.027 HD
BRANCH  90  93
ATOM     93  C   UNL     1     146.587 165.483 193.659  0.00  0.00    +0.007 C 
ATOM     94  H   UNL     1     146.867 164.450 193.885  0.00  0.00    +0.034 HD
ATOM     95  H   UNL     1     147.005 165.714 192.673  0.00  0.00    +0.034 HD
BRANCH  93  96
ATOM     96  C   UNL     1     147.247 166.423 194.648  0.00  0.00    +0.139 C 
ATOM     97  O   UNL     1     147.213 167.643 194.461  0.00  0.00    -0.297 OA
BRANCH  96  98
ATOM     98  C   UNL     1     147.914 165.812 195.877  0.00  0.00    +0.041 C 
ATOM     99  H   UNL     1     147.248 165.016 196.237  0.00  0.00    +0.040 HD
BRANCH  98 100
ATOM    100  C   UNL     1     147.973 166.838 197.017  0.00  0.00    -0.053 C 
ATOM    101  H   UNL     1     147.597 166.416 197.956  0.00  0.00    +0.024 HD
ATOM    102  H   UNL     1     147.352 167.709 196.780  0.00  0.00    +0.024 HD
ATOM    103  H   UNL     1     148.991 167.200 197.187  0.00  0.00    +0.024 HD
ENDBRANCH  98 100
BRANCH  98 104
ATOM    104  C   UNL     1     149.283 165.164 195.559  0.00  0.00    +0.071 C 
ATOM    105  H   UNL     1     149.147 164.510 194.686  0.00  0.00    +0.061 HD
BRANCH 104 106
ATOM    106  C   UNL     1     150.419 166.179 195.271  0.00  0.00    -0.006 C 
ATOM    107  H   UNL     1     150.170 167.168 195.676  0.00  0.00    +0.033 HD
ATOM    108  H   UNL     1     151.335 165.883 195.795  0.00  0.00    +0.033 HD
BRANCH 106 109
ATOM    109  C   UNL     1     150.747 166.249 193.806  0.00  0.00    -0.067 C 
ATOM    110  C   UNL     1     151.974 166.497 193.329  0.00  0.00    -0.005 C 
ATOM    111  H   UNL     1     149.909 166.089 193.135  0.00  0.00    +0.059 HD
ATOM    112  H   UNL     1     152.793 166.621 194.037  0.00  0.00    +0.078 HD
BRANCH 110 113
ATOM    113  N   UNL     1     152.335 166.632 192.000  0.00  0.00    -0.284 N 
ATOM    114  C   UNL     1     152.179 167.789 191.239  0.00  0.00    +0.206 C 
ATOM    115  O   UNL     1     151.788 168.895 191.591  0.00  0.00    -0.279 OA
ATOM    116  H   UNL     1     152.485 167.632 190.189  0.00  0.00    +0.126 HD
BRANCH 113 117
ATOM    117  C   UNL     1     153.039 165.503 191.403  0.00  0.00    +0.007 C 
ATOM    118  H   UNL     1     153.600 164.985 192.188  0.00  0.00    +0.043 HD
ATOM    119  H   UNL     1     152.317 164.820 190.947  0.00  0.00    +0.043 HD
ATOM    120  H   UNL     1     153.747 165.830 190.635  0.00  0.00    +0.043 HD
ENDBRANCH 113 117
ENDBRANCH 110 113
ENDBRANCH 106 109
ENDBRANCH 104 106
BRANCH 104 121
ATOM    121  O   UNL     1     149.656 164.339 196.679  0.00  0.00    -0.379 OA
BRANCH 121 122
ATOM    122  C   UNL     1     150.945 163.750 196.542  0.00  0.00    +0.037 C 
ATOM    123  H   UNL     1     151.478 163.798 197.496  0.00  0.00    +0.052 HD
ATOM    124  H   UNL     1     150.884 162.709 196.207  0.00  0.00    +0.052 HD
ATOM    125  H   UNL     1     151.505 164.327 195.803  0.00  0.00    +0.052 HD
ENDBRANCH 121 122
ENDBRANCH 104 121
ENDBRANCH  98 104
ENDBRANCH  96  98
ENDBRANCH  93  96
ENDBRANCH  90  93
ENDBRANCH  84  90
ENDBRANCH  82  84
BRANCH  82 126
ATOM    126  O   UNL     1     143.634 164.944 191.510  0.00  0.00    -0.379 OA
BRANCH 126 127
ATOM    127  C   UNL     1     142.669 164.565 190.535  0.00  0.00    +0.037 C 
ATOM    128  H   UNL     1     142.511 165.413 189.864  0.00  0.00    +0.052 HD
ATOM    129  H   UNL     1     143.020 163.714 189.948  0.00  0.00    +0.052 HD
ATOM    130  H   UNL     1     141.716 164.320 191.015  0.00  0.00    +0.052 HD
ENDBRANCH 126 127
ENDBRANCH  82 126
ENDBRANCH  76  82
ENDBRANCH  25  76
BRANCH  31 131
ATOM    131  O   UNL     1     146.457 168.113 184.338  0.00  0.00    -0.379 OA
BRANCH 131 132
ATOM    132  C   UNL     1     147.551 168.755 184.981  0.00  0.00    +0.037 C 
ATOM    133  H   UNL     1     147.246 169.699 185.442  0.00  0.00    +0.052 HD
ATOM    134  H   UNL     1     147.926 168.090 185.765  0.00  0.00    +0.052 HD
ATOM    135  H   UNL     1     148.360 168.936 184.268  0.00  0.00    +0.052 HD
ENDBRANCH 131 132
ENDBRANCH  31 131
BRANCH  29 136
ATOM    136  O   UNL     1     142.978 169.460 185.913  0.00  0.00    -0.376 OA
BRANCH 136 137
ATOM    137  C   UNL     1     142.075 169.148 186.968  0.00  0.00    +0.037 C 
ATOM    138  H   UNL     1     141.802 168.088 186.947  0.00  0.00    +0.052 HD
ATOM    139  H   UNL     1     141.170 169.746 186.833  0.00  0.00    +0.052 HD
ATOM    140  H   UNL     1     142.520 169.402 187.938  0.00  0.00    +0.052 HD
ENDBRANCH 136 137
ENDBRANCH  29 136
BRANCH  16 141
ATOM    141  O   UNL     1     154.740 165.079 186.907  0.00  0.00    -0.379 OA
BRANCH 141 142
ATOM    142  C   UNL     1     155.233 164.570 188.142  0.00  0.00    +0.037 C 
ATOM    143  H   UNL     1     155.427 165.380 188.850  0.00  0.00    +0.052 HD
ATOM    144  H   UNL     1     154.467 163.921 188.572  0.00  0.00    +0.052 HD
ATOM    145  H   UNL     1     156.139 163.977 187.989  0.00  0.00    +0.052 HD
ENDBRANCH 141 142
ENDBRANCH  16 141
BRANCH   6 146
ATOM    146  O   UNL     1     147.720 159.813 187.095  0.00  0.00    -0.379 OA
BRANCH 146 147
ATOM    147  C   UNL     1     147.363 159.919 188.468  0.00  0.00    +0.037 C 
ATOM    148  H   UNL     1     147.660 159.029 189.031  0.00  0.00    +0.052 HD
ATOM    149  H   UNL     1     147.881 160.784 188.888  0.00  0.00    +0.052 HD
ATOM    150  H   UNL     1     146.285 160.081 188.569  0.00  0.00    +0.052 HD
ENDBRANCH 146 147
ENDBRANCH   6 146
BRANCH   4 151
ATOM    151  O   UNL     1     144.973 162.226 186.859  0.00  0.00    -0.376 OA
BRANCH 151 152
ATOM    152  C   UNL     1     144.073 161.953 187.929  0.00  0.00    +0.037 C 
ATOM    153  H   UNL     1     143.572 162.870 188.256  0.00  0.00    +0.052 HD
ATOM    154  H   UNL     1     143.313 161.256 187.566  0.00  0.00    +0.052 HD
ATOM    155  H   UNL     1     144.594 161.486 188.768  0.00  0.00    +0.052 HD
ENDBRANCH 151 152
ENDBRANCH   4 151
TORSDOF 33
ENDMDL
MODEL 3
REMARK VINA RESULT:      -5.2      6.129     10.864
REMARK  Name = Reidispongiolide A_conf2
REMARK  33 active torsions:
REMARK  status: ('A' for Active; 'I' for Inactive)
REMARK    1  A    between atoms: C_1  and  C_2
REMARK    2  A    between atoms: C_5  and  O_67
REMARK    3  A    between atoms: C_7  and  O_65
REMARK    4  A    between atoms: C_8  and  C_64
REMARK    5  A    between atoms: C_17  and  O_62
REMARK    6  A    between atoms: C_19  and  C_61
REMARK    7  A    between atoms: C_26  and  C_38
REMARK    8  A    between atoms: C_27  and  C_37
REMARK    9  A    between atoms: C_30  and  O_35
REMARK   10  A    between atoms: C_32  and  O_33
REMARK   11  A    between atoms: O_33  and  C_34
REMARK   12  A    between atoms: O_35  and  C_36
REMARK   13  A    between atoms: C_38  and  C_39
REMARK   14  A    between atoms: C_38  and  C_40
REMARK   15  A    between atoms: C_40  and  C_41
REMARK   16  A    between atoms: C_40  and  O_59
REMARK   17  A    between atoms: C_41  and  C_42
REMARK   18  A    between atoms: C_41  and  C_43
REMARK   19  A    between atoms: C_43  and  C_44
REMARK   20  A    between atoms: C_44  and  C_45
REMARK   21  A    between atoms: C_45  and  C_47
REMARK   22  A    between atoms: C_47  and  C_48
REMARK   23  A    between atoms: C_47  and  C_49
REMARK   24  A    between atoms: C_49  and  C_50
REMARK   25  A    between atoms: C_49  and  O_57
REMARK   26  A    between atoms: C_50  and  C_51
REMARK   27  A    between atoms: C_52  and  N_53
REMARK   28  A    between atoms: N_53  and  C_54
REMARK   29  A    between atoms: O_57  and  C_58
REMARK   30  A    between atoms: O_59  and  C_60
REMARK   31  A    between atoms: O_62  and  C_63
REMARK   32  A    between atoms: O_65  and  C_66
REMARK   33  A    between atoms: O_67  and  C_68
REMARK                            x       y       z     vdW  Elec       q    Type
REMARK                         _______ _______ _______ _____ _____    ______ ____
ROOT
ATOM      1  C   UNL     1     148.541 163.254 182.903  0.00  0.00    +0.001 C 
ATOM      2  C   UNL     1     148.151 162.402 184.098  0.00  0.00    -0.080 C 
ATOM      3  C   UNL     1     148.696 162.502 185.326  0.00  0.00    -0.059 C 
ATOM      4  C   UNL     1     148.366 161.684 186.551  0.00  0.00    +0.079 C 
ATOM      5  C   UNL     1     149.642 161.225 187.298  0.00  0.00    +0.004 C 
ATOM      6  C   UNL     1     150.306 159.934 186.778  0.00  0.00    +0.067 C 
ATOM      7  C   UNL     1     151.730 160.064 186.160  0.00  0.00    +0.020 C 
ATOM      8  C   UNL     1     152.928 160.542 187.033  0.00  0.00    +0.112 C 
ATOM      9  C   UNL     1     153.063 162.054 187.258  0.00  0.00    +0.006 C 
ATOM     10  C   UNL     1     154.252 162.353 188.123  0.00  0.00    -0.057 C 
ATOM     11  C   UNL     1     154.701 161.395 188.956  0.00  0.00    +0.022 C 
ATOM     12  C   UNL     1     154.014 160.096 189.125  0.00  0.00    +0.332 C 
ATOM     13  O   UNL     1     154.332 159.339 190.031  0.00  0.00    -0.246 OA
ATOM     14  O   UNL     1     152.984 159.834 188.280  0.00  0.00    -0.458 OA
ATOM     15  C   UNL     1     154.818 163.759 188.163  0.00  0.00    -0.004 C 
ATOM     16  C   UNL     1     155.508 164.316 186.892  0.00  0.00    +0.066 C 
ATOM     17  C   UNL     1     154.553 164.908 185.818  0.00  0.00    -0.005 C 
ATOM     18  C   UNL     1     153.414 165.783 186.327  0.00  0.00    -0.070 C 
ATOM     19  C   UNL     1     152.139 165.378 186.175  0.00  0.00    -0.062 C 
ATOM     20  C   UNL     1     150.923 166.010 186.627  0.00  0.00    -0.055 C 
ATOM     21  C   UNL     1     150.691 166.423 187.887  0.00  0.00    +0.023 C 
ATOM     22  C   UNL     1     149.373 166.916 188.351  0.00  0.00    +0.332 C 
ATOM     23  O   UNL     1     149.200 167.400 189.456  0.00  0.00    -0.246 OA
ATOM     24  O   UNL     1     148.427 166.673 187.419  0.00  0.00    -0.457 OA
ATOM     25  C   UNL     1     147.029 166.942 187.737  0.00  0.00    +0.114 C 
ATOM     26  C   UNL     1     146.528 167.917 186.630  0.00  0.00    +0.012 C 
ATOM     27  C   UNL     1     146.838 167.456 185.216  0.00  0.00    -0.079 C 
ATOM     28  C   UNL     1     145.970 166.802 184.427  0.00  0.00    -0.059 C 
ATOM     29  C   UNL     1     146.219 166.432 182.990  0.00  0.00    +0.079 C 
ATOM     30  C   UNL     1     146.664 164.972 182.834  0.00  0.00    +0.004 C 
ATOM     31  C   UNL     1     148.171 164.760 183.080  0.00  0.00    +0.067 C 
ATOM     32  H   UNL     1     147.974 162.871 182.042  0.00  0.00    +0.037 HD
ATOM     33  H   UNL     1     147.383 161.652 183.914  0.00  0.00    +0.057 HD
ATOM     34  H   UNL     1     149.435 163.280 185.492  0.00  0.00    +0.059 HD
ATOM     35  H   UNL     1     147.826 162.372 187.210  0.00  0.00    +0.064 HD
ATOM     36  H   UNL     1     150.340 162.060 187.316  0.00  0.00    +0.032 HD
ATOM     37  H   UNL     1     149.347 161.070 188.348  0.00  0.00    +0.032 HD
ATOM     38  H   UNL     1     149.654 159.491 186.013  0.00  0.00    +0.060 HD
ATOM     39  H   UNL     1     152.006 159.028 185.907  0.00  0.00    +0.036 HD
ATOM     40  H   UNL     1     153.827 160.227 186.473  0.00  0.00    +0.074 HD
ATOM     41  H   UNL     1     152.196 162.484 187.761  0.00  0.00    +0.035 HD
ATOM     42  H   UNL     1     153.179 162.533 186.286  0.00  0.00    +0.035 HD
ATOM     43  H   UNL     1     155.519 161.560 189.648  0.00  0.00    +0.069 HD
ATOM     44  H   UNL     1     155.558 163.803 188.976  0.00  0.00    +0.034 HD
ATOM     45  H   UNL     1     154.027 164.437 188.503  0.00  0.00    +0.034 HD
ATOM     46  H   UNL     1     156.087 163.502 186.432  0.00  0.00    +0.060 HD
ATOM     47  H   UNL     1     154.148 164.079 185.225  0.00  0.00    +0.034 HD
ATOM     48  H   UNL     1     155.123 165.510 185.095  0.00  0.00    +0.034 HD
ATOM     49  H   UNL     1     151.949 164.452 185.632  0.00  0.00    +0.062 HD
ATOM     50  H   UNL     1     150.125 166.033 185.884  0.00  0.00    +0.062 HD
ATOM     51  H   UNL     1     151.453 166.380 188.656  0.00  0.00    +0.069 HD
ATOM     52  H   UNL     1     146.953 167.444 188.710  0.00  0.00    +0.074 HD
ATOM     53  H   UNL     1     145.450 168.070 186.707  0.00  0.00    +0.038 HD
ATOM     54  H   UNL     1     147.822 167.712 184.831  0.00  0.00    +0.057 HD
ATOM     55  H   UNL     1     144.985 166.543 184.817  0.00  0.00    +0.059 HD
ATOM     56  H   UNL     1     146.959 167.101 182.531  0.00  0.00    +0.064 HD
ATOM     57  H   UNL     1     146.423 164.647 181.812  0.00  0.00    +0.032 HD
ATOM     58  H   UNL     1     146.078 164.333 183.504  0.00  0.00    +0.032 HD
ATOM     59  H   UNL     1     148.415 165.091 184.096  0.00  0.00    +0.060 HD
ENDROOT
BRANCH   1  60
ATOM     60  C   UNL     1     150.013 163.023 182.541  0.00  0.00    -0.057 C 
ATOM     61  H   UNL     1     150.148 162.999 181.454  0.00  0.00    +0.024 HD
ATOM     62  H   UNL     1     150.389 162.082 182.950  0.00  0.00    +0.024 HD
ATOM     63  H   UNL     1     150.646 163.833 182.920  0.00  0.00    +0.024 HD
ENDBRANCH   1  60
BRANCH  26  64
ATOM     64  C   UNL     1     147.153 169.308 186.833  0.00  0.00    -0.056 C 
ATOM     65  H   UNL     1     148.236 169.249 186.971  0.00  0.00    +0.024 HD
ATOM     66  H   UNL     1     146.724 169.797 187.714  0.00  0.00    +0.024 HD
ATOM     67  H   UNL     1     146.958 169.950 185.967  0.00  0.00    +0.024 HD
ENDBRANCH  26  64
BRANCH  18  68
ATOM     68  C   UNL     1     153.834 167.088 186.948  0.00  0.00    -0.043 C 
ATOM     69  H   UNL     1     153.037 167.474 187.597  0.00  0.00    +0.027 HD
ATOM     70  H   UNL     1     154.727 166.996 187.577  0.00  0.00    +0.027 HD
ATOM     71  H   UNL     1     154.043 167.836 186.174  0.00  0.00    +0.027 HD
ENDBRANCH  18  68
BRANCH   7  72
ATOM     72  C   UNL     1     151.686 160.805 184.822  0.00  0.00    -0.057 C 
ATOM     73  H   UNL     1     150.653 161.056 184.556  0.00  0.00    +0.023 HD
ATOM     74  H   UNL     1     152.088 160.178 184.015  0.00  0.00    +0.023 HD
ATOM     75  H   UNL     1     152.267 161.729 184.850  0.00  0.00    +0.023 HD
ENDBRANCH   7  72
BRANCH  25  76
ATOM     76  C   UNL     1     146.289 165.566 187.850  0.00  0.00    +0.020 C 
ATOM     77  H   UNL     1     145.734 165.419 186.919  0.00  0.00    +0.036 HD
BRANCH  76  78
ATOM     78  C   UNL     1     147.328 164.424 187.922  0.00  0.00    -0.057 C 
ATOM     79  H   UNL     1     146.866 163.479 188.218  0.00  0.00    +0.023 HD
ATOM     80  H   UNL     1     147.812 164.275 186.949  0.00  0.00    +0.023 HD
ATOM     81  H   UNL     1     148.113 164.622 188.653  0.00  0.00    +0.023 HD
ENDBRANCH  76  78
BRANCH  76  82
ATOM     82  C   UNL     1     145.327 165.427 189.077  0.00  0.00    +0.067 C 
ATOM     83  H   UNL     1     144.339 165.773 188.746  0.00  0.00    +0.060 HD
BRANCH  82  84
ATOM     84  C   UNL     1     145.755 166.301 190.304  0.00  0.00    -0.017 C 
ATOM     85  H   UNL     1     146.392 167.119 189.950  0.00  0.00    +0.032 HD
BRANCH  84  86
ATOM     86  C   UNL     1     144.514 166.955 190.934  0.00  0.00    -0.060 C 
ATOM     87  H   UNL     1     143.606 166.671 190.395  0.00  0.00    +0.023 HD
ATOM     88  H   UNL     1     144.578 168.047 190.890  0.00  0.00    +0.023 HD
ATOM     89  H   UNL     1     144.395 166.667 191.985  0.00  0.00    +0.023 HD
ENDBRANCH  84  86
BRANCH  84  90
ATOM     90  C   UNL     1     146.540 165.498 191.369  0.00  0.00    -0.041 C 
ATOM     91  H   UNL     1     147.201 164.773 190.885  0.00  0.00    +0.027 HD
ATOM     92  H   UNL     1     145.848 164.910 191.984  0.00  0.00    +0.027 HD
BRANCH  90  93
ATOM     93  C   UNL     1     147.399 166.378 192.273  0.00  0.00    +0.007 C 
ATOM     94  H   UNL     1     148.140 166.933 191.691  0.00  0.00    +0.034 HD
ATOM     95  H   UNL     1     146.791 167.124 192.799  0.00  0.00    +0.034 HD
BRANCH  93  96
ATOM     96  C   UNL     1     148.094 165.549 193.335  0.00  0.00    +0.139 C 
ATOM     97  O   UNL     1     147.437 164.803 194.067  0.00  0.00    -0.297 OA
BRANCH  96  98
ATOM     98  C   UNL     1     149.614 165.648 193.436  0.00  0.00    +0.041 C 
ATOM     99  H   UNL     1     150.004 164.625 193.363  0.00  0.00    +0.040 HD
BRANCH  98 100
ATOM    100  C   UNL     1     150.023 166.141 194.831  0.00  0.00    -0.053 C 
ATOM    101  H   UNL     1     149.147 166.348 195.456  0.00  0.00    +0.024 HD
ATOM    102  H   UNL     1     150.596 167.073 194.754  0.00  0.00    +0.024 HD
ATOM    103  H   UNL     1     150.653 165.413 195.352  0.00  0.00    +0.024 HD
ENDBRANCH  98 100
BRANCH  98 104
ATOM    104  C   UNL     1     150.241 166.469 192.283  0.00  0.00    +0.071 C 
ATOM    105  H   UNL     1     149.420 166.844 191.656  0.00  0.00    +0.061 HD
BRANCH 104 106
ATOM    106  C   UNL     1     151.118 167.660 192.749  0.00  0.00    -0.006 C 
ATOM    107  H   UNL     1     151.219 167.665 193.842  0.00  0.00    +0.033 HD
ATOM    108  H   UNL     1     152.141 167.549 192.372  0.00  0.00    +0.033 HD
BRANCH 106 109
ATOM    109  C   UNL     1     150.594 168.972 192.238  0.00  0.00    -0.067 C 
ATOM    110  C   UNL     1     149.360 169.429 192.486  0.00  0.00    -0.005 C 
ATOM    111  H   UNL     1     151.290 169.545 191.632  0.00  0.00    +0.059 HD
ATOM    112  H   UNL     1     148.704 168.836 193.124  0.00  0.00    +0.078 HD
BRANCH 110 113
ATOM    113  N   UNL     1     148.794 170.596 192.002  0.00  0.00    -0.284 N 
ATOM    114  C   UNL     1     148.974 171.864 192.552  0.00  0.00    +0.206 C 
ATOM    115  O   UNL     1     149.699 172.205 193.478  0.00  0.00    -0.279 OA
ATOM    116  H   UNL     1     148.373 172.626 192.026  0.00  0.00    +0.126 HD
BRANCH 113 117
ATOM    117  C   UNL     1     148.052 170.485 190.752  0.00  0.00    +0.007 C 
ATOM    118  H   UNL     1     148.128 171.436 190.214  0.00  0.00    +0.043 HD
ATOM    119  H   UNL     1     148.473 169.678 190.146  0.00  0.00    +0.043 HD
ATOM    120  H   UNL     1     146.993 170.276 190.929  0.00  0.00    +0.043 HD
ENDBRANCH 113 117
ENDBRANCH 110 113
ENDBRANCH 106 109
ENDBRANCH 104 106
BRANCH 104 121
ATOM    121  O   UNL     1     151.040 165.576 191.484  0.00  0.00    -0.379 OA
BRANCH 121 122
ATOM    122  C   UNL     1     152.440 165.746 191.677  0.00  0.00    +0.037 C 
ATOM    123  H   UNL     1     152.683 165.651 192.739  0.00  0.00    +0.052 HD
ATOM    124  H   UNL     1     153.022 165.019 191.100  0.00  0.00    +0.052 HD
ATOM    125  H   UNL     1     152.708 166.753 191.350  0.00  0.00    +0.052 HD
ENDBRANCH 121 122
ENDBRANCH 104 121
ENDBRANCH  98 104
ENDBRANCH  96  98
ENDBRANCH  93  96
ENDBRANCH  90  93
ENDBRANCH  84  90
ENDBRANCH  82  84
BRANCH  82 126
ATOM    126  O   UNL     1     145.234 164.075 189.520  0.00  0.00    -0.379 OA
BRANCH 126 127
ATOM    127  C   UNL     1     143.993 163.458 189.196  0.00  0.00    +0.037 C 
ATOM    128  H   UNL     1     144.001 162.443 189.600  0.00  0.00    +0.052 HD
ATOM    129  H   UNL     1     143.158 164.005 189.639  0.00  0.00    +0.052 HD
ATOM    130  H   UNL     1     143.868 163.399 188.110  0.00  0.00    +0.052 HD
ENDBRANCH 126 127
ENDBRANCH  82 126
ENDBRANCH  76  82
ENDBRANCH  25  76
BRANCH  31 131
ATOM    131  O   UNL     1     148.882 165.556 182.118  0.00  0.00    -0.379 OA
BRANCH 131 132
ATOM    132  C   UNL     1     148.418 165.383 180.784  0.00  0.00    +0.037 C 
ATOM    133  H   UNL     1     149.102 165.835 180.061  0.00  0.00    +0.052 HD
ATOM    134  H   UNL     1     148.358 164.309 180.580  0.00  0.00    +0.052 HD
ATOM    135  H   UNL     1     147.419 165.811 180.669  0.00  0.00    +0.052 HD
ENDBRANCH 131 132
ENDBRANCH  31 131
BRANCH  29 136
ATOM    136  O   UNL     1     144.965 166.568 182.305  0.00  0.00    -0.376 OA
BRANCH 136 137
ATOM    137  C   UNL     1     144.492 165.330 181.788  0.00  0.00    +0.037 C 
ATOM    138  H   UNL     1     144.424 164.578 182.580  0.00  0.00    +0.052 HD
ATOM    139  H   UNL     1     145.201 164.980 181.032  0.00  0.00    +0.052 HD
ATOM    140  H   UNL     1     143.514 165.465 181.312  0.00  0.00    +0.052 HD
ENDBRANCH 136 137
ENDBRANCH  29 136
BRANCH  16 141
ATOM    141  O   UNL     1     156.437 165.323 187.340  0.00  0.00    -0.379 OA
BRANCH 141 142
ATOM    142  C   UNL     1     156.780 165.225 188.718  0.00  0.00    +0.037 C 
ATOM    143  H   UNL     1     157.615 165.888 188.962  0.00  0.00    +0.052 HD
ATOM    144  H   UNL     1     155.916 165.539 189.306  0.00  0.00    +0.052 HD
ATOM    145  H   UNL     1     157.024 164.194 188.991  0.00  0.00    +0.052 HD
ENDBRANCH 141 142
ENDBRANCH  16 141
BRANCH   6 146
ATOM    146  O   UNL     1     150.338 159.035 187.902  0.00  0.00    -0.379 OA
BRANCH 146 147
ATOM    147  C   UNL     1     149.439 159.386 188.947  0.00  0.00    +0.037 C 
ATOM    148  H   UNL     1     149.238 158.537 189.606  0.00  0.00    +0.052 HD
ATOM    149  H   UNL     1     149.897 160.182 189.537  0.00  0.00    +0.052 HD
ATOM    150  H   UNL     1     148.500 159.764 188.529  0.00  0.00    +0.052 HD
ENDBRANCH 146 147
ENDBRANCH   6 146
BRANCH   4 151
ATOM    151  O   UNL     1     147.490 160.609 186.218  0.00  0.00    -0.376 OA
BRANCH 151 152
ATOM    152  C   UNL     1     146.333 160.553 187.047  0.00  0.00    +0.037 C 
ATOM    153  H   UNL     1     146.260 159.580 187.543  0.00  0.00    +0.052 HD
ATOM    154  H   UNL     1     146.427 161.325 187.816  0.00  0.00    +0.052 HD
ATOM    155  H   UNL     1     145.428 160.754 186.469  0.00  0.00    +0.052 HD
ENDBRANCH 151 152
ENDBRANCH   4 151
TORSDOF 33
ENDMDL
MODEL 4
REMARK VINA RESULT:      -5.1      6.130     11.017
REMARK  Name = Reidispongiolide A_conf2
REMARK  33 active torsions:
REMARK  status: ('A' for Active; 'I' for Inactive)
REMARK    1  A    between atoms: C_1  and  C_2
REMARK    2  A    between atoms: C_5  and  O_67
REMARK    3  A    between atoms: C_7  and  O_65
REMARK    4  A    between atoms: C_8  and  C_64
REMARK    5  A    between atoms: C_17  and  O_62
REMARK    6  A    between atoms: C_19  and  C_61
REMARK    7  A    between atoms: C_26  and  C_38
REMARK    8  A    between atoms: C_27  and  C_37
REMARK    9  A    between atoms: C_30  and  O_35
REMARK   10  A    between atoms: C_32  and  O_33
REMARK   11  A    between atoms: O_33  and  C_34
REMARK   12  A    between atoms: O_35  and  C_36
REMARK   13  A    between atoms: C_38  and  C_39
REMARK   14  A    between atoms: C_38  and  C_40
REMARK   15  A    between atoms: C_40  and  C_41
REMARK   16  A    between atoms: C_40  and  O_59
REMARK   17  A    between atoms: C_41  and  C_42
REMARK   18  A    between atoms: C_41  and  C_43
REMARK   19  A    between atoms: C_43  and  C_44
REMARK   20  A    between atoms: C_44  and  C_45
REMARK   21  A    between atoms: C_45  and  C_47
REMARK   22  A    between atoms: C_47  and  C_48
REMARK   23  A    between atoms: C_47  and  C_49
REMARK   24  A    between atoms: C_49  and  C_50
REMARK   25  A    between atoms: C_49  and  O_57
REMARK   26  A    between atoms: C_50  and  C_51
REMARK   27  A    between atoms: C_52  and  N_53
REMARK   28  A    between atoms: N_53  and  C_54
REMARK   29  A    between atoms: O_57  and  C_58
REMARK   30  A    between atoms: O_59  and  C_60
REMARK   31  A    between atoms: O_62  and  C_63
REMARK   32  A    between atoms: O_65  and  C_66
REMARK   33  A    between atoms: O_67  and  C_68
REMARK                            x       y       z     vdW  Elec       q    Type
REMARK                         _______ _______ _______ _____ _____    ______ ____
ROOT
ATOM      1  C   UNL     1     148.542 163.299 183.029  0.00  0.00    +0.001 C 
ATOM      2  C   UNL     1     148.153 162.441 184.221  0.00  0.00    -0.080 C 
ATOM      3  C   UNL     1     148.706 162.529 185.447  0.00  0.00    -0.059 C 
ATOM      4  C   UNL     1     148.378 161.704 186.668  0.00  0.00    +0.079 C 
ATOM      5  C   UNL     1     149.655 161.231 187.403  0.00  0.00    +0.004 C 
ATOM      6  C   UNL     1     150.307 159.939 186.870  0.00  0.00    +0.067 C 
ATOM      7  C   UNL     1     151.728 160.063 186.244  0.00  0.00    +0.020 C 
ATOM      8  C   UNL     1     152.935 160.526 187.113  0.00  0.00    +0.112 C 
ATOM      9  C   UNL     1     153.081 162.036 187.348  0.00  0.00    +0.006 C 
ATOM     10  C   UNL     1     154.279 162.320 188.207  0.00  0.00    -0.057 C 
ATOM     11  C   UNL     1     154.726 161.353 189.031  0.00  0.00    +0.022 C 
ATOM     12  C   UNL     1     154.030 160.058 189.195  0.00  0.00    +0.332 C 
ATOM     13  O   UNL     1     154.348 159.293 190.094  0.00  0.00    -0.246 OA
ATOM     14  O   UNL     1     152.993 159.810 188.355  0.00  0.00    -0.458 OA
ATOM     15  C   UNL     1     154.855 163.722 188.253  0.00  0.00    -0.004 C 
ATOM     16  C   UNL     1     155.541 164.282 186.983  0.00  0.00    +0.066 C 
ATOM     17  C   UNL     1     154.584 164.889 185.919  0.00  0.00    -0.005 C 
ATOM     18  C   UNL     1     153.454 165.768 186.441  0.00  0.00    -0.070 C 
ATOM     19  C   UNL     1     152.175 165.374 186.294  0.00  0.00    -0.062 C 
ATOM     20  C   UNL     1     150.967 166.012 186.757  0.00  0.00    -0.055 C 
ATOM     21  C   UNL     1     150.745 166.418 188.022  0.00  0.00    +0.023 C 
ATOM     22  C   UNL     1     149.434 166.916 188.498  0.00  0.00    +0.332 C 
ATOM     23  O   UNL     1     149.271 167.395 189.607  0.00  0.00    -0.246 OA
ATOM     24  O   UNL     1     148.480 166.687 187.570  0.00  0.00    -0.457 OA
ATOM     25  C   UNL     1     147.086 166.963 187.898  0.00  0.00    +0.114 C 
ATOM     26  C   UNL     1     146.585 167.950 186.801  0.00  0.00    +0.012 C 
ATOM     27  C   UNL     1     146.884 167.496 185.382  0.00  0.00    -0.079 C 
ATOM     28  C   UNL     1     146.006 166.854 184.595  0.00  0.00    -0.059 C 
ATOM     29  C   UNL     1     146.244 166.493 183.153  0.00  0.00    +0.079 C 
ATOM     30  C   UNL     1     146.677 165.031 182.984  0.00  0.00    +0.004 C 
ATOM     31  C   UNL     1     148.184 164.806 183.219  0.00  0.00    +0.067 C 
ATOM     32  H   UNL     1     147.967 162.926 182.169  0.00  0.00    +0.037 HD
ATOM     33  H   UNL     1     147.378 161.698 184.037  0.00  0.00    +0.057 HD
ATOM     34  H   UNL     1     149.452 163.301 185.613  0.00  0.00    +0.059 HD
ATOM     35  H   UNL     1     147.847 162.391 187.334  0.00  0.00    +0.064 HD
ATOM     36  H   UNL     1     150.359 162.061 187.423  0.00  0.00    +0.032 HD
ATOM     37  H   UNL     1     149.366 161.071 188.454  0.00  0.00    +0.032 HD
ATOM     38  H   UNL     1     149.646 159.507 186.106  0.00  0.00    +0.060 HD
ATOM     39  H   UNL     1     151.994 159.027 185.983  0.00  0.00    +0.036 HD
ATOM     40  H   UNL     1     153.827 160.209 186.546  0.00  0.00    +0.074 HD
ATOM     41  H   UNL     1     152.221 162.469 187.859  0.00  0.00    +0.035 HD
ATOM     42  H   UNL     1     153.196 162.521 186.378  0.00  0.00    +0.035 HD
ATOM     43  H   UNL     1     155.549 161.508 189.719  0.00  0.00    +0.069 HD
ATOM     44  H   UNL     1     155.600 163.755 189.062  0.00  0.00    +0.034 HD
ATOM     45  H   UNL     1     154.070 164.403 188.603  0.00  0.00    +0.034 HD
ATOM     46  H   UNL     1     156.111 163.467 186.513  0.00  0.00    +0.060 HD
ATOM     47  H   UNL     1     154.169 164.067 185.322  0.00  0.00    +0.034 HD
ATOM     48  H   UNL     1     155.153 165.492 185.197  0.00  0.00    +0.034 HD
ATOM     49  H   UNL     1     151.975 164.453 185.745  0.00  0.00    +0.062 HD
ATOM     50  H   UNL     1     150.164 166.045 186.020  0.00  0.00    +0.062 HD
ATOM     51  H   UNL     1     151.511 166.363 188.786  0.00  0.00    +0.069 HD
ATOM     52  H   UNL     1     147.020 167.460 188.876  0.00  0.00    +0.074 HD
ATOM     53  H   UNL     1     145.510 168.110 186.886  0.00  0.00    +0.038 HD
ATOM     54  H   UNL     1     147.867 167.748 184.993  0.00  0.00    +0.057 HD
ATOM     55  H   UNL     1     145.021 166.600 184.989  0.00  0.00    +0.059 HD
ATOM     56  H   UNL     1     146.985 167.160 182.694  0.00  0.00    +0.064 HD
ATOM     57  H   UNL     1     146.427 164.714 181.961  0.00  0.00    +0.032 HD
ATOM     58  H   UNL     1     146.090 164.391 183.653  0.00  0.00    +0.032 HD
ATOM     59  H   UNL     1     148.437 165.128 184.236  0.00  0.00    +0.060 HD
ENDROOT
BRANCH   1  60
ATOM     60  C   UNL     1     150.010 163.060 182.657  0.00  0.00    -0.057 C 
ATOM     61  H   UNL     1     150.547 162.574 183.479  0.00  0.00    +0.024 HD
ATOM     62  H   UNL     1     150.526 163.993 182.421  0.00  0.00    +0.024 HD
ATOM     63  H   UNL     1     150.095 162.397 181.788  0.00  0.00    +0.024 HD
ENDBRANCH   1  60
BRANCH  26  64
ATOM     64  C   UNL     1     147.222 169.335 187.010  0.00  0.00    -0.056 C 
ATOM     65  H   UNL     1     148.216 169.260 187.460  0.00  0.00    +0.024 HD
ATOM     66  H   UNL     1     146.597 169.950 187.666  0.00  0.00    +0.024 HD
ATOM     67  H   UNL     1     147.323 169.863 186.055  0.00  0.00    +0.024 HD
ENDBRANCH  26  64
BRANCH  18  68
ATOM     68  C   UNL     1     153.888 167.066 187.068  0.00  0.00    -0.043 C 
ATOM     69  H   UNL     1     153.788 167.012 188.160  0.00  0.00    +0.027 HD
ATOM     70  H   UNL     1     154.937 167.312 186.865  0.00  0.00    +0.027 HD
ATOM     71  H   UNL     1     153.271 167.897 186.706  0.00  0.00    +0.027 HD
ENDBRANCH  18  68
BRANCH   7  72
ATOM     72  C   UNL     1     151.681 160.813 184.912  0.00  0.00    -0.057 C 
ATOM     73  H   UNL     1     150.892 161.575 184.927  0.00  0.00    +0.023 HD
ATOM     74  H   UNL     1     151.456 160.127 184.085  0.00  0.00    +0.023 HD
ATOM     75  H   UNL     1     152.629 161.308 184.690  0.00  0.00    +0.023 HD
ENDBRANCH   7  72
BRANCH  25  76
ATOM     76  C   UNL     1     146.338 165.593 188.007  0.00  0.00    +0.020 C 
ATOM     77  H   UNL     1     145.836 165.420 187.049  0.00  0.00    +0.036 HD
BRANCH  76  78
ATOM     78  C   UNL     1     147.367 164.451 188.170  0.00  0.00    -0.057 C 
ATOM     79  H   UNL     1     147.459 163.858 187.257  0.00  0.00    +0.023 HD
ATOM     80  H   UNL     1     148.358 164.852 188.417  0.00  0.00    +0.023 HD
ATOM     81  H   UNL     1     147.089 163.753 188.962  0.00  0.00    +0.023 HD
ENDBRANCH  76  78
BRANCH  76  82
ATOM     82  C   UNL     1     145.305 165.489 189.179  0.00  0.00    +0.067 C 
ATOM     83  H   UNL     1     144.344 165.847 188.787  0.00  0.00    +0.060 HD
BRANCH  82  84
ATOM     84  C   UNL     1     145.679 166.373 190.416  0.00  0.00    -0.017 C 
ATOM     85  H   UNL     1     146.471 167.072 190.124  0.00  0.00    +0.032 HD
BRANCH  84  86
ATOM     86  C   UNL     1     144.470 167.230 190.827  0.00  0.00    -0.060 C 
ATOM     87  H   UNL     1     144.766 168.272 190.983  0.00  0.00    +0.023 HD
ATOM     88  H   UNL     1     144.041 166.880 191.771  0.00  0.00    +0.023 HD
ATOM     89  H   UNL     1     143.680 167.206 190.068  0.00  0.00    +0.023 HD
ENDBRANCH  84  86
BRANCH  84  90
ATOM     90  C   UNL     1     146.183 165.541 191.619  0.00  0.00    -0.041 C 
ATOM     91  H   UNL     1     147.276 165.568 191.667  0.00  0.00    +0.027 HD
ATOM     92  H   UNL     1     145.913 164.486 191.488  0.00  0.00    +0.027 HD
BRANCH  90  93
ATOM     93  C   UNL     1     145.648 166.037 192.960  0.00  0.00    +0.007 C 
ATOM     94  H   UNL     1     144.897 166.819 192.817  0.00  0.00    +0.034 HD
ATOM     95  H   UNL     1     145.158 165.230 193.517  0.00  0.00    +0.034 HD
BRANCH  93  96
ATOM     96  C   UNL     1     146.773 166.557 193.834  0.00  0.00    +0.139 C 
ATOM     97  O   UNL     1     147.075 167.753 193.807  0.00  0.00    -0.297 OA
BRANCH  96  98
ATOM     98  C   UNL     1     147.479 165.564 194.753  0.00  0.00    +0.041 C 
ATOM     99  H   UNL     1     147.053 164.575 194.538  0.00  0.00    +0.040 HD
BRANCH  98 100
ATOM    100  C   UNL     1     147.124 165.849 196.218  0.00  0.00    -0.053 C 
ATOM    101  H   UNL     1     146.121 166.278 196.312  0.00  0.00    +0.024 HD
ATOM    102  H   UNL     1     147.829 166.571 196.648  0.00  0.00    +0.024 HD
ATOM    103  H   UNL     1     147.170 164.944 196.832  0.00  0.00    +0.024 HD
ENDBRANCH  98 100
BRANCH  98 104
ATOM    104  C   UNL     1     149.003 165.481 194.492  0.00  0.00    +0.071 C 
ATOM    105  H   UNL     1     149.294 164.423 194.554  0.00  0.00    +0.061 HD
BRANCH 104 106
ATOM    106  C   UNL     1     149.450 166.059 193.124  0.00  0.00    -0.006 C 
ATOM    107  H   UNL     1     148.850 165.637 192.308  0.00  0.00    +0.033 HD
ATOM    108  H   UNL     1     149.258 167.137 193.087  0.00  0.00    +0.033 HD
BRANCH 106 109
ATOM    109  C   UNL     1     150.920 165.859 192.888  0.00  0.00    -0.067 C 
ATOM    110  C   UNL     1     151.805 166.862 192.815  0.00  0.00    -0.005 C 
ATOM    111  H   UNL     1     151.235 164.827 192.770  0.00  0.00    +0.059 HD
ATOM    112  H   UNL     1     151.451 167.881 192.970  0.00  0.00    +0.078 HD
BRANCH 110 113
ATOM    113  N   UNL     1     153.159 166.756 192.543  0.00  0.00    -0.284 N 
ATOM    114  C   UNL     1     153.704 166.256 191.363  0.00  0.00    +0.206 C 
ATOM    115  O   UNL     1     153.131 165.904 190.339  0.00  0.00    -0.279 OA
ATOM    116  H   UNL     1     154.807 166.216 191.407  0.00  0.00    +0.126 HD
BRANCH 113 117
ATOM    117  C   UNL     1     154.064 167.325 193.535  0.00  0.00    +0.007 C 
ATOM    118  H   UNL     1     154.985 167.635 193.032  0.00  0.00    +0.043 HD
ATOM    119  H   UNL     1     153.590 168.187 194.012  0.00  0.00    +0.043 HD
ATOM    120  H   UNL     1     154.325 166.595 194.308  0.00  0.00    +0.043 HD
ENDBRANCH 113 117
ENDBRANCH 110 113
ENDBRANCH 106 109
ENDBRANCH 104 106
BRANCH 104 121
ATOM    121  O   UNL     1     149.674 166.190 195.550  0.00  0.00    -0.379 OA
BRANCH 121 122
ATOM    122  C   UNL     1     150.556 165.370 196.308  0.00  0.00    +0.037 C 
ATOM    123  H   UNL     1     151.260 164.865 195.640  0.00  0.00    +0.052 HD
ATOM    124  H   UNL     1     151.109 165.948 197.056  0.00  0.00    +0.052 HD
ATOM    125  H   UNL     1     149.959 164.611 196.819  0.00  0.00    +0.052 HD
ENDBRANCH 121 122
ENDBRANCH 104 121
ENDBRANCH  98 104
ENDBRANCH  96  98
ENDBRANCH  93  96
ENDBRANCH  90  93
ENDBRANCH  84  90
ENDBRANCH  82  84
BRANCH  82 126
ATOM    126  O   UNL     1     145.163 164.145 189.635  0.00  0.00    -0.379 OA
BRANCH 126 127
ATOM    127  C   UNL     1     143.913 163.560 189.287  0.00  0.00    +0.037 C 
ATOM    128  H   UNL     1     143.332 164.302 188.734  0.00  0.00    +0.052 HD
ATOM    129  H   UNL     1     144.056 162.684 188.651  0.00  0.00    +0.052 HD
ATOM    130  H   UNL     1     143.356 163.283 190.187  0.00  0.00    +0.052 HD
ENDBRANCH 126 127
ENDBRANCH  82 126
ENDBRANCH  76  82
ENDBRANCH  25  76
BRANCH  31 131
ATOM    131  O   UNL     1     148.894 165.604 182.258  0.00  0.00    -0.379 OA
BRANCH 131 132
ATOM    132  C   UNL     1     148.442 165.419 180.922  0.00  0.00    +0.037 C 
ATOM    133  H   UNL     1     149.223 165.667 180.198  0.00  0.00    +0.052 HD
ATOM    134  H   UNL     1     148.172 164.366 180.795  0.00  0.00    +0.052 HD
ATOM    135  H   UNL     1     147.554 166.027 180.733  0.00  0.00    +0.052 HD
ENDBRANCH 131 132
ENDBRANCH  31 131
BRANCH  29 136
ATOM    136  O   UNL     1     144.987 166.643 182.477  0.00  0.00    -0.376 OA
BRANCH 136 137
ATOM    137  C   UNL     1     143.884 166.646 183.376  0.00  0.00    +0.037 C 
ATOM    138  H   UNL     1     143.138 167.389 183.075  0.00  0.00    +0.052 HD
ATOM    139  H   UNL     1     144.253 166.904 184.372  0.00  0.00    +0.052 HD
ATOM    140  H   UNL     1     143.426 165.651 183.421  0.00  0.00    +0.052 HD
ENDBRANCH 136 137
ENDBRANCH  29 136
BRANCH  16 141
ATOM    141  O   UNL     1     156.480 165.280 187.432  0.00  0.00    -0.379 OA
BRANCH 141 142
ATOM    142  C   UNL     1     156.597 165.372 188.847  0.00  0.00    +0.037 C 
ATOM    143  H   UNL     1     155.942 164.649 189.342  0.00  0.00    +0.052 HD
ATOM    144  H   UNL     1     157.627 165.137 189.119  0.00  0.00    +0.052 HD
ATOM    145  H   UNL     1     156.373 166.384 189.196  0.00  0.00    +0.052 HD
ENDBRANCH 141 142
ENDBRANCH  16 141
BRANCH   6 146
ATOM    146  O   UNL     1     150.339 159.033 187.987  0.00  0.00    -0.379 OA
BRANCH 146 147
ATOM    147  C   UNL     1     149.446 159.379 189.038  0.00  0.00    +0.037 C 
ATOM    148  H   UNL     1     148.404 159.346 188.708  0.00  0.00    +0.052 HD
ATOM    149  H   UNL     1     149.575 158.657 189.848  0.00  0.00    +0.052 HD
ATOM    150  H   UNL     1     149.682 160.376 189.425  0.00  0.00    +0.052 HD
ENDBRANCH 146 147
ENDBRANCH   6 146
BRANCH   4 151
ATOM    151  O   UNL     1     147.492 160.638 186.332  0.00  0.00    -0.376 OA
BRANCH 151 152
ATOM    152  C   UNL     1     146.349 160.574 187.179  0.00  0.00    +0.037 C 
ATOM    153  H   UNL     1     145.434 160.769 186.609  0.00  0.00    +0.052 HD
ATOM    154  H   UNL     1     146.287 159.564 187.593  0.00  0.00    +0.052 HD
ATOM    155  H   UNL     1     146.437 161.280 188.009  0.00  0.00    +0.052 HD
ENDBRANCH 151 152
ENDBRANCH   4 151
TORSDOF 33
ENDMDL
MODEL 5
REMARK VINA RESULT:      -5.1      8.164     13.112
REMARK  Name = Reidispongiolide A_conf2
REMARK  33 active torsions:
REMARK  status: ('A' for Active; 'I' for Inactive)
REMARK    1  A    between atoms: C_1  and  C_2
REMARK    2  A    between atoms: C_5  and  O_67
REMARK    3  A    between atoms: C_7  and  O_65
REMARK    4  A    between atoms: C_8  and  C_64
REMARK    5  A    between atoms: C_17  and  O_62
REMARK    6  A    between atoms: C_19  and  C_61
REMARK    7  A    between atoms: C_26  and  C_38
REMARK    8  A    between atoms: C_27  and  C_37
REMARK    9  A    between atoms: C_30  and  O_35
REMARK   10  A    between atoms: C_32  and  O_33
REMARK   11  A    between atoms: O_33  and  C_34
REMARK   12  A    between atoms: O_35  and  C_36
REMARK   13  A    between atoms: C_38  and  C_39
REMARK   14  A    between atoms: C_38  and  C_40
REMARK   15  A    between atoms: C_40  and  C_41
REMARK   16  A    between atoms: C_40  and  O_59
REMARK   17  A    between atoms: C_41  and  C_42
REMARK   18  A    between atoms: C_41  and  C_43
REMARK   19  A    between atoms: C_43  and  C_44
REMARK   20  A    between atoms: C_44  and  C_45
REMARK   21  A    between atoms: C_45  and  C_47
REMARK   22  A    between atoms: C_47  and  C_48
REMARK   23  A    between atoms: C_47  and  C_49
REMARK   24  A    between atoms: C_49  and  C_50
REMARK   25  A    between atoms: C_49  and  O_57
REMARK   26  A    between atoms: C_50  and  C_51
REMARK   27  A    between atoms: C_52  and  N_53
REMARK   28  A    between atoms: N_53  and  C_54
REMARK   29  A    between atoms: O_57  and  C_58
REMARK   30  A    between atoms: O_59  and  C_60
REMARK   31  A    between atoms: O_62  and  C_63
REMARK   32  A    between atoms: O_65  and  C_66
REMARK   33  A    between atoms: O_67  and  C_68
REMARK                            x       y       z     vdW  Elec       q    Type
REMARK                         _______ _______ _______ _____ _____    ______ ____
ROOT
ATOM      1  C   UNL     1     148.031 168.442 186.371  0.00  0.00    +0.001 C 
ATOM      2  C   UNL     1     149.230 167.723 186.965  0.00  0.00    -0.080 C 
ATOM      3  C   UNL     1     149.169 166.803 187.948  0.00  0.00    -0.059 C 
ATOM      4  C   UNL     1     150.315 166.062 188.591  0.00  0.00    +0.079 C 
ATOM      5  C   UNL     1     150.178 166.014 190.131  0.00  0.00    +0.004 C 
ATOM      6  C   UNL     1     150.714 167.238 190.900  0.00  0.00    +0.067 C 
ATOM      7  C   UNL     1     149.677 168.104 191.675  0.00  0.00    +0.020 C 
ATOM      8  C   UNL     1     148.867 167.494 192.857  0.00  0.00    +0.112 C 
ATOM      9  C   UNL     1     147.643 166.642 192.491  0.00  0.00    +0.006 C 
ATOM     10  C   UNL     1     146.978 166.119 193.731  0.00  0.00    -0.057 C 
ATOM     11  C   UNL     1     147.712 165.994 194.853  0.00  0.00    +0.022 C 
ATOM     12  C   UNL     1     149.167 166.257 194.890  0.00  0.00    +0.332 C 
ATOM     13  O   UNL     1     149.830 165.940 195.867  0.00  0.00    -0.246 OA
ATOM     14  O   UNL     1     149.721 166.793 193.772  0.00  0.00    -0.458 OA
ATOM     15  C   UNL     1     145.557 165.596 193.658  0.00  0.00    -0.004 C 
ATOM     16  C   UNL     1     144.412 166.600 193.377  0.00  0.00    +0.066 C 
ATOM     17  C   UNL     1     144.183 166.952 191.880  0.00  0.00    -0.005 C 
ATOM     18  C   UNL     1     144.235 165.794 190.892  0.00  0.00    -0.070 C 
ATOM     19  C   UNL     1     145.214 165.744 189.969  0.00  0.00    -0.062 C 
ATOM     20  C   UNL     1     145.486 164.724 188.985  0.00  0.00    -0.055 C 
ATOM     21  C   UNL     1     145.605 163.409 189.250  0.00  0.00    +0.023 C 
ATOM     22  C   UNL     1     146.048 162.414 188.246  0.00  0.00    +0.332 C 
ATOM     23  O   UNL     1     146.038 161.213 188.455  0.00  0.00    -0.246 OA
ATOM     24  O   UNL     1     146.519 163.037 187.144  0.00  0.00    -0.457 OA
ATOM     25  C   UNL     1     147.146 162.246 186.092  0.00  0.00    +0.114 C 
ATOM     26  C   UNL     1     146.357 162.578 184.791  0.00  0.00    +0.012 C 
ATOM     27  C   UNL     1     146.194 164.067 184.531  0.00  0.00    -0.079 C 
ATOM     28  C   UNL     1     146.987 164.782 183.718  0.00  0.00    -0.059 C 
ATOM     29  C   UNL     1     146.779 166.230 183.365  0.00  0.00    +0.079 C 
ATOM     30  C   UNL     1     147.663 167.165 184.200  0.00  0.00    +0.004 C 
ATOM     31  C   UNL     1     147.075 167.489 185.588  0.00  0.00    +0.067 C 
ATOM     32  H   UNL     1     148.426 169.179 185.657  0.00  0.00    +0.037 HD
ATOM     33  H   UNL     1     150.201 168.006 186.558  0.00  0.00    +0.057 HD
ATOM     34  H   UNL     1     148.186 166.516 188.312  0.00  0.00    +0.059 HD
ATOM     35  H   UNL     1     150.228 165.036 188.218  0.00  0.00    +0.064 HD
ATOM     36  H   UNL     1     149.136 165.810 190.370  0.00  0.00    +0.032 HD
ATOM     37  H   UNL     1     150.731 165.121 190.464  0.00  0.00    +0.032 HD
ATOM     38  H   UNL     1     151.227 167.898 190.186  0.00  0.00    +0.060 HD
ATOM     39  H   UNL     1     150.290 168.875 192.168  0.00  0.00    +0.036 HD
ATOM     40  H   UNL     1     148.486 168.366 193.416  0.00  0.00    +0.074 HD
ATOM     41  H   UNL     1     147.900 165.773 191.886  0.00  0.00    +0.035 HD
ATOM     42  H   UNL     1     146.948 167.269 191.932  0.00  0.00    +0.035 HD
ATOM     43  H   UNL     1     147.312 165.571 195.767  0.00  0.00    +0.069 HD
ATOM     44  H   UNL     1     145.327 165.105 194.615  0.00  0.00    +0.034 HD
ATOM     45  H   UNL     1     145.533 164.769 192.938  0.00  0.00    +0.034 HD
ATOM     46  H   UNL     1     144.629 167.530 193.924  0.00  0.00    +0.060 HD
ATOM     47  H   UNL     1     144.914 167.718 191.592  0.00  0.00    +0.034 HD
ATOM     48  H   UNL     1     143.207 167.442 191.751  0.00  0.00    +0.034 HD
ATOM     49  H   UNL     1     145.918 166.574 189.912  0.00  0.00    +0.062 HD
ATOM     50  H   UNL     1     145.713 165.107 187.990  0.00  0.00    +0.062 HD
ATOM     51  H   UNL     1     145.422 163.003 190.238  0.00  0.00    +0.069 HD
ATOM     52  H   UNL     1     147.035 161.175 186.309  0.00  0.00    +0.074 HD
ATOM     53  H   UNL     1     146.841 162.134 183.920  0.00  0.00    +0.038 HD
ATOM     54  H   UNL     1     145.356 164.552 185.024  0.00  0.00    +0.057 HD
ATOM     55  H   UNL     1     147.830 164.293 183.228  0.00  0.00    +0.059 HD
ATOM     56  H   UNL     1     145.725 166.516 183.471  0.00  0.00    +0.064 HD
ATOM     57  H   UNL     1     147.793 168.104 183.643  0.00  0.00    +0.032 HD
ATOM     58  H   UNL     1     148.664 166.732 184.305  0.00  0.00    +0.032 HD
ATOM     59  H   UNL     1     146.938 166.553 186.143  0.00  0.00    +0.060 HD
ENDROOT
BRANCH   1  60
ATOM     60  C   UNL     1     147.322 169.274 187.446  0.00  0.00    -0.057 C 
ATOM     61  H   UNL     1     147.927 169.331 188.357  0.00  0.00    +0.024 HD
ATOM     62  H   UNL     1     146.351 168.851 187.711  0.00  0.00    +0.024 HD
ATOM     63  H   UNL     1     147.162 170.304 187.107  0.00  0.00    +0.024 HD
ENDBRANCH   1  60
BRANCH  26  64
ATOM     64  C   UNL     1     144.957 161.942 184.848  0.00  0.00    -0.056 C 
ATOM     65  H   UNL     1     144.994 160.865 184.662  0.00  0.00    +0.024 HD
ATOM     66  H   UNL     1     144.298 162.394 184.099  0.00  0.00    +0.024 HD
ATOM     67  H   UNL     1     144.501 162.098 185.832  0.00  0.00    +0.024 HD
ENDBRANCH  26  64
BRANCH  18  68
ATOM     68  C   UNL     1     143.123 164.788 191.022  0.00  0.00    -0.043 C 
ATOM     69  H   UNL     1     142.532 164.990 191.926  0.00  0.00    +0.027 HD
ATOM     70  H   UNL     1     142.419 164.815 190.181  0.00  0.00    +0.027 HD
ATOM     71  H   UNL     1     143.525 163.771 191.092  0.00  0.00    +0.027 HD
ENDBRANCH  18  68
BRANCH   7  72
ATOM     72  C   UNL     1     148.767 168.870 190.713  0.00  0.00    -0.057 C 
ATOM     73  H   UNL     1     149.353 169.306 189.895  0.00  0.00    +0.023 HD
ATOM     74  H   UNL     1     148.260 169.696 191.228  0.00  0.00    +0.023 HD
ATOM     75  H   UNL     1     148.001 168.224 190.278  0.00  0.00    +0.023 HD
ENDBRANCH   7  72
BRANCH  25  76
ATOM     76  C   UNL     1     148.677 162.577 186.091  0.00  0.00    +0.020 C 
ATOM     77  H   UNL     1     148.879 163.172 185.194  0.00  0.00    +0.036 HD
BRANCH  76  78
ATOM     78  C   UNL     1     149.013 163.482 187.298  0.00  0.00    -0.057 C 
ATOM     79  H   UNL     1     148.132 164.020 187.655  0.00  0.00    +0.023 HD
ATOM     80  H   UNL     1     149.409 162.889 188.132  0.00  0.00    +0.023 HD
ATOM     81  H   UNL     1     149.757 164.242 187.052  0.00  0.00    +0.023 HD
ENDBRANCH  76  78
BRANCH  76  82
ATOM     82  C   UNL     1     149.626 161.333 186.136  0.00  0.00    +0.067 C 
ATOM     83  H   UNL     1     149.793 161.024 185.095  0.00  0.00    +0.060 HD
BRANCH  82  84
ATOM     84  C   UNL     1     149.018 160.115 186.907  0.00  0.00    -0.017 C 
ATOM     85  H   UNL     1     147.932 160.247 186.977  0.00  0.00    +0.032 HD
BRANCH  84  86
ATOM     86  C   UNL     1     149.250 158.823 186.105  0.00  0.00    -0.060 C 
ATOM     87  H   UNL     1     150.019 158.205 186.575  0.00  0.00    +0.023 HD
ATOM     88  H   UNL     1     149.600 159.046 185.092  0.00  0.00    +0.023 HD
ATOM     89  H   UNL     1     148.333 158.229 186.021  0.00  0.00    +0.023 HD
ENDBRANCH  84  86
BRANCH  84  90
ATOM     90  C   UNL     1     149.583 159.967 188.340  0.00  0.00    -0.041 C 
ATOM     91  H   UNL     1     148.966 160.526 189.050  0.00  0.00    +0.027 HD
ATOM     92  H   UNL     1     150.585 160.410 188.398  0.00  0.00    +0.027 HD
BRANCH  90  93
ATOM     93  C   UNL     1     149.643 158.518 188.817  0.00  0.00    +0.007 C 
ATOM     94  H   UNL     1     149.513 157.824 187.981  0.00  0.00    +0.034 HD
ATOM     95  H   UNL     1     150.614 158.287 189.269  0.00  0.00    +0.034 HD
BRANCH  93  96
ATOM     96  C   UNL     1     148.590 158.252 189.875  0.00  0.00    +0.139 C 
ATOM     97  O   UNL     1     148.444 159.038 190.815  0.00  0.00    -0.297 OA
BRANCH  96  98
ATOM     98  C   UNL     1     147.713 157.013 189.713  0.00  0.00    +0.041 C 
ATOM     99  H   UNL     1     147.642 156.544 190.703  0.00  0.00    +0.040 HD
BRANCH  98 100
ATOM    100  C   UNL     1     148.414 155.978 188.822  0.00  0.00    -0.053 C 
ATOM    101  H   UNL     1     149.404 155.718 189.213  0.00  0.00    +0.024 HD
ATOM    102  H   UNL     1     148.557 156.378 187.811  0.00  0.00    +0.024 HD
ATOM    103  H   UNL     1     147.829 155.058 188.728  0.00  0.00    +0.024 HD
ENDBRANCH  98 100
BRANCH  98 104
ATOM    104  C   UNL     1     146.274 157.349 189.252  0.00  0.00    +0.071 C 
ATOM    105  H   UNL     1     145.769 156.401 189.020  0.00  0.00    +0.061 HD
BRANCH 104 106
ATOM    106  C   UNL     1     145.437 158.138 190.292  0.00  0.00    -0.006 C 
ATOM    107  H   UNL     1     146.039 158.368 191.181  0.00  0.00    +0.033 HD
ATOM    108  H   UNL     1     145.149 159.114 189.886  0.00  0.00    +0.033 HD
BRANCH 106 109
ATOM    109  C   UNL     1     144.172 157.415 190.655  0.00  0.00    -0.067 C 
ATOM    110  C   UNL     1     143.842 156.207 190.178  0.00  0.00    -0.005 C 
ATOM    111  H   UNL     1     143.516 157.943 191.340  0.00  0.00    +0.059 HD
ATOM    112  H   UNL     1     144.543 155.699 189.517  0.00  0.00    +0.078 HD
BRANCH 110 113
ATOM    113  N   UNL     1     142.671 155.511 190.423  0.00  0.00    -0.284 N 
ATOM    114  C   UNL     1     142.489 154.580 191.444  0.00  0.00    +0.206 C 
ATOM    115  O   UNL     1     143.259 154.262 192.342  0.00  0.00    -0.279 OA
ATOM    116  H   UNL     1     141.489 154.114 191.398  0.00  0.00    +0.126 HD
BRANCH 113 117
ATOM    117  C   UNL     1     141.516 155.881 189.613  0.00  0.00    +0.007 C 
ATOM    118  H   UNL     1     140.640 155.956 190.265  0.00  0.00    +0.043 HD
ATOM    119  H   UNL     1     141.703 156.842 189.126  0.00  0.00    +0.043 HD
ATOM    120  H   UNL     1     141.307 155.132 188.843  0.00  0.00    +0.043 HD
ENDBRANCH 113 117
ENDBRANCH 110 113
ENDBRANCH 106 109
ENDBRANCH 104 106
BRANCH 104 121
ATOM    121  O   UNL     1     146.364 158.115 188.036  0.00  0.00    -0.379 OA
BRANCH 121 122
ATOM    122  C   UNL     1     145.510 157.635 187.003  0.00  0.00    +0.037 C 
ATOM    123  H   UNL     1     144.502 157.478 187.398  0.00  0.00    +0.052 HD
ATOM    124  H   UNL     1     145.469 158.326 186.154  0.00  0.00    +0.052 HD
ATOM    125  H   UNL     1     145.901 156.675 186.658  0.00  0.00    +0.052 HD
ENDBRANCH 121 122
ENDBRANCH 104 121
ENDBRANCH  98 104
ENDBRANCH  96  98
ENDBRANCH  93  96
ENDBRANCH  90  93
ENDBRANCH  84  90
ENDBRANCH  82  84
BRANCH  82 126
ATOM    126  O   UNL     1     150.877 161.650 186.745  0.00  0.00    -0.379 OA
BRANCH 126 127
ATOM    127  C   UNL     1     151.975 161.595 185.841  0.00  0.00    +0.037 C 
ATOM    128  H   UNL     1     152.207 160.545 185.650  0.00  0.00    +0.052 HD
ATOM    129  H   UNL     1     151.725 162.076 184.893  0.00  0.00    +0.052 HD
ATOM    130  H   UNL     1     152.857 162.072 186.281  0.00  0.00    +0.052 HD
ENDBRANCH 126 127
ENDBRANCH  82 126
ENDBRANCH  76  82
ENDBRANCH  25  76
BRANCH  31 131
ATOM    131  O   UNL     1     145.806 168.130 185.380  0.00  0.00    -0.379 OA
BRANCH 131 132
ATOM    132  C   UNL     1     144.714 167.428 185.962  0.00  0.00    +0.037 C 
ATOM    133  H   UNL     1     144.999 166.411 186.246  0.00  0.00    +0.052 HD
ATOM    134  H   UNL     1     144.404 167.966 186.864  0.00  0.00    +0.052 HD
ATOM    135  H   UNL     1     143.868 167.398 185.271  0.00  0.00    +0.052 HD
ENDBRANCH 131 132
ENDBRANCH  31 131
BRANCH  29 136
ATOM    136  O   UNL     1     147.178 166.382 181.994  0.00  0.00    -0.376 OA
BRANCH 136 137
ATOM    137  C   UNL     1     148.062 165.351 181.568  0.00  0.00    +0.037 C 
ATOM    138  H   UNL     1     148.745 165.067 182.375  0.00  0.00    +0.052 HD
ATOM    139  H   UNL     1     148.650 165.729 180.728  0.00  0.00    +0.052 HD
ATOM    140  H   UNL     1     147.493 164.477 181.231  0.00  0.00    +0.052 HD
ENDBRANCH 136 137
ENDBRANCH  29 136
BRANCH  16 141
ATOM    141  O   UNL     1     143.216 166.024 193.939  0.00  0.00    -0.379 OA
BRANCH 141 142
ATOM    142  C   UNL     1     142.064 166.854 193.831  0.00  0.00    +0.037 C 
ATOM    143  H   UNL     1     141.928 167.202 192.804  0.00  0.00    +0.052 HD
ATOM    144  H   UNL     1     141.191 166.260 194.107  0.00  0.00    +0.052 HD
ATOM    145  H   UNL     1     142.129 167.707 194.513  0.00  0.00    +0.052 HD
ENDBRANCH 141 142
ENDBRANCH  16 141
BRANCH   6 146
ATOM    146  O   UNL     1     151.702 166.722 191.810  0.00  0.00    -0.379 OA
BRANCH 146 147
ATOM    147  C   UNL     1     152.164 165.418 191.482  0.00  0.00    +0.037 C 
ATOM    148  H   UNL     1     151.987 164.711 192.297  0.00  0.00    +0.052 HD
ATOM    149  H   UNL     1     151.617 165.074 190.601  0.00  0.00    +0.052 HD
ATOM    150  H   UNL     1     153.231 165.443 191.235  0.00  0.00    +0.052 HD
ENDBRANCH 146 147
ENDBRANCH   6 146
BRANCH   4 151
ATOM    151  O   UNL     1     151.565 166.588 188.151  0.00  0.00    -0.376 OA
BRANCH 151 152
ATOM    152  C   UNL     1     152.447 165.590 187.649  0.00  0.00    +0.037 C 
ATOM    153  H   UNL     1     153.483 165.943 187.670  0.00  0.00    +0.052 HD
ATOM    154  H   UNL     1     152.371 164.710 188.295  0.00  0.00    +0.052 HD
ATOM    155  H   UNL     1     152.167 165.294 186.635  0.00  0.00    +0.052 HD
ENDBRANCH 151 152
ENDBRANCH   4 151
TORSDOF 33
ENDMDL
MODEL 6
REMARK VINA RESULT:      -5.1      1.468      2.151
REMARK  Name = Reidispongiolide A_conf2
REMARK  33 active torsions:
REMARK  status: ('A' for Active; 'I' for Inactive)
REMARK    1  A    between atoms: C_1  and  C_2
REMARK    2  A    between atoms: C_5  and  O_67
REMARK    3  A    between atoms: C_7  and  O_65
REMARK    4  A    between atoms: C_8  and  C_64
REMARK    5  A    between atoms: C_17  and  O_62
REMARK    6  A    between atoms: C_19  and  C_61
REMARK    7  A    between atoms: C_26  and  C_38
REMARK    8  A    between atoms: C_27  and  C_37
REMARK    9  A    between atoms: C_30  and  O_35
REMARK   10  A    between atoms: C_32  and  O_33
REMARK   11  A    between atoms: O_33  and  C_34
REMARK   12  A    between atoms: O_35  and  C_36
REMARK   13  A    between atoms: C_38  and  C_39
REMARK   14  A    between atoms: C_38  and  C_40
REMARK   15  A    between atoms: C_40  and  C_41
REMARK   16  A    between atoms: C_40  and  O_59
REMARK   17  A    between atoms: C_41  and  C_42
REMARK   18  A    between atoms: C_41  and  C_43
REMARK   19  A    between atoms: C_43  and  C_44
REMARK   20  A    between atoms: C_44  and  C_45
REMARK   21  A    between atoms: C_45  and  C_47
REMARK   22  A    between atoms: C_47  and  C_48
REMARK   23  A    between atoms: C_47  and  C_49
REMARK   24  A    between atoms: C_49  and  C_50
REMARK   25  A    between atoms: C_49  and  O_57
REMARK   26  A    between atoms: C_50  and  C_51
REMARK   27  A    between atoms: C_52  and  N_53
REMARK   28  A    between atoms: N_53  and  C_54
REMARK   29  A    between atoms: O_57  and  C_58
REMARK   30  A    between atoms: O_59  and  C_60
REMARK   31  A    between atoms: O_62  and  C_63
REMARK   32  A    between atoms: O_65  and  C_66
REMARK   33  A    between atoms: O_67  and  C_68
REMARK                            x       y       z     vdW  Elec       q    Type
REMARK                         _______ _______ _______ _____ _____    ______ ____
ROOT
ATOM      1  C   UNL     1     159.190 164.713 180.578  0.00  0.00    +0.001 C 
ATOM      2  C   UNL     1     160.101 164.962 181.768  0.00  0.00    -0.080 C 
ATOM      3  C   UNL     1     159.972 165.984 182.636  0.00  0.00    -0.059 C 
ATOM      4  C   UNL     1     160.843 166.297 183.828  0.00  0.00    +0.079 C 
ATOM      5  C   UNL     1     161.189 167.803 183.909  0.00  0.00    +0.004 C 
ATOM      6  C   UNL     1     162.397 168.269 183.073  0.00  0.00    +0.067 C 
ATOM      7  C   UNL     1     162.116 169.257 181.901  0.00  0.00    +0.020 C 
ATOM      8  C   UNL     1     161.540 170.675 182.187  0.00  0.00    +0.112 C 
ATOM      9  C   UNL     1     160.027 170.775 182.423  0.00  0.00    +0.006 C 
ATOM     10  C   UNL     1     159.630 172.196 182.695  0.00  0.00    -0.057 C 
ATOM     11  C   UNL     1     160.556 173.042 183.185  0.00  0.00    +0.022 C 
ATOM     12  C   UNL     1     161.918 172.606 183.559  0.00  0.00    +0.332 C 
ATOM     13  O   UNL     1     162.658 173.351 184.185  0.00  0.00    -0.246 OA
ATOM     14  O   UNL     1     162.264 171.333 183.237  0.00  0.00    -0.458 OA
ATOM     15  C   UNL     1     158.176 172.608 182.569  0.00  0.00    -0.004 C 
ATOM     16  C   UNL     1     157.528 172.617 181.161  0.00  0.00    +0.066 C 
ATOM     17  C   UNL     1     157.011 171.242 180.654  0.00  0.00    -0.005 C 
ATOM     18  C   UNL     1     156.264 170.380 181.664  0.00  0.00    -0.070 C 
ATOM     19  C   UNL     1     156.789 169.206 182.062  0.00  0.00    -0.062 C 
ATOM     20  C   UNL     1     156.288 168.270 183.040  0.00  0.00    -0.055 C 
ATOM     21  C   UNL     1     155.926 168.588 184.297  0.00  0.00    +0.023 C 
ATOM     22  C   UNL     1     155.575 167.577 185.322  0.00  0.00    +0.332 C 
ATOM     23  O   UNL     1     155.132 167.873 186.419  0.00  0.00    -0.246 OA
ATOM     24  O   UNL     1     155.891 166.339 184.887  0.00  0.00    -0.457 OA
ATOM     25  C   UNL     1     155.767 165.210 185.802  0.00  0.00    +0.114 C 
ATOM     26  C   UNL     1     154.824 164.194 185.089  0.00  0.00    +0.012 C 
ATOM     27  C   UNL     1     155.224 163.882 183.657  0.00  0.00    -0.079 C 
ATOM     28  C   UNL     1     155.944 162.810 183.291  0.00  0.00    -0.059 C 
ATOM     29  C   UNL     1     156.259 162.425 181.870  0.00  0.00    +0.079 C 
ATOM     30  C   UNL     1     157.664 162.869 181.446  0.00  0.00    +0.004 C 
ATOM     31  C   UNL     1     157.732 164.341 180.991  0.00  0.00    +0.067 C 
ATOM     32  H   UNL     1     159.610 163.856 180.031  0.00  0.00    +0.037 HD
ATOM     33  H   UNL     1     160.919 164.253 181.894  0.00  0.00    +0.057 HD
ATOM     34  H   UNL     1     159.128 166.656 182.507  0.00  0.00    +0.059 HD
ATOM     35  H   UNL     1     160.225 166.051 184.698  0.00  0.00    +0.064 HD
ATOM     36  H   UNL     1     160.290 168.368 183.671  0.00  0.00    +0.032 HD
ATOM     37  H   UNL     1     161.393 168.017 184.970  0.00  0.00    +0.032 HD
ATOM     38  H   UNL     1     162.887 167.382 182.646  0.00  0.00    +0.060 HD
ATOM     39  H   UNL     1     163.114 169.473 181.490  0.00  0.00    +0.036 HD
ATOM     40  H   UNL     1     161.753 171.255 181.272  0.00  0.00    +0.074 HD
ATOM     41  H   UNL     1     159.694 170.190 183.281  0.00  0.00    +0.035 HD
ATOM     42  H   UNL     1     159.519 170.410 181.530  0.00  0.00    +0.035 HD
ATOM     43  H   UNL     1     160.324 174.066 183.457  0.00  0.00    +0.069 HD
ATOM     44  H   UNL     1     158.075 173.624 182.975  0.00  0.00    +0.034 HD
ATOM     45  H   UNL     1     157.585 171.998 183.263  0.00  0.00    +0.034 HD
ATOM     46  H   UNL     1     158.272 172.995 180.444  0.00  0.00    +0.060 HD
ATOM     47  H   UNL     1     157.864 170.683 180.249  0.00  0.00    +0.034 HD
ATOM     48  H   UNL     1     156.342 171.382 179.793  0.00  0.00    +0.034 HD
ATOM     49  H   UNL     1     157.718 168.869 181.602  0.00  0.00    +0.062 HD
ATOM     50  H   UNL     1     156.330 167.227 182.726  0.00  0.00    +0.062 HD
ATOM     51  H   UNL     1     155.910 169.612 184.649  0.00  0.00    +0.069 HD
ATOM     52  H   UNL     1     155.294 165.533 186.738  0.00  0.00    +0.074 HD
ATOM     53  H   UNL     1     154.779 163.254 185.640  0.00  0.00    +0.038 HD
ATOM     54  H   UNL     1     154.865 164.570 182.896  0.00  0.00    +0.057 HD
ATOM     55  H   UNL     1     156.306 162.123 184.057  0.00  0.00    +0.059 HD
ATOM     56  H   UNL     1     155.511 162.830 181.176  0.00  0.00    +0.064 HD
ATOM     57  H   UNL     1     157.991 162.228 180.615  0.00  0.00    +0.032 HD
ATOM     58  H   UNL     1     158.371 162.693 182.264  0.00  0.00    +0.032 HD
ATOM     59  H   UNL     1     157.399 164.983 181.816  0.00  0.00    +0.060 HD
ENDROOT
BRANCH   1  60
ATOM     60  C   UNL     1     159.268 165.886 179.593  0.00  0.00    -0.057 C 
ATOM     61  H   UNL     1     159.924 166.674 179.977  0.00  0.00    +0.024 HD
ATOM     62  H   UNL     1     158.285 166.325 179.406  0.00  0.00    +0.024 HD
ATOM     63  H   UNL     1     159.685 165.568 178.631  0.00  0.00    +0.024 HD
ENDBRANCH   1  60
BRANCH  26  64
ATOM     64  C   UNL     1     153.383 164.732 185.083  0.00  0.00    -0.056 C 
ATOM     65  H   UNL     1     152.975 164.810 186.094  0.00  0.00    +0.024 HD
ATOM     66  H   UNL     1     152.729 164.072 184.502  0.00  0.00    +0.024 HD
ATOM     67  H   UNL     1     153.343 165.727 184.626  0.00  0.00    +0.024 HD
ENDBRANCH  26  64
BRANCH  18  68
ATOM     68  C   UNL     1     154.936 170.927 182.116  0.00  0.00    -0.043 C 
ATOM     69  H   UNL     1     154.117 170.328 181.697  0.00  0.00    +0.027 HD
ATOM     70  H   UNL     1     154.810 170.903 183.205  0.00  0.00    +0.027 HD
ATOM     71  H   UNL     1     154.811 171.964 181.786  0.00  0.00    +0.027 HD
ENDBRANCH  18  68
BRANCH   7  72
ATOM     72  C   UNL     1     161.356 168.566 180.767  0.00  0.00    -0.057 C 
ATOM     73  H   UNL     1     161.675 168.961 179.795  0.00  0.00    +0.023 HD
ATOM     74  H   UNL     1     160.277 168.745 180.854  0.00  0.00    +0.023 HD
ATOM     75  H   UNL     1     161.520 167.486 180.767  0.00  0.00    +0.023 HD
ENDBRANCH   7  72
BRANCH  25  76
ATOM     76  C   UNL     1     157.211 164.708 186.143  0.00  0.00    +0.020 C 
ATOM     77  H   UNL     1     157.589 164.182 185.261  0.00  0.00    +0.036 HD
BRANCH  76  78
ATOM     78  C   UNL     1     158.144 165.922 186.358  0.00  0.00    -0.057 C 
ATOM     79  H   UNL     1     157.893 166.465 187.273  0.00  0.00    +0.023 HD
ATOM     80  H   UNL     1     159.191 165.601 186.430  0.00  0.00    +0.023 HD
ATOM     81  H   UNL     1     158.077 166.646 185.545  0.00  0.00    +0.023 HD
ENDBRANCH  76  78
BRANCH  76  82
ATOM     82  C   UNL     1     157.314 163.786 187.404  0.00  0.00    +0.067 C 
ATOM     83  H   UNL     1     157.342 162.751 187.037  0.00  0.00    +0.060 HD
BRANCH  82  84
ATOM     84  C   UNL     1     156.092 163.919 188.373  0.00  0.00    -0.017 C 
ATOM     85  H   UNL     1     155.303 164.490 187.870  0.00  0.00    +0.032 HD
BRANCH  84  86
ATOM     86  C   UNL     1     155.506 162.528 188.666  0.00  0.00    -0.060 C 
ATOM     87  H   UNL     1     156.298 161.778 188.737  0.00  0.00    +0.023 HD
ATOM     88  H   UNL     1     154.837 162.205 187.861  0.00  0.00    +0.023 HD
ATOM     89  H   UNL     1     154.937 162.518 189.602  0.00  0.00    +0.023 HD
ENDBRANCH  84  86
BRANCH  84  90
ATOM     90  C   UNL     1     156.449 164.642 189.694  0.00  0.00    -0.041 C 
ATOM     91  H   UNL     1     157.531 164.629 189.853  0.00  0.00    +0.027 HD
ATOM     92  H   UNL     1     156.013 164.107 190.546  0.00  0.00    +0.027 HD
BRANCH  90  93
ATOM     93  C   UNL     1     155.994 166.099 189.725  0.00  0.00    +0.007 C 
ATOM     94  H   UNL     1     156.430 166.628 190.578  0.00  0.00    +0.034 HD
ATOM     95  H   UNL     1     156.315 166.637 188.825  0.00  0.00    +0.034 HD
BRANCH  93  96
ATOM     96  C   UNL     1     154.482 166.194 189.779  0.00  0.00    +0.139 C 
ATOM     97  O   UNL     1     153.869 166.823 188.912  0.00  0.00    -0.297 OA
BRANCH  96  98
ATOM     98  C   UNL     1     153.762 165.466 190.911  0.00  0.00    +0.041 C 
ATOM     99  H   UNL     1     154.539 165.039 191.558  0.00  0.00    +0.040 HD
BRANCH  98 100
ATOM    100  C   UNL     1     152.985 164.262 190.361  0.00  0.00    -0.053 C 
ATOM    101  H   UNL     1     153.239 164.066 189.313  0.00  0.00    +0.024 HD
ATOM    102  H   UNL     1     151.906 164.450 190.405  0.00  0.00    +0.024 HD
ATOM    103  H   UNL     1     153.180 163.352 190.937  0.00  0.00    +0.024 HD
ENDBRANCH  98 100
BRANCH  98 104
ATOM    104  C   UNL     1     152.898 166.411 191.781  0.00  0.00    +0.071 C 
ATOM    105  H   UNL     1     153.106 167.442 191.459  0.00  0.00    +0.061 HD
BRANCH 104 106
ATOM    106  C   UNL     1     151.373 166.142 191.699  0.00  0.00    -0.006 C 
ATOM    107  H   UNL     1     151.173 165.067 191.604  0.00  0.00    +0.033 HD
ATOM    108  H   UNL     1     150.884 166.439 192.633  0.00  0.00    +0.033 HD
BRANCH 106 109
ATOM    109  C   UNL     1     150.728 166.924 190.590  0.00  0.00    -0.067 C 
ATOM    110  C   UNL     1     149.970 166.371 189.633  0.00  0.00    -0.005 C 
ATOM    111  H   UNL     1     150.919 167.992 190.603  0.00  0.00    +0.059 HD
ATOM    112  H   UNL     1     149.778 165.300 189.675  0.00  0.00    +0.078 HD
BRANCH 110 113
ATOM    113  N   UNL     1     149.394 167.020 188.554  0.00  0.00    -0.284 N 
ATOM    114  C   UNL     1     149.894 167.014 187.253  0.00  0.00    +0.206 C 
ATOM    115  O   UNL     1     150.850 166.398 186.799  0.00  0.00    -0.279 OA
ATOM    116  H   UNL     1     149.293 167.652 186.582  0.00  0.00    +0.126 HD
BRANCH 113 117
ATOM    117  C   UNL     1     148.103 167.653 188.794  0.00  0.00    +0.007 C 
ATOM    118  H   UNL     1     148.255 168.526 189.437  0.00  0.00    +0.043 HD
ATOM    119  H   UNL     1     147.662 167.960 187.842  0.00  0.00    +0.043 HD
ATOM    120  H   UNL     1     147.409 166.974 189.299  0.00  0.00    +0.043 HD
ENDBRANCH 113 117
ENDBRANCH 110 113
ENDBRANCH 106 109
ENDBRANCH 104 106
BRANCH 104 121
ATOM    121  O   UNL     1     153.331 166.276 193.148  0.00  0.00    -0.379 OA
BRANCH 121 122
ATOM    122  C   UNL     1     154.055 167.405 193.625  0.00  0.00    +0.037 C 
ATOM    123  H   UNL     1     154.238 167.302 194.698  0.00  0.00    +0.052 HD
ATOM    124  H   UNL     1     155.008 167.529 193.100  0.00  0.00    +0.052 HD
ATOM    125  H   UNL     1     153.443 168.295 193.462  0.00  0.00    +0.052 HD
ENDBRANCH 121 122
ENDBRANCH 104 121
ENDBRANCH  98 104
ENDBRANCH  96  98
ENDBRANCH  93  96
ENDBRANCH  90  93
ENDBRANCH  84  90
ENDBRANCH  82  84
BRANCH  82 126
ATOM    126  O   UNL     1     158.495 164.056 188.157  0.00  0.00    -0.379 OA
BRANCH 126 127
ATOM    127  C   UNL     1     159.391 162.953 188.218  0.00  0.00    +0.037 C 
ATOM    128  H   UNL     1     159.809 162.797 187.221  0.00  0.00    +0.052 HD
ATOM    129  H   UNL     1     160.209 163.152 188.913  0.00  0.00    +0.052 HD
ATOM    130  H   UNL     1     158.858 162.044 188.516  0.00  0.00    +0.052 HD
ENDBRANCH 126 127
ENDBRANCH  82 126
ENDBRANCH  76  82
ENDBRANCH  25  76
BRANCH  31 131
ATOM    131  O   UNL     1     156.851 164.487 179.866  0.00  0.00    -0.379 OA
BRANCH 131 132
ATOM    132  C   UNL     1     155.806 165.428 180.082  0.00  0.00    +0.037 C 
ATOM    133  H   UNL     1     155.991 166.360 179.542  0.00  0.00    +0.052 HD
ATOM    134  H   UNL     1     154.872 164.993 179.713  0.00  0.00    +0.052 HD
ATOM    135  H   UNL     1     155.692 165.633 181.150  0.00  0.00    +0.052 HD
ENDBRANCH 131 132
ENDBRANCH  31 131
BRANCH  29 136
ATOM    136  O   UNL     1     156.233 160.991 181.815  0.00  0.00    -0.376 OA
BRANCH 136 137
ATOM    137  C   UNL     1     156.957 160.394 182.884  0.00  0.00    +0.037 C 
ATOM    138  H   UNL     1     157.254 161.146 183.622  0.00  0.00    +0.052 HD
ATOM    139  H   UNL     1     157.858 159.932 182.473  0.00  0.00    +0.052 HD
ATOM    140  H   UNL     1     156.354 159.614 183.364  0.00  0.00    +0.052 HD
ENDBRANCH 136 137
ENDBRANCH  29 136
BRANCH  16 141
ATOM    141  O   UNL     1     156.444 173.565 181.217  0.00  0.00    -0.379 OA
BRANCH 141 142
ATOM    142  C   UNL     1     156.441 174.376 182.387  0.00  0.00    +0.037 C 
ATOM    143  H   UNL     1     156.518 175.436 182.129  0.00  0.00    +0.052 HD
ATOM    144  H   UNL     1     155.492 174.223 182.904  0.00  0.00    +0.052 HD
ATOM    145  H   UNL     1     157.251 174.093 183.064  0.00  0.00    +0.052 HD
ENDBRANCH 141 142
ENDBRANCH  16 141
BRANCH   6 146
ATOM    146  O   UNL     1     163.311 168.866 184.010  0.00  0.00    -0.379 OA
BRANCH 146 147
ATOM    147  C   UNL     1     164.679 168.748 183.638  0.00  0.00    +0.037 C 
ATOM    148  H   UNL     1     165.324 168.613 184.511  0.00  0.00    +0.052 HD
ATOM    149  H   UNL     1     164.782 167.873 182.993  0.00  0.00    +0.052 HD
ATOM    150  H   UNL     1     164.996 169.631 183.073  0.00  0.00    +0.052 HD
ENDBRANCH 146 147
ENDBRANCH   6 146
BRANCH   4 151
ATOM    151  O   UNL     1     161.992 165.452 183.848  0.00  0.00    -0.376 OA
BRANCH 151 152
ATOM    152  C   UNL     1     162.434 165.140 185.165  0.00  0.00    +0.037 C 
ATOM    153  H   UNL     1     163.236 164.394 185.138  0.00  0.00    +0.052 HD
ATOM    154  H   UNL     1     162.830 166.053 185.618  0.00  0.00    +0.052 HD
ATOM    155  H   UNL     1     161.605 164.784 185.782  0.00  0.00    +0.052 HD
ENDBRANCH 151 152
ENDBRANCH   4 151
TORSDOF 33
ENDMDL
MODEL 7
REMARK VINA RESULT:      -5.0      7.428     13.230
REMARK  Name = Reidispongiolide A_conf2
REMARK  33 active torsions:
REMARK  status: ('A' for Active; 'I' for Inactive)
REMARK    1  A    between atoms: C_1  and  C_2
REMARK    2  A    between atoms: C_5  and  O_67
REMARK    3  A    between atoms: C_7  and  O_65
REMARK    4  A    between atoms: C_8  and  C_64
REMARK    5  A    between atoms: C_17  and  O_62
REMARK    6  A    between atoms: C_19  and  C_61
REMARK    7  A    between atoms: C_26  and  C_38
REMARK    8  A    between atoms: C_27  and  C_37
REMARK    9  A    between atoms: C_30  and  O_35
REMARK   10  A    between atoms: C_32  and  O_33
REMARK   11  A    between atoms: O_33  and  C_34
REMARK   12  A    between atoms: O_35  and  C_36
REMARK   13  A    between atoms: C_38  and  C_39
REMARK   14  A    between atoms: C_38  and  C_40
REMARK   15  A    between atoms: C_40  and  C_41
REMARK   16  A    between atoms: C_40  and  O_59
REMARK   17  A    between atoms: C_41  and  C_42
REMARK   18  A    between atoms: C_41  and  C_43
REMARK   19  A    between atoms: C_43  and  C_44
REMARK   20  A    between atoms: C_44  and  C_45
REMARK   21  A    between atoms: C_45  and  C_47
REMARK   22  A    between atoms: C_47  and  C_48
REMARK   23  A    between atoms: C_47  and  C_49
REMARK   24  A    between atoms: C_49  and  C_50
REMARK   25  A    between atoms: C_49  and  O_57
REMARK   26  A    between atoms: C_50  and  C_51
REMARK   27  A    between atoms: C_52  and  N_53
REMARK   28  A    between atoms: N_53  and  C_54
REMARK   29  A    between atoms: O_57  and  C_58
REMARK   30  A    between atoms: O_59  and  C_60
REMARK   31  A    between atoms: O_62  and  C_63
REMARK   32  A    between atoms: O_65  and  C_66
REMARK   33  A    between atoms: O_67  and  C_68
REMARK                            x       y       z     vdW  Elec       q    Type
REMARK                         _______ _______ _______ _____ _____    ______ ____
ROOT
ATOM      1  C   UNL     1     147.092 166.660 185.412  0.00  0.00    +0.001 C 
ATOM      2  C   UNL     1     146.481 165.440 186.080  0.00  0.00    -0.080 C 
ATOM      3  C   UNL     1     147.098 164.677 187.003  0.00  0.00    -0.059 C 
ATOM      4  C   UNL     1     146.557 163.450 187.696  0.00  0.00    +0.079 C 
ATOM      5  C   UNL     1     147.605 162.312 187.752  0.00  0.00    +0.004 C 
ATOM      6  C   UNL     1     147.691 161.407 186.507  0.00  0.00    +0.067 C 
ATOM      7  C   UNL     1     149.016 161.447 185.687  0.00  0.00    +0.020 C 
ATOM      8  C   UNL     1     150.357 160.990 186.333  0.00  0.00    +0.112 C 
ATOM      9  C   UNL     1     151.073 162.004 187.235  0.00  0.00    +0.006 C 
ATOM     10  C   UNL     1     152.338 161.415 187.788  0.00  0.00    -0.057 C 
ATOM     11  C   UNL     1     152.437 160.075 187.883  0.00  0.00    +0.022 C 
ATOM     12  C   UNL     1     151.318 159.165 187.558  0.00  0.00    +0.332 C 
ATOM     13  O   UNL     1     151.378 157.979 187.848  0.00  0.00    -0.246 OA
ATOM     14  O   UNL     1     150.215 159.727 186.998  0.00  0.00    -0.458 OA
ATOM     15  C   UNL     1     153.399 162.326 188.371  0.00  0.00    -0.004 C 
ATOM     16  C   UNL     1     154.169 163.273 187.416  0.00  0.00    +0.066 C 
ATOM     17  C   UNL     1     153.449 164.606 187.072  0.00  0.00    -0.005 C 
ATOM     18  C   UNL     1     152.764 165.328 188.226  0.00  0.00    -0.070 C 
ATOM     19  C   UNL     1     151.424 165.462 188.233  0.00  0.00    -0.062 C 
ATOM     20  C   UNL     1     150.573 166.049 189.239  0.00  0.00    -0.055 C 
ATOM     21  C   UNL     1     150.595 165.734 190.548  0.00  0.00    +0.023 C 
ATOM     22  C   UNL     1     149.597 166.234 191.522  0.00  0.00    +0.332 C 
ATOM     23  O   UNL     1     149.691 166.044 192.722  0.00  0.00    -0.246 OA
ATOM     24  O   UNL     1     148.574 166.835 190.878  0.00  0.00    -0.457 OA
ATOM     25  C   UNL     1     147.408 167.266 191.640  0.00  0.00    +0.114 C 
ATOM     26  C   UNL     1     147.250 168.787 191.340  0.00  0.00    +0.012 C 
ATOM     27  C   UNL     1     147.271 169.129 189.860  0.00  0.00    -0.079 C 
ATOM     28  C   UNL     1     146.172 169.307 189.110  0.00  0.00    -0.059 C 
ATOM     29  C   UNL     1     146.171 169.750 187.672  0.00  0.00    +0.079 C 
ATOM     30  C   UNL     1     146.014 168.573 186.701  0.00  0.00    +0.004 C 
ATOM     31  C   UNL     1     147.337 167.840 186.404  0.00  0.00    +0.067 C 
ATOM     32  H   UNL     1     146.369 167.004 184.658  0.00  0.00    +0.037 HD
ATOM     33  H   UNL     1     145.475 165.178 185.756  0.00  0.00    +0.057 HD
ATOM     34  H   UNL     1     148.087 164.980 187.333  0.00  0.00    +0.059 HD
ATOM     35  H   UNL     1     146.363 163.773 188.725  0.00  0.00    +0.064 HD
ATOM     36  H   UNL     1     148.568 162.753 188.000  0.00  0.00    +0.032 HD
ATOM     37  H   UNL     1     147.339 161.689 188.621  0.00  0.00    +0.032 HD
ATOM     38  H   UNL     1     146.873 161.675 185.824  0.00  0.00    +0.060 HD
ATOM     39  H   UNL     1     148.858 160.702 184.891  0.00  0.00    +0.036 HD
ATOM     40  H   UNL     1     151.030 160.801 185.478  0.00  0.00    +0.074 HD
ATOM     41  H   UNL     1     150.470 162.305 188.092  0.00  0.00    +0.035 HD
ATOM     42  H   UNL     1     151.303 162.887 186.638  0.00  0.00    +0.035 HD
ATOM     43  H   UNL     1     153.298 159.585 188.324  0.00  0.00    +0.069 HD
ATOM     44  H   UNL     1     154.148 161.696 188.872  0.00  0.00    +0.034 HD
ATOM     45  H   UNL     1     152.950 162.891 189.197  0.00  0.00    +0.034 HD
ATOM     46  H   UNL     1     154.363 162.730 186.479  0.00  0.00    +0.060 HD
ATOM     47  H   UNL     1     152.721 164.407 186.275  0.00  0.00    +0.034 HD
ATOM     48  H   UNL     1     154.158 165.316 186.624  0.00  0.00    +0.034 HD
ATOM     49  H   UNL     1     150.861 165.098 187.373  0.00  0.00    +0.062 HD
ATOM     50  H   UNL     1     149.800 166.709 188.845  0.00  0.00    +0.062 HD
ATOM     51  H   UNL     1     151.329 165.053 190.963  0.00  0.00    +0.069 HD
ATOM     52  H   UNL     1     147.591 167.136 192.715  0.00  0.00    +0.074 HD
ATOM     53  H   UNL     1     146.320 169.171 191.762  0.00  0.00    +0.038 HD
ATOM     54  H   UNL     1     148.252 169.262 189.411  0.00  0.00    +0.057 HD
ATOM     55  H   UNL     1     145.189 169.169 189.562  0.00  0.00    +0.059 HD
ATOM     56  H   UNL     1     147.080 170.316 187.431  0.00  0.00    +0.064 HD
ATOM     57  H   UNL     1     145.604 168.958 185.756  0.00  0.00    +0.032 HD
ATOM     58  H   UNL     1     145.271 167.868 187.091  0.00  0.00    +0.032 HD
ATOM     59  H   UNL     1     147.752 167.461 187.345  0.00  0.00    +0.060 HD
ENDROOT
BRANCH   1  60
ATOM     60  C   UNL     1     148.338 166.262 184.613  0.00  0.00    -0.057 C 
ATOM     61  H   UNL     1     148.559 167.006 183.840  0.00  0.00    +0.024 HD
ATOM     62  H   UNL     1     148.214 165.293 184.124  0.00  0.00    +0.024 HD
ATOM     63  H   UNL     1     149.221 166.206 185.259  0.00  0.00    +0.024 HD
ENDBRANCH   1  60
BRANCH  26  64
ATOM     64  C   UNL     1     148.370 169.579 192.036  0.00  0.00    -0.056 C 
ATOM     65  H   UNL     1     148.796 169.024 192.876  0.00  0.00    +0.024 HD
ATOM     66  H   UNL     1     147.988 170.533 192.416  0.00  0.00    +0.024 HD
ATOM     67  H   UNL     1     149.181 169.801 191.333  0.00  0.00    +0.024 HD
ENDBRANCH  26  64
BRANCH  18  68
ATOM     68  C   UNL     1     153.689 165.879 189.278  0.00  0.00    -0.043 C 
ATOM     69  H   UNL     1     154.030 165.074 189.943  0.00  0.00    +0.027 HD
ATOM     70  H   UNL     1     154.593 166.336 188.859  0.00  0.00    +0.027 HD
ATOM     71  H   UNL     1     153.179 166.636 189.885  0.00  0.00    +0.027 HD
ENDBRANCH  18  68
BRANCH   7  72
ATOM     72  C   UNL     1     149.175 162.783 184.960  0.00  0.00    -0.057 C 
ATOM     73  H   UNL     1     149.698 162.642 184.006  0.00  0.00    +0.023 HD
ATOM     74  H   UNL     1     149.770 163.485 185.558  0.00  0.00    +0.023 HD
ATOM     75  H   UNL     1     148.209 163.251 184.754  0.00  0.00    +0.023 HD
ENDBRANCH   7  72
BRANCH  25  76
ATOM     76  C   UNL     1     146.207 166.342 191.244  0.00  0.00    +0.020 C 
ATOM     77  H   UNL     1     145.621 166.877 190.490  0.00  0.00    +0.036 HD
BRANCH  76  78
ATOM     78  C   UNL     1     146.741 165.066 190.556  0.00  0.00    -0.057 C 
ATOM     79  H   UNL     1     145.941 164.513 190.057  0.00  0.00    +0.023 HD
ATOM     80  H   UNL     1     147.500 165.316 189.804  0.00  0.00    +0.023 HD
ATOM     81  H   UNL     1     147.196 164.371 191.264  0.00  0.00    +0.023 HD
ENDBRANCH  76  78
BRANCH  76  82
ATOM     82  C   UNL     1     145.284 165.906 192.430  0.00  0.00    +0.067 C 
ATOM     83  H   UNL     1     145.273 164.807 192.436  0.00  0.00    +0.060 HD
BRANCH  82  84
ATOM     84  C   UNL     1     143.806 166.400 192.282  0.00  0.00    -0.017 C 
ATOM     85  H   UNL     1     143.209 165.599 191.830  0.00  0.00    +0.032 HD
BRANCH  84  86
ATOM     86  C   UNL     1     143.203 166.662 193.672  0.00  0.00    -0.060 C 
ATOM     87  H   UNL     1     143.384 167.694 193.987  0.00  0.00    +0.023 HD
ATOM     88  H   UNL     1     143.660 166.016 194.429  0.00  0.00    +0.023 HD
ATOM     89  H   UNL     1     142.122 166.483 193.684  0.00  0.00    +0.023 HD
ENDBRANCH  84  86
BRANCH  84  90
ATOM     90  C   UNL     1     143.680 167.660 191.393  0.00  0.00    -0.041 C 
ATOM     91  H   UNL     1     143.389 167.380 190.376  0.00  0.00    +0.027 HD
ATOM     92  H   UNL     1     144.654 168.156 191.301  0.00  0.00    +0.027 HD
BRANCH  90  93
ATOM     93  C   UNL     1     142.650 168.661 191.911  0.00  0.00    +0.007 C 
ATOM     94  H   UNL     1     142.026 168.213 192.690  0.00  0.00    +0.034 HD
ATOM     95  H   UNL     1     143.134 169.535 192.361  0.00  0.00    +0.034 HD
BRANCH  93  96
ATOM     96  C   UNL     1     141.776 169.173 190.783  0.00  0.00    +0.139 C 
ATOM     97  O   UNL     1     141.221 168.377 190.020  0.00  0.00    -0.297 OA
BRANCH  96  98
ATOM     98  C   UNL     1     141.592 170.682 190.652  0.00  0.00    +0.041 C 
ATOM     99  H   UNL     1     140.645 170.930 191.150  0.00  0.00    +0.040 HD
BRANCH  98 100
ATOM    100  C   UNL     1     141.390 171.069 189.181  0.00  0.00    -0.053 C 
ATOM    101  H   UNL     1     140.483 171.667 189.044  0.00  0.00    +0.024 HD
ATOM    102  H   UNL     1     141.285 170.171 188.561  0.00  0.00    +0.024 HD
ATOM    103  H   UNL     1     142.239 171.637 188.788  0.00  0.00    +0.024 HD
ENDBRANCH  98 100
BRANCH  98 104
ATOM    104  C   UNL     1     142.711 171.488 191.354  0.00  0.00    +0.071 C 
ATOM    105  H   UNL     1     143.053 170.901 192.218  0.00  0.00    +0.061 HD
BRANCH 104 106
ATOM    106  C   UNL     1     143.923 171.823 190.446  0.00  0.00    -0.006 C 
ATOM    107  H   UNL     1     144.277 170.926 189.923  0.00  0.00    +0.033 HD
ATOM    108  H   UNL     1     143.623 172.514 189.650  0.00  0.00    +0.033 HD
BRANCH 106 109
ATOM    109  C   UNL     1     145.031 172.485 191.216  0.00  0.00    -0.067 C 
ATOM    110  C   UNL     1     146.311 172.493 190.820  0.00  0.00    -0.005 C 
ATOM    111  H   UNL     1     144.730 172.964 192.142  0.00  0.00    +0.059 HD
ATOM    112  H   UNL     1     146.564 172.027 189.868  0.00  0.00    +0.078 HD
BRANCH 110 113
ATOM    113  N   UNL     1     147.387 173.031 191.504  0.00  0.00    -0.284 N 
ATOM    114  C   UNL     1     147.327 173.602 192.774  0.00  0.00    +0.206 C 
ATOM    115  O   UNL     1     146.377 173.669 193.544  0.00  0.00    -0.279 OA
ATOM    116  H   UNL     1     148.304 174.015 193.082  0.00  0.00    +0.126 HD
BRANCH 113 117
ATOM    117  C   UNL     1     148.695 172.871 190.881  0.00  0.00    +0.007 C 
ATOM    118  H   UNL     1     148.571 172.320 189.943  0.00  0.00    +0.043 HD
ATOM    119  H   UNL     1     149.130 173.854 190.682  0.00  0.00    +0.043 HD
ATOM    120  H   UNL     1     149.380 172.307 191.521  0.00  0.00    +0.043 HD
ENDBRANCH 113 117
ENDBRANCH 110 113
ENDBRANCH 106 109
ENDBRANCH 104 106
BRANCH 104 121
ATOM    121  O   UNL     1     142.136 172.713 191.847  0.00  0.00    -0.379 OA
BRANCH 121 122
ATOM    122  C   UNL     1     140.937 172.514 192.589  0.00  0.00    +0.037 C 
ATOM    123  H   UNL     1     140.132 172.205 191.916  0.00  0.00    +0.052 HD
ATOM    124  H   UNL     1     141.065 171.766 193.378  0.00  0.00    +0.052 HD
ATOM    125  H   UNL     1     140.659 173.466 193.047  0.00  0.00    +0.052 HD
ENDBRANCH 121 122
ENDBRANCH 104 121
ENDBRANCH  98 104
ENDBRANCH  96  98
ENDBRANCH  93  96
ENDBRANCH  90  93
ENDBRANCH  84  90
ENDBRANCH  82  84
BRANCH  82 126
ATOM    126  O   UNL     1     145.776 166.383 193.681  0.00  0.00    -0.379 OA
BRANCH 126 127
ATOM    127  C   UNL     1     146.368 165.366 194.481  0.00  0.00    +0.037 C 
ATOM    128  H   UNL     1     146.127 165.570 195.526  0.00  0.00    +0.052 HD
ATOM    129  H   UNL     1     145.974 164.383 194.216  0.00  0.00    +0.052 HD
ATOM    130  H   UNL     1     147.457 165.376 194.367  0.00  0.00    +0.052 HD
ENDBRANCH 126 127
ENDBRANCH  82 126
ENDBRANCH  76  82
ENDBRANCH  25  76
BRANCH  31 131
ATOM    131  O   UNL     1     148.237 168.795 185.818  0.00  0.00    -0.379 OA
BRANCH 131 132
ATOM    132  C   UNL     1     147.618 169.640 184.855  0.00  0.00    +0.037 C 
ATOM    133  H   UNL     1     146.677 169.215 184.496  0.00  0.00    +0.052 HD
ATOM    134  H   UNL     1     147.405 170.603 185.331  0.00  0.00    +0.052 HD
ATOM    135  H   UNL     1     148.292 169.815 184.012  0.00  0.00    +0.052 HD
ENDBRANCH 131 132
ENDBRANCH  31 131
BRANCH  29 136
ATOM    136  O   UNL     1     145.025 170.596 187.501  0.00  0.00    -0.376 OA
BRANCH 136 137
ATOM    137  C   UNL     1     145.373 171.896 187.038  0.00  0.00    +0.037 C 
ATOM    138  H   UNL     1     144.730 172.657 187.493  0.00  0.00    +0.052 HD
ATOM    139  H   UNL     1     145.235 171.923 185.954  0.00  0.00    +0.052 HD
ATOM    140  H   UNL     1     146.425 172.111 187.261  0.00  0.00    +0.052 HD
ENDBRANCH 136 137
ENDBRANCH  29 136
BRANCH  16 141
ATOM    141  O   UNL     1     155.439 163.542 188.044  0.00  0.00    -0.379 OA
BRANCH 141 142
ATOM    142  C   UNL     1     155.910 162.489 188.877  0.00  0.00    +0.037 C 
ATOM    143  H   UNL     1     155.648 162.670 189.923  0.00  0.00    +0.052 HD
ATOM    144  H   UNL     1     155.424 161.563 188.562  0.00  0.00    +0.052 HD
ATOM    145  H   UNL     1     156.991 162.360 188.776  0.00  0.00    +0.052 HD
ENDBRANCH 141 142
ENDBRANCH  16 141
BRANCH   6 146
ATOM    146  O   UNL     1     147.447 160.070 186.981  0.00  0.00    -0.379 OA
BRANCH 146 147
ATOM    147  C   UNL     1     146.118 159.614 186.763  0.00  0.00    +0.037 C 
ATOM    148  H   UNL     1     145.977 159.257 185.739  0.00  0.00    +0.052 HD
ATOM    149  H   UNL     1     145.925 158.786 187.448  0.00  0.00    +0.052 HD
ATOM    150  H   UNL     1     145.402 160.414 186.981  0.00  0.00    +0.052 HD
ENDBRANCH 146 147
ENDBRANCH   6 146
BRANCH   4 151
ATOM    151  O   UNL     1     145.318 163.049 187.116  0.00  0.00    -0.376 OA
BRANCH 151 152
ATOM    152  C   UNL     1     144.273 162.904 188.073  0.00  0.00    +0.037 C 
ATOM    153  H   UNL     1     143.294 162.920 187.582  0.00  0.00    +0.052 HD
ATOM    154  H   UNL     1     144.395 161.936 188.567  0.00  0.00    +0.052 HD
ATOM    155  H   UNL     1     144.329 163.686 188.834  0.00  0.00    +0.052 HD
ENDBRANCH 151 152
ENDBRANCH   4 151
TORSDOF 33
ENDMDL
MODEL 8
REMARK VINA RESULT:      -5.0      7.510     13.578
REMARK  Name = Reidispongiolide A_conf2
REMARK  33 active torsions:
REMARK  status: ('A' for Active; 'I' for Inactive)
REMARK    1  A    between atoms: C_1  and  C_2
REMARK    2  A    between atoms: C_5  and  O_67
REMARK    3  A    between atoms: C_7  and  O_65
REMARK    4  A    between atoms: C_8  and  C_64
REMARK    5  A    between atoms: C_17  and  O_62
REMARK    6  A    between atoms: C_19  and  C_61
REMARK    7  A    between atoms: C_26  and  C_38
REMARK    8  A    between atoms: C_27  and  C_37
REMARK    9  A    between atoms: C_30  and  O_35
REMARK   10  A    between atoms: C_32  and  O_33
REMARK   11  A    between atoms: O_33  and  C_34
REMARK   12  A    between atoms: O_35  and  C_36
REMARK   13  A    between atoms: C_38  and  C_39
REMARK   14  A    between atoms: C_38  and  C_40
REMARK   15  A    between atoms: C_40  and  C_41
REMARK   16  A    between atoms: C_40  and  O_59
REMARK   17  A    between atoms: C_41  and  C_42
REMARK   18  A    between atoms: C_41  and  C_43
REMARK   19  A    between atoms: C_43  and  C_44
REMARK   20  A    between atoms: C_44  and  C_45
REMARK   21  A    between atoms: C_45  and  C_47
REMARK   22  A    between atoms: C_47  and  C_48
REMARK   23  A    between atoms: C_47  and  C_49
REMARK   24  A    between atoms: C_49  and  C_50
REMARK   25  A    between atoms: C_49  and  O_57
REMARK   26  A    between atoms: C_50  and  C_51
REMARK   27  A    between atoms: C_52  and  N_53
REMARK   28  A    between atoms: N_53  and  C_54
REMARK   29  A    between atoms: O_57  and  C_58
REMARK   30  A    between atoms: O_59  and  C_60
REMARK   31  A    between atoms: O_62  and  C_63
REMARK   32  A    between atoms: O_65  and  C_66
REMARK   33  A    between atoms: O_67  and  C_68
REMARK                            x       y       z     vdW  Elec       q    Type
REMARK                         _______ _______ _______ _____ _____    ______ ____
ROOT
ATOM      1  C   UNL     1     145.931 166.031 184.934  0.00  0.00    +0.001 C 
ATOM      2  C   UNL     1     145.651 164.856 185.856  0.00  0.00    -0.080 C 
ATOM      3  C   UNL     1     146.513 164.372 186.771  0.00  0.00    -0.059 C 
ATOM      4  C   UNL     1     146.307 163.206 187.707  0.00  0.00    +0.079 C 
ATOM      5  C   UNL     1     147.550 162.285 187.761  0.00  0.00    +0.004 C 
ATOM      6  C   UNL     1     147.648 161.211 186.659  0.00  0.00    +0.067 C 
ATOM      7  C   UNL     1     148.825 161.333 185.647  0.00  0.00    +0.020 C 
ATOM      8  C   UNL     1     150.300 161.222 186.135  0.00  0.00    +0.112 C 
ATOM      9  C   UNL     1     150.919 162.478 186.762  0.00  0.00    +0.006 C 
ATOM     10  C   UNL     1     152.333 162.210 187.190  0.00  0.00    -0.057 C 
ATOM     11  C   UNL     1     152.696 160.941 187.459  0.00  0.00    +0.022 C 
ATOM     12  C   UNL     1     151.736 159.815 187.444  0.00  0.00    +0.332 C 
ATOM     13  O   UNL     1     152.056 158.722 187.887  0.00  0.00    -0.246 OA
ATOM     14  O   UNL     1     150.486 160.083 186.987  0.00  0.00    -0.458 OA
ATOM     15  C   UNL     1     153.268 163.371 187.466  0.00  0.00    -0.004 C 
ATOM     16  C   UNL     1     153.717 164.259 186.278  0.00  0.00    +0.066 C 
ATOM     17  C   UNL     1     152.719 165.376 185.864  0.00  0.00    -0.005 C 
ATOM     18  C   UNL     1     152.063 166.157 186.995  0.00  0.00    -0.070 C 
ATOM     19  C   UNL     1     150.734 166.064 187.191  0.00  0.00    -0.062 C 
ATOM     20  C   UNL     1     149.921 166.661 188.223  0.00  0.00    -0.055 C 
ATOM     21  C   UNL     1     150.168 166.578 189.543  0.00  0.00    +0.023 C 
ATOM     22  C   UNL     1     149.225 167.061 190.579  0.00  0.00    +0.332 C 
ATOM     23  O   UNL     1     149.505 167.094 191.765  0.00  0.00    -0.246 OA
ATOM     24  O   UNL     1     148.034 167.366 190.023  0.00  0.00    -0.457 OA
ATOM     25  C   UNL     1     146.913 167.718 190.888  0.00  0.00    +0.114 C 
ATOM     26  C   UNL     1     146.433 169.119 190.402  0.00  0.00    +0.012 C 
ATOM     27  C   UNL     1     146.202 169.206 188.903  0.00  0.00    -0.079 C 
ATOM     28  C   UNL     1     145.003 169.069 188.315  0.00  0.00    -0.059 C 
ATOM     29  C   UNL     1     144.735 169.258 186.846  0.00  0.00    +0.079 C 
ATOM     30  C   UNL     1     144.682 167.925 186.089  0.00  0.00    +0.004 C 
ATOM     31  C   UNL     1     146.072 167.384 185.698  0.00  0.00    +0.067 C 
ATOM     32  H   UNL     1     145.066 166.117 184.260  0.00  0.00    +0.037 HD
ATOM     33  H   UNL     1     144.680 164.378 185.732  0.00  0.00    +0.057 HD
ATOM     34  H   UNL     1     147.461 164.888 186.897  0.00  0.00    +0.059 HD
ATOM     35  H   UNL     1     146.188 163.660 188.696  0.00  0.00    +0.064 HD
ATOM     36  H   UNL     1     148.436 162.916 187.791  0.00  0.00    +0.032 HD
ATOM     37  H   UNL     1     147.519 161.781 188.740  0.00  0.00    +0.032 HD
ATOM     38  H   UNL     1     146.713 161.220 186.081  0.00  0.00    +0.060 HD
ATOM     39  H   UNL     1     148.712 160.449 184.999  0.00  0.00    +0.036 HD
ATOM     40  H   UNL     1     150.883 161.007 185.222  0.00  0.00    +0.074 HD
ATOM     41  H   UNL     1     150.384 162.814 187.650  0.00  0.00    +0.035 HD
ATOM     42  H   UNL     1     150.901 163.274 186.017  0.00  0.00    +0.035 HD
ATOM     43  H   UNL     1     153.682 160.682 187.826  0.00  0.00    +0.069 HD
ATOM     44  H   UNL     1     154.180 162.968 187.929  0.00  0.00    +0.034 HD
ATOM     45  H   UNL     1     152.828 163.983 188.263  0.00  0.00    +0.034 HD
ATOM     46  H   UNL     1     153.890 163.607 185.409  0.00  0.00    +0.060 HD
ATOM     47  H   UNL     1     151.947 164.927 185.226  0.00  0.00    +0.034 HD
ATOM     48  H   UNL     1     153.219 166.109 185.215  0.00  0.00    +0.034 HD
ATOM     49  H   UNL     1     150.145 165.472 186.489  0.00  0.00    +0.062 HD
ATOM     50  H   UNL     1     148.993 167.107 187.864  0.00  0.00    +0.062 HD
ATOM     51  H   UNL     1     151.064 166.109 189.933  0.00  0.00    +0.069 HD
ATOM     52  H   UNL     1     147.253 167.803 191.929  0.00  0.00    +0.074 HD
ATOM     53  H   UNL     1     145.509 169.407 190.904  0.00  0.00    +0.038 HD
ATOM     54  H   UNL     1     147.075 169.424 188.293  0.00  0.00    +0.057 HD
ATOM     55  H   UNL     1     144.129 168.847 188.929  0.00  0.00    +0.059 HD
ATOM     56  H   UNL     1     145.483 169.920 186.389  0.00  0.00    +0.064 HD
ATOM     57  H   UNL     1     144.090 168.073 185.174  0.00  0.00    +0.032 HD
ATOM     58  H   UNL     1     144.141 167.182 186.686  0.00  0.00    +0.032 HD
ATOM     59  H   UNL     1     146.667 167.243 186.608  0.00  0.00    +0.060 HD
ENDROOT
BRANCH   1  60
ATOM     60  C   UNL     1     147.118 165.718 184.016  0.00  0.00    -0.057 C 
ATOM     61  H   UNL     1     147.527 166.636 183.581  0.00  0.00    +0.024 HD
ATOM     62  H   UNL     1     146.833 165.053 183.198  0.00  0.00    +0.024 HD
ATOM     63  H   UNL     1     147.933 165.241 184.572  0.00  0.00    +0.024 HD
ENDBRANCH   1  60
BRANCH  26  64
ATOM     64  C   UNL     1     147.463 170.192 190.796  0.00  0.00    -0.056 C 
ATOM     65  H   UNL     1     148.006 170.571 189.926  0.00  0.00    +0.024 HD
ATOM     66  H   UNL     1     148.194 169.783 191.502  0.00  0.00    +0.024 HD
ATOM     67  H   UNL     1     146.970 171.042 191.280  0.00  0.00    +0.024 HD
ENDBRANCH  26  64
BRANCH  18  68
ATOM     68  C   UNL     1     152.992 167.023 187.802  0.00  0.00    -0.043 C 
ATOM     69  H   UNL     1     153.470 167.771 187.156  0.00  0.00    +0.027 HD
ATOM     70  H   UNL     1     152.480 167.581 188.594  0.00  0.00    +0.027 HD
ATOM     71  H   UNL     1     153.777 166.418 188.270  0.00  0.00    +0.027 HD
ENDBRANCH  18  68
BRANCH   7  72
ATOM     72  C   UNL     1     148.635 162.536 184.721  0.00  0.00    -0.057 C 
ATOM     73  H   UNL     1     149.482 163.227 184.809  0.00  0.00    +0.023 HD
ATOM     74  H   UNL     1     147.729 163.095 184.988  0.00  0.00    +0.023 HD
ATOM     75  H   UNL     1     148.547 162.234 183.675  0.00  0.00    +0.023 HD
ENDBRANCH   7  72
BRANCH  25  76
ATOM     76  C   UNL     1     145.869 166.554 190.818  0.00  0.00    +0.020 C 
ATOM     77  H   UNL     1     145.117 166.836 190.075  0.00  0.00    +0.036 HD
BRANCH  76  78
ATOM     78  C   UNL     1     146.552 165.276 190.281  0.00  0.00    -0.057 C 
ATOM     79  H   UNL     1     146.592 164.491 191.040  0.00  0.00    +0.023 HD
ATOM     80  H   UNL     1     146.012 164.880 189.411  0.00  0.00    +0.023 HD
ATOM     81  H   UNL     1     147.584 165.455 189.972  0.00  0.00    +0.023 HD
ENDBRANCH  76  78
BRANCH  76  82
ATOM     82  C   UNL     1     145.176 166.200 192.176  0.00  0.00    +0.067 C 
ATOM     83  H   UNL     1     145.369 165.135 192.363  0.00  0.00    +0.060 HD
BRANCH  82  84
ATOM     84  C   UNL     1     143.624 166.409 192.154  0.00  0.00    -0.017 C 
ATOM     85  H   UNL     1     143.138 165.433 192.038  0.00  0.00    +0.032 HD
BRANCH  84  86
ATOM     86  C   UNL     1     143.156 166.971 193.507  0.00  0.00    -0.060 C 
ATOM     87  H   UNL     1     143.354 166.261 194.314  0.00  0.00    +0.023 HD
ATOM     88  H   UNL     1     142.077 167.154 193.505  0.00  0.00    +0.023 HD
ATOM     89  H   UNL     1     143.657 167.915 193.747  0.00  0.00    +0.023 HD
ENDBRANCH  84  86
BRANCH  84  90
ATOM     90  C   UNL     1     143.157 167.326 190.999  0.00  0.00    -0.041 C 
ATOM     91  H   UNL     1     142.308 166.875 190.476  0.00  0.00    +0.027 HD
ATOM     92  H   UNL     1     143.953 167.425 190.251  0.00  0.00    +0.027 HD
BRANCH  90  93
ATOM     93  C   UNL     1     142.728 168.714 191.468  0.00  0.00    +0.007 C 
ATOM     94  H   UNL     1     142.177 168.655 192.412  0.00  0.00    +0.034 HD
ATOM     95  H   UNL     1     143.595 169.359 191.651  0.00  0.00    +0.034 HD
BRANCH  93  96
ATOM     96  C   UNL     1     141.879 169.402 190.418  0.00  0.00    +0.139 C 
ATOM     97  O   UNL     1     140.935 168.804 189.895  0.00  0.00    -0.297 OA
BRANCH  96  98
ATOM     98  C   UNL     1     142.215 170.849 190.065  0.00  0.00    +0.041 C 
ATOM     99  H   UNL     1     142.570 170.847 189.026  0.00  0.00    +0.040 HD
BRANCH  98 100
ATOM    100  C   UNL     1     143.406 171.337 190.900  0.00  0.00    -0.053 C 
ATOM    101  H   UNL     1     143.991 172.092 190.362  0.00  0.00    +0.024 HD
ATOM    102  H   UNL     1     144.081 170.504 191.128  0.00  0.00    +0.024 HD
ATOM    103  H   UNL     1     143.086 171.768 191.855  0.00  0.00    +0.024 HD
ENDBRANCH  98 100
BRANCH  98 104
ATOM    104  C   UNL     1     140.986 171.787 190.136  0.00  0.00    +0.071 C 
ATOM    105  H   UNL     1     140.216 171.378 189.467  0.00  0.00    +0.061 HD
BRANCH 104 106
ATOM    106  C   UNL     1     140.394 171.959 191.559  0.00  0.00    -0.006 C 
ATOM    107  H   UNL     1     140.923 171.323 192.280  0.00  0.00    +0.033 HD
ATOM    108  H   UNL     1     140.553 172.983 191.916  0.00  0.00    +0.033 HD
BRANCH 106 109
ATOM    109  C   UNL     1     138.913 171.704 191.582  0.00  0.00    -0.067 C 
ATOM    110  C   UNL     1     138.314 170.732 190.882  0.00  0.00    -0.005 C 
ATOM    111  H   UNL     1     138.337 172.376 192.210  0.00  0.00    +0.059 HD
ATOM    112  H   UNL     1     138.934 170.061 190.288  0.00  0.00    +0.078 HD
BRANCH 110 113
ATOM    113  N   UNL     1     136.955 170.478 190.811  0.00  0.00    -0.284 N 
ATOM    114  C   UNL     1     136.336 169.301 191.227  0.00  0.00    +0.206 C 
ATOM    115  O   UNL     1     136.826 168.330 191.790  0.00  0.00    -0.279 OA
ATOM    116  H   UNL     1     135.252 169.313 191.014  0.00  0.00    +0.126 HD
BRANCH 113 117
ATOM    117  C   UNL     1     136.112 171.585 190.375  0.00  0.00    +0.007 C 
ATOM    118  H   UNL     1     136.519 171.988 189.442  0.00  0.00    +0.043 HD
ATOM    119  H   UNL     1     135.091 171.228 190.215  0.00  0.00    +0.043 HD
ATOM    120  H   UNL     1     136.090 172.390 191.115  0.00  0.00    +0.043 HD
ENDBRANCH 113 117
ENDBRANCH 110 113
ENDBRANCH 106 109
ENDBRANCH 104 106
BRANCH 104 121
ATOM    121  O   UNL     1     141.379 173.075 189.628  0.00  0.00    -0.379 OA
BRANCH 121 122
ATOM    122  C   UNL     1     141.133 174.141 190.538  0.00  0.00    +0.037 C 
ATOM    123  H   UNL     1     141.990 174.821 190.553  0.00  0.00    +0.052 HD
ATOM    124  H   UNL     1     140.226 174.698 190.279  0.00  0.00    +0.052 HD
ATOM    125  H   UNL     1     141.013 173.714 191.536  0.00  0.00    +0.052 HD
ENDBRANCH 121 122
ENDBRANCH 104 121
ENDBRANCH  98 104
ENDBRANCH  96  98
ENDBRANCH  93  96
ENDBRANCH  90  93
ENDBRANCH  84  90
ENDBRANCH  82  84
BRANCH  82 126
ATOM    126  O   UNL     1     145.701 166.975 193.252  0.00  0.00    -0.379 OA
BRANCH 126 127
ATOM    127  C   UNL     1     146.613 166.256 194.073  0.00  0.00    +0.037 C 
ATOM    128  H   UNL     1     146.058 165.845 194.920  0.00  0.00    +0.052 HD
ATOM    129  H   UNL     1     147.070 165.433 193.521  0.00  0.00    +0.052 HD
ATOM    130  H   UNL     1     147.390 166.924 194.459  0.00  0.00    +0.052 HD
ENDBRANCH 126 127
ENDBRANCH  82 126
ENDBRANCH  76  82
ENDBRANCH  25  76
BRANCH  31 131
ATOM    131  O   UNL     1     146.692 168.364 184.849  0.00  0.00    -0.379 OA
BRANCH 131 132
ATOM    132  C   UNL     1     147.890 168.907 185.392  0.00  0.00    +0.037 C 
ATOM    133  H   UNL     1     147.930 169.992 185.264  0.00  0.00    +0.052 HD
ATOM    134  H   UNL     1     147.914 168.682 186.463  0.00  0.00    +0.052 HD
ATOM    135  H   UNL     1     148.764 168.445 184.925  0.00  0.00    +0.052 HD
ENDBRANCH 131 132
ENDBRANCH  31 131
BRANCH  29 136
ATOM    136  O   UNL     1     143.437 169.860 186.736  0.00  0.00    -0.376 OA
BRANCH 136 137
ATOM    137  C   UNL     1     142.393 168.895 186.697  0.00  0.00    +0.037 C 
ATOM    138  H   UNL     1     141.412 169.378 186.765  0.00  0.00    +0.052 HD
ATOM    139  H   UNL     1     142.513 168.225 187.553  0.00  0.00    +0.052 HD
ATOM    140  H   UNL     1     142.457 168.301 185.778  0.00  0.00    +0.052 HD
ENDBRANCH 136 137
ENDBRANCH  29 136
BRANCH  16 141
ATOM    141  O   UNL     1     154.982 164.838 186.657  0.00  0.00    -0.379 OA
BRANCH 141 142
ATOM    142  C   UNL     1     155.564 164.254 187.818  0.00  0.00    +0.037 C 
ATOM    143  H   UNL     1     156.562 164.662 188.002  0.00  0.00    +0.052 HD
ATOM    144  H   UNL     1     154.934 164.502 188.674  0.00  0.00    +0.052 HD
ATOM    145  H   UNL     1     155.611 163.165 187.729  0.00  0.00    +0.052 HD
ENDBRANCH 141 142
ENDBRANCH  16 141
BRANCH   6 146
ATOM    146  O   UNL     1     147.723 159.951 187.351  0.00  0.00    -0.379 OA
BRANCH 146 147
ATOM    147  C   UNL     1     147.121 158.870 186.649  0.00  0.00    +0.037 C 
ATOM    148  H   UNL     1     147.521 158.776 185.636  0.00  0.00    +0.052 HD
ATOM    149  H   UNL     1     147.336 157.949 187.194  0.00  0.00    +0.052 HD
ATOM    150  H   UNL     1     146.035 159.001 186.610  0.00  0.00    +0.052 HD
ENDBRANCH 146 147
ENDBRANCH   6 146
BRANCH   4 151
ATOM    151  O   UNL     1     145.103 162.512 187.389  0.00  0.00    -0.376 OA
BRANCH 151 152
ATOM    152  C   UNL     1     144.266 162.297 188.521  0.00  0.00    +0.037 C 
ATOM    153  H   UNL     1     143.300 162.796 188.388  0.00  0.00    +0.052 HD
ATOM    154  H   UNL     1     144.088 161.222 188.614  0.00  0.00    +0.052 HD
ATOM    155  H   UNL     1     144.750 162.644 189.437  0.00  0.00    +0.052 HD
ENDBRANCH 151 152
ENDBRANCH   4 151
TORSDOF 33
ENDMDL
MODEL 9
REMARK VINA RESULT:      -5.0      5.625     11.854
REMARK  Name = Reidispongiolide A_conf2
REMARK  33 active torsions:
REMARK  status: ('A' for Active; 'I' for Inactive)
REMARK    1  A    between atoms: C_1  and  C_2
REMARK    2  A    between atoms: C_5  and  O_67
REMARK    3  A    between atoms: C_7  and  O_65
REMARK    4  A    between atoms: C_8  and  C_64
REMARK    5  A    between atoms: C_17  and  O_62
REMARK    6  A    between atoms: C_19  and  C_61
REMARK    7  A    between atoms: C_26  and  C_38
REMARK    8  A    between atoms: C_27  and  C_37
REMARK    9  A    between atoms: C_30  and  O_35
REMARK   10  A    between atoms: C_32  and  O_33
REMARK   11  A    between atoms: O_33  and  C_34
REMARK   12  A    between atoms: O_35  and  C_36
REMARK   13  A    between atoms: C_38  and  C_39
REMARK   14  A    between atoms: C_38  and  C_40
REMARK   15  A    between atoms: C_40  and  C_41
REMARK   16  A    between atoms: C_40  and  O_59
REMARK   17  A    between atoms: C_41  and  C_42
REMARK   18  A    between atoms: C_41  and  C_43
REMARK   19  A    between atoms: C_43  and  C_44
REMARK   20  A    between atoms: C_44  and  C_45
REMARK   21  A    between atoms: C_45  and  C_47
REMARK   22  A    between atoms: C_47  and  C_48
REMARK   23  A    between atoms: C_47  and  C_49
REMARK   24  A    between atoms: C_49  and  C_50
REMARK   25  A    between atoms: C_49  and  O_57
REMARK   26  A    between atoms: C_50  and  C_51
REMARK   27  A    between atoms: C_52  and  N_53
REMARK   28  A    between atoms: N_53  and  C_54
REMARK   29  A    between atoms: O_57  and  C_58
REMARK   30  A    between atoms: O_59  and  C_60
REMARK   31  A    between atoms: O_62  and  C_63
REMARK   32  A    between atoms: O_65  and  C_66
REMARK   33  A    between atoms: O_67  and  C_68
REMARK                            x       y       z     vdW  Elec       q    Type
REMARK                         _______ _______ _______ _____ _____    ______ ____
ROOT
ATOM      1  C   UNL     1     150.591 163.901 183.413  0.00  0.00    +0.001 C 
ATOM      2  C   UNL     1     149.990 164.440 184.700  0.00  0.00    -0.080 C 
ATOM      3  C   UNL     1     149.830 163.729 185.833  0.00  0.00    -0.059 C 
ATOM      4  C   UNL     1     149.233 164.195 187.138  0.00  0.00    +0.079 C 
ATOM      5  C   UNL     1     148.253 163.152 187.728  0.00  0.00    +0.004 C 
ATOM      6  C   UNL     1     146.805 163.206 187.200  0.00  0.00    +0.067 C 
ATOM      7  C   UNL     1     146.297 161.980 186.385  0.00  0.00    +0.020 C 
ATOM      8  C   UNL     1     146.190 160.577 187.053  0.00  0.00    +0.112 C 
ATOM      9  C   UNL     1     147.486 159.763 187.166  0.00  0.00    +0.006 C 
ATOM     10  C   UNL     1     147.223 158.447 187.839  0.00  0.00    -0.057 C 
ATOM     11  C   UNL     1     146.159 158.343 188.659  0.00  0.00    +0.022 C 
ATOM     12  C   UNL     1     145.297 159.495 188.999  0.00  0.00    +0.332 C 
ATOM     13  O   UNL     1     144.471 159.408 189.896  0.00  0.00    -0.246 OA
ATOM     14  O   UNL     1     145.522 160.650 188.321  0.00  0.00    -0.458 OA
ATOM     15  C   UNL     1     148.234 157.324 187.716  0.00  0.00    -0.004 C 
ATOM     16  C   UNL     1     148.438 156.660 186.331  0.00  0.00    +0.066 C 
ATOM     17  C   UNL     1     149.399 157.409 185.366  0.00  0.00    -0.005 C 
ATOM     18  C   UNL     1     150.683 157.959 185.974  0.00  0.00    -0.070 C 
ATOM     19  C   UNL     1     150.884 159.290 186.024  0.00  0.00    -0.062 C 
ATOM     20  C   UNL     1     151.985 160.023 186.600  0.00  0.00    -0.055 C 
ATOM     21  C   UNL     1     152.449 159.859 187.853  0.00  0.00    +0.023 C 
ATOM     22  C   UNL     1     153.470 160.742 188.464  0.00  0.00    +0.332 C 
ATOM     23  O   UNL     1     153.973 160.517 189.552  0.00  0.00    -0.246 OA
ATOM     24  O   UNL     1     153.676 161.827 187.688  0.00  0.00    -0.457 OA
ATOM     25  C   UNL     1     154.533 162.901 188.179  0.00  0.00    +0.114 C 
ATOM     26  C   UNL     1     155.637 163.085 187.095  0.00  0.00    +0.012 C 
ATOM     27  C   UNL     1     155.096 163.225 185.682  0.00  0.00    -0.079 C 
ATOM     28  C   UNL     1     154.898 164.399 185.062  0.00  0.00    -0.059 C 
ATOM     29  C   UNL     1     154.467 164.556 183.629  0.00  0.00    +0.079 C 
ATOM     30  C   UNL     1     152.962 164.824 183.501  0.00  0.00    +0.004 C 
ATOM     31  C   UNL     1     152.104 163.544 183.549  0.00  0.00    +0.067 C 
ATOM     32  H   UNL     1     150.503 164.701 182.663  0.00  0.00    +0.037 HD
ATOM     33  H   UNL     1     149.657 165.477 184.669  0.00  0.00    +0.057 HD
ATOM     34  H   UNL     1     150.201 162.708 185.847  0.00  0.00    +0.059 HD
ATOM     35  H   UNL     1     150.084 164.274 187.823  0.00  0.00    +0.064 HD
ATOM     36  H   UNL     1     148.694 162.165 187.600  0.00  0.00    +0.032 HD
ATOM     37  H   UNL     1     148.237 163.323 188.816  0.00  0.00    +0.032 HD
ATOM     38  H   UNL     1     146.701 164.093 186.560  0.00  0.00    +0.060 HD
ATOM     39  H   UNL     1     145.248 162.227 186.159  0.00  0.00    +0.036 HD
ATOM     40  H   UNL     1     145.515 160.003 186.395  0.00  0.00    +0.074 HD
ATOM     41  H   UNL     1     148.251 160.267 187.758  0.00  0.00    +0.035 HD
ATOM     42  H   UNL     1     147.872 159.596 186.160  0.00  0.00    +0.035 HD
ATOM     43  H   UNL     1     145.942 157.442 189.220  0.00  0.00    +0.069 HD
ATOM     44  H   UNL     1     147.942 156.527 188.415  0.00  0.00    +0.034 HD
ATOM     45  H   UNL     1     149.190 157.678 188.121  0.00  0.00    +0.034 HD
ATOM     46  H   UNL     1     147.455 156.573 185.845  0.00  0.00    +0.060 HD
ATOM     47  H   UNL     1     148.839 158.220 184.885  0.00  0.00    +0.034 HD
ATOM     48  H   UNL     1     149.692 156.750 184.536  0.00  0.00    +0.034 HD
ATOM     49  H   UNL     1     150.141 159.946 185.568  0.00  0.00    +0.062 HD
ATOM     50  H   UNL     1     152.363 160.833 185.975  0.00  0.00    +0.062 HD
ATOM     51  H   UNL     1     152.068 159.087 188.511  0.00  0.00    +0.069 HD
ATOM     52  H   UNL     1     155.010 162.602 189.122  0.00  0.00    +0.074 HD
ATOM     53  H   UNL     1     156.249 163.962 187.311  0.00  0.00    +0.038 HD
ATOM     54  H   UNL     1     154.894 162.298 185.150  0.00  0.00    +0.057 HD
ATOM     55  H   UNL     1     155.099 165.327 185.599  0.00  0.00    +0.059 HD
ATOM     56  H   UNL     1     154.743 163.676 183.033  0.00  0.00    +0.064 HD
ATOM     57  H   UNL     1     152.783 165.333 182.543  0.00  0.00    +0.032 HD
ATOM     58  H   UNL     1     152.642 165.522 184.282  0.00  0.00    +0.032 HD
ATOM     59  H   UNL     1     152.285 163.030 184.500  0.00  0.00    +0.060 HD
ENDROOT
BRANCH   1  60
ATOM     60  C   UNL     1     149.736 162.752 182.866  0.00  0.00    -0.057 C 
ATOM     61  H   UNL     1     150.051 162.480 181.853  0.00  0.00    +0.024 HD
ATOM     62  H   UNL     1     148.676 163.015 182.832  0.00  0.00    +0.024 HD
ATOM     63  H   UNL     1     149.842 161.852 183.482  0.00  0.00    +0.024 HD
ENDBRANCH   1  60
BRANCH  26  64
ATOM     64  C   UNL     1     156.607 161.892 187.126  0.00  0.00    -0.056 C 
ATOM     65  H   UNL     1     157.603 162.188 187.468  0.00  0.00    +0.024 HD
ATOM     66  H   UNL     1     156.707 161.452 186.128  0.00  0.00    +0.024 HD
ATOM     67  H   UNL     1     156.239 161.111 187.800  0.00  0.00    +0.024 HD
ENDBRANCH  26  64
BRANCH  18  68
ATOM     68  C   UNL     1     151.664 156.923 186.451  0.00  0.00    -0.043 C 
ATOM     69  H   UNL     1     152.472 157.399 187.022  0.00  0.00    +0.027 HD
ATOM     70  H   UNL     1     151.212 156.178 187.116  0.00  0.00    +0.027 HD
ATOM     71  H   UNL     1     152.109 156.390 185.602  0.00  0.00    +0.027 HD
ENDBRANCH  18  68
BRANCH   7  72
ATOM     72  C   UNL     1     146.990 161.896 185.024  0.00  0.00    -0.057 C 
ATOM     73  H   UNL     1     148.077 161.825 185.150  0.00  0.00    +0.023 HD
ATOM     74  H   UNL     1     146.789 162.795 184.427  0.00  0.00    +0.023 HD
ATOM     75  H   UNL     1     146.655 161.030 184.449  0.00  0.00    +0.023 HD
ENDBRANCH   7  72
BRANCH  25  76
ATOM     76  C   UNL     1     153.624 164.142 188.476  0.00  0.00    +0.020 C 
ATOM     77  H   UNL     1     153.491 164.680 187.532  0.00  0.00    +0.036 HD
BRANCH  76  78
ATOM     78  C   UNL     1     152.219 163.664 188.905  0.00  0.00    -0.057 C 
ATOM     79  H   UNL     1     151.438 164.085 188.267  0.00  0.00    +0.023 HD
ATOM     80  H   UNL     1     152.146 162.570 188.855  0.00  0.00    +0.023 HD
ATOM     81  H   UNL     1     151.973 163.963 189.926  0.00  0.00    +0.023 HD
ENDBRANCH  76  78
BRANCH  76  82
ATOM     82  C   UNL     1     154.165 165.114 189.577  0.00  0.00    +0.067 C 
ATOM     83  H   UNL     1     153.608 164.892 190.497  0.00  0.00    +0.060 HD
BRANCH  82  84
ATOM     84  C   UNL     1     153.944 166.625 189.234  0.00  0.00    -0.017 C 
ATOM     85  H   UNL     1     154.785 167.205 189.632  0.00  0.00    +0.032 HD
BRANCH  84  86
ATOM     86  C   UNL     1     153.963 166.821 187.709  0.00  0.00    -0.060 C 
ATOM     87  H   UNL     1     152.987 166.586 187.274  0.00  0.00    +0.023 HD
ATOM     88  H   UNL     1     154.689 166.153 187.234  0.00  0.00    +0.023 HD
ATOM     89  H   UNL     1     154.223 167.850 187.436  0.00  0.00    +0.023 HD
ENDBRANCH  84  86
BRANCH  84  90
ATOM     90  C   UNL     1     152.635 167.192 189.834  0.00  0.00    -0.041 C 
ATOM     91  H   UNL     1     151.775 166.615 189.480  0.00  0.00    +0.027 HD
ATOM     92  H   UNL     1     152.474 168.219 189.483  0.00  0.00    +0.027 HD
BRANCH  90  93
ATOM     93  C   UNL     1     152.613 167.169 191.360  0.00  0.00    +0.007 C 
ATOM     94  H   UNL     1     153.530 166.724 191.759  0.00  0.00    +0.034 HD
ATOM     95  H   UNL     1     152.551 168.183 191.774  0.00  0.00    +0.034 HD
BRANCH  93  96
ATOM     96  C   UNL     1     151.406 166.409 191.873  0.00  0.00    +0.139 C 
ATOM     97  O   UNL     1     150.986 165.426 191.256  0.00  0.00    -0.297 OA
BRANCH  96  98
ATOM     98  C   UNL     1     150.767 166.881 193.176  0.00  0.00    +0.041 C 
ATOM     99  H   UNL     1     151.392 167.699 193.558  0.00  0.00    +0.040 HD
BRANCH  98 100
ATOM    100  C   UNL     1     150.846 165.777 194.239  0.00  0.00    -0.053 C 
ATOM    101  H   UNL     1     151.058 166.191 195.232  0.00  0.00    +0.024 HD
ATOM    102  H   UNL     1     151.652 165.074 194.000  0.00  0.00    +0.024 HD
ATOM    103  H   UNL     1     149.918 165.201 194.299  0.00  0.00    +0.024 HD
ENDBRANCH  98 100
BRANCH  98 104
ATOM    104  C   UNL     1     149.338 167.443 192.976  0.00  0.00    +0.071 C 
ATOM    105  H   UNL     1     149.062 167.984 193.892  0.00  0.00    +0.061 HD
BRANCH 104 106
ATOM    106  C   UNL     1     149.186 168.386 191.755  0.00  0.00    -0.006 C 
ATOM    107  H   UNL     1     150.095 168.375 191.140  0.00  0.00    +0.033 HD
ATOM    108  H   UNL     1     148.393 168.024 191.091  0.00  0.00    +0.033 HD
BRANCH 106 109
ATOM    109  C   UNL     1     148.818 169.782 192.170  0.00  0.00    -0.067 C 
ATOM    110  C   UNL     1     149.492 170.874 191.787  0.00  0.00    -0.005 C 
ATOM    111  H   UNL     1     147.953 169.859 192.821  0.00  0.00    +0.059 HD
ATOM    112  H   UNL     1     150.335 170.755 191.108  0.00  0.00    +0.078 HD
BRANCH 110 113
ATOM    113  N   UNL     1     149.244 172.180 192.176  0.00  0.00    -0.284 N 
ATOM    114  C   UNL     1     148.687 173.167 191.365  0.00  0.00    +0.206 C 
ATOM    115  O   UNL     1     148.246 173.070 190.227  0.00  0.00    -0.279 OA
ATOM    116  H   UNL     1     148.644 174.142 191.881  0.00  0.00    +0.126 HD
BRANCH 113 117
ATOM    117  C   UNL     1     149.482 172.493 193.580  0.00  0.00    +0.007 C 
ATOM    118  H   UNL     1     148.642 173.088 193.954  0.00  0.00    +0.043 HD
ATOM    119  H   UNL     1     149.567 171.566 194.153  0.00  0.00    +0.043 HD
ATOM    120  H   UNL     1     150.399 173.074 193.713  0.00  0.00    +0.043 HD
ENDBRANCH 113 117
ENDBRANCH 110 113
ENDBRANCH 106 109
ENDBRANCH 104 106
BRANCH 104 121
ATOM    121  O   UNL     1     148.438 166.328 192.829  0.00  0.00    -0.379 OA
BRANCH 121 122
ATOM    122  C   UNL     1     147.661 166.383 191.638  0.00  0.00    +0.037 C 
ATOM    123  H   UNL     1     146.691 165.906 191.806  0.00  0.00    +0.052 HD
ATOM    124  H   UNL     1     147.510 167.413 191.297  0.00  0.00    +0.052 HD
ATOM    125  H   UNL     1     148.190 165.827 190.861  0.00  0.00    +0.052 HD
ENDBRANCH 121 122
ENDBRANCH 104 121
ENDBRANCH  98 104
ENDBRANCH  96  98
ENDBRANCH  93  96
ENDBRANCH  90  93
ENDBRANCH  84  90
ENDBRANCH  82  84
BRANCH  82 126
ATOM    126  O   UNL     1     155.560 164.922 189.807  0.00  0.00    -0.379 OA
BRANCH 126 127
ATOM    127  C   UNL     1     156.202 166.062 190.367  0.00  0.00    +0.037 C 
ATOM    128  H   UNL     1     155.619 166.947 190.099  0.00  0.00    +0.052 HD
ATOM    129  H   UNL     1     156.247 165.989 191.456  0.00  0.00    +0.052 HD
ATOM    130  H   UNL     1     157.211 166.173 189.957  0.00  0.00    +0.052 HD
ENDBRANCH 126 127
ENDBRANCH  82 126
ENDBRANCH  76  82
ENDBRANCH  25  76
BRANCH  31 131
ATOM    131  O   UNL     1     152.511 162.710 182.452  0.00  0.00    -0.379 OA
BRANCH 131 132
ATOM    132  C   UNL     1     153.011 161.442 182.858  0.00  0.00    +0.037 C 
ATOM    133  H   UNL     1     152.404 160.626 182.457  0.00  0.00    +0.052 HD
ATOM    134  H   UNL     1     154.031 161.337 182.474  0.00  0.00    +0.052 HD
ATOM    135  H   UNL     1     153.047 161.378 183.949  0.00  0.00    +0.052 HD
ENDBRANCH 131 132
ENDBRANCH  31 131
BRANCH  29 136
ATOM    136  O   UNL     1     155.148 165.711 183.116  0.00  0.00    -0.376 OA
BRANCH 136 137
ATOM    137  C   UNL     1     155.475 166.645 184.138  0.00  0.00    +0.037 C 
ATOM    138  H   UNL     1     154.686 166.687 184.896  0.00  0.00    +0.052 HD
ATOM    139  H   UNL     1     155.574 167.633 183.680  0.00  0.00    +0.052 HD
ATOM    140  H   UNL     1     156.431 166.380 184.605  0.00  0.00    +0.052 HD
ENDBRANCH 136 137
ENDBRANCH  29 136
BRANCH  16 141
ATOM    141  O   UNL     1     148.928 155.328 186.585  0.00  0.00    -0.379 OA
BRANCH 141 142
ATOM    142  C   UNL     1     148.714 154.875 187.918  0.00  0.00    +0.037 C 
ATOM    143  H   UNL     1     147.646 154.798 188.138  0.00  0.00    +0.052 HD
ATOM    144  H   UNL     1     149.152 153.880 188.012  0.00  0.00    +0.052 HD
ATOM    145  H   UNL     1     149.202 155.534 188.641  0.00  0.00    +0.052 HD
ENDBRANCH 141 142
ENDBRANCH  16 141
BRANCH   6 146
ATOM    146  O   UNL     1     145.977 163.402 188.360  0.00  0.00    -0.379 OA
BRANCH 146 147
ATOM    147  C   UNL     1     145.624 164.760 188.595  0.00  0.00    +0.037 C 
ATOM    148  H   UNL     1     145.039 165.173 187.769  0.00  0.00    +0.052 HD
ATOM    149  H   UNL     1     145.019 164.803 189.504  0.00  0.00    +0.052 HD
ATOM    150  H   UNL     1     146.524 165.364 188.752  0.00  0.00    +0.052 HD
ENDBRANCH 146 147
ENDBRANCH   6 146
BRANCH   4 151
ATOM    151  O   UNL     1     148.658 165.492 186.994  0.00  0.00    -0.376 OA
BRANCH 151 152
ATOM    152  C   UNL     1     149.134 166.425 187.960  0.00  0.00    +0.037 C 
ATOM    153  H   UNL     1     148.558 166.348 188.888  0.00  0.00    +0.052 HD
ATOM    154  H   UNL     1     150.178 166.183 188.182  0.00  0.00    +0.052 HD
ATOM    155  H   UNL     1     149.095 167.445 187.571  0.00  0.00    +0.052 HD
ENDBRANCH 151 152
ENDBRANCH   4 151
TORSDOF 33
ENDMDL
MODEL 10
REMARK VINA RESULT:      -5.0      7.361     13.516
REMARK  Name = Reidispongiolide A_conf2
REMARK  33 active torsions:
REMARK  status: ('A' for Active; 'I' for Inactive)
REMARK    1  A    between atoms: C_1  and  C_2
REMARK    2  A    between atoms: C_5  and  O_67
REMARK    3  A    between atoms: C_7  and  O_65
REMARK    4  A    between atoms: C_8  and  C_64
REMARK    5  A    between atoms: C_17  and  O_62
REMARK    6  A    between atoms: C_19  and  C_61
REMARK    7  A    between atoms: C_26  and  C_38
REMARK    8  A    between atoms: C_27  and  C_37
REMARK    9  A    between atoms: C_30  and  O_35
REMARK   10  A    between atoms: C_32  and  O_33
REMARK   11  A    between atoms: O_33  and  C_34
REMARK   12  A    between atoms: O_35  and  C_36
REMARK   13  A    between atoms: C_38  and  C_39
REMARK   14  A    between atoms: C_38  and  C_40
REMARK   15  A    between atoms: C_40  and  C_41
REMARK   16  A    between atoms: C_40  and  O_59
REMARK   17  A    between atoms: C_41  and  C_42
REMARK   18  A    between atoms: C_41  and  C_43
REMARK   19  A    between atoms: C_43  and  C_44
REMARK   20  A    between atoms: C_44  and  C_45
REMARK   21  A    between atoms: C_45  and  C_47
REMARK   22  A    between atoms: C_47  and  C_48
REMARK   23  A    between atoms: C_47  and  C_49
REMARK   24  A    between atoms: C_49  and  C_50
REMARK   25  A    between atoms: C_49  and  O_57
REMARK   26  A    between atoms: C_50  and  C_51
REMARK   27  A    between atoms: C_52  and  N_53
REMARK   28  A    between atoms: N_53  and  C_54
REMARK   29  A    between atoms: O_57  and  C_58
REMARK   30  A    between atoms: O_59  and  C_60
REMARK   31  A    between atoms: O_62  and  C_63
REMARK   32  A    between atoms: O_65  and  C_66
REMARK   33  A    between atoms: O_67  and  C_68
REMARK                            x       y       z     vdW  Elec       q    Type
REMARK                         _______ _______ _______ _____ _____    ______ ____
ROOT
ATOM      1  C   UNL     1     145.935 166.133 184.913  0.00  0.00    +0.001 C 
ATOM      2  C   UNL     1     145.622 164.963 185.831  0.00  0.00    -0.080 C 
ATOM      3  C   UNL     1     146.463 164.466 186.759  0.00  0.00    -0.059 C 
ATOM      4  C   UNL     1     146.224 163.304 187.692  0.00  0.00    +0.079 C 
ATOM      5  C   UNL     1     147.449 162.361 187.764  0.00  0.00    +0.004 C 
ATOM      6  C   UNL     1     147.544 161.285 186.664  0.00  0.00    +0.067 C 
ATOM      7  C   UNL     1     148.737 161.386 185.668  0.00  0.00    +0.020 C 
ATOM      8  C   UNL     1     150.203 161.249 186.177  0.00  0.00    +0.112 C 
ATOM      9  C   UNL     1     150.835 162.495 186.811  0.00  0.00    +0.006 C 
ATOM     10  C   UNL     1     152.238 162.203 187.259  0.00  0.00    -0.057 C 
ATOM     11  C   UNL     1     152.575 160.928 187.533  0.00  0.00    +0.022 C 
ATOM     12  C   UNL     1     151.596 159.819 187.506  0.00  0.00    +0.332 C 
ATOM     13  O   UNL     1     151.891 158.721 187.954  0.00  0.00    -0.246 OA
ATOM     14  O   UNL     1     150.357 160.108 187.032  0.00  0.00    -0.458 OA
ATOM     15  C   UNL     1     153.189 163.348 187.547  0.00  0.00    -0.004 C 
ATOM     16  C   UNL     1     153.670 164.226 186.365  0.00  0.00    +0.066 C 
ATOM     17  C   UNL     1     152.698 165.360 185.937  0.00  0.00    -0.005 C 
ATOM     18  C   UNL     1     152.039 166.154 187.058  0.00  0.00    -0.070 C 
ATOM     19  C   UNL     1     150.706 166.084 187.235  0.00  0.00    -0.062 C 
ATOM     20  C   UNL     1     149.890 166.696 188.256  0.00  0.00    -0.055 C 
ATOM     21  C   UNL     1     150.118 166.610 189.580  0.00  0.00    +0.023 C 
ATOM     22  C   UNL     1     149.169 167.110 190.602  0.00  0.00    +0.332 C 
ATOM     23  O   UNL     1     149.433 167.140 191.792  0.00  0.00    -0.246 OA
ATOM     24  O   UNL     1     147.990 167.436 190.029  0.00  0.00    -0.457 OA
ATOM     25  C   UNL     1     146.865 167.808 190.878  0.00  0.00    +0.114 C 
ATOM     26  C   UNL     1     146.416 169.216 190.385  0.00  0.00    +0.012 C 
ATOM     27  C   UNL     1     146.207 169.306 188.883  0.00  0.00    -0.079 C 
ATOM     28  C   UNL     1     145.014 169.190 188.279  0.00  0.00    -0.059 C 
ATOM     29  C   UNL     1     144.770 169.382 186.806  0.00  0.00    +0.079 C 
ATOM     30  C   UNL     1     144.703 168.049 186.049  0.00  0.00    +0.004 C 
ATOM     31  C   UNL     1     146.089 167.484 185.678  0.00  0.00    +0.067 C 
ATOM     32  H   UNL     1     145.081 166.233 184.227  0.00  0.00    +0.037 HD
ATOM     33  H   UNL     1     144.645 164.503 185.695  0.00  0.00    +0.057 HD
ATOM     34  H   UNL     1     147.418 164.965 186.897  0.00  0.00    +0.059 HD
ATOM     35  H   UNL     1     146.099 163.760 188.680  0.00  0.00    +0.064 HD
ATOM     36  H   UNL     1     148.346 162.977 187.806  0.00  0.00    +0.032 HD
ATOM     37  H   UNL     1     147.397 161.859 188.743  0.00  0.00    +0.032 HD
ATOM     38  H   UNL     1     146.618 161.310 186.073  0.00  0.00    +0.060 HD
ATOM     39  H   UNL     1     148.617 160.504 185.019  0.00  0.00    +0.036 HD
ATOM     40  H   UNL     1     150.794 161.024 185.272  0.00  0.00    +0.074 HD
ATOM     41  H   UNL     1     150.294 162.841 187.692  0.00  0.00    +0.035 HD
ATOM     42  H   UNL     1     150.841 163.291 186.066  0.00  0.00    +0.035 HD
ATOM     43  H   UNL     1     153.551 160.653 187.914  0.00  0.00    +0.069 HD
ATOM     44  H   UNL     1     154.088 162.929 188.023  0.00  0.00    +0.034 HD
ATOM     45  H   UNL     1     152.749 163.968 188.338  0.00  0.00    +0.034 HD
ATOM     46  H   UNL     1     153.843 163.571 185.499  0.00  0.00    +0.060 HD
ATOM     47  H   UNL     1     151.927 164.925 185.288  0.00  0.00    +0.034 HD
ATOM     48  H   UNL     1     153.219 166.084 185.294  0.00  0.00    +0.034 HD
ATOM     49  H   UNL     1     150.117 165.502 186.526  0.00  0.00    +0.062 HD
ATOM     50  H   UNL     1     148.975 167.158 187.884  0.00  0.00    +0.062 HD
ATOM     51  H   UNL     1     151.000 166.126 189.982  0.00  0.00    +0.069 HD
ATOM     52  H   UNL     1     147.191 167.887 191.924  0.00  0.00    +0.074 HD
ATOM     53  H   UNL     1     145.489 169.521 190.875  0.00  0.00    +0.038 HD
ATOM     54  H   UNL     1     147.091 169.508 188.285  0.00  0.00    +0.057 HD
ATOM     55  H   UNL     1     144.128 168.983 188.881  0.00  0.00    +0.059 HD
ATOM     56  H   UNL     1     145.535 170.030 186.359  0.00  0.00    +0.064 HD
ATOM     57  H   UNL     1     144.127 168.206 185.127  0.00  0.00    +0.032 HD
ATOM     58  H   UNL     1     144.142 167.316 186.639  0.00  0.00    +0.032 HD
ATOM     59  H   UNL     1     146.669 167.333 186.596  0.00  0.00    +0.060 HD
ENDROOT
BRANCH   1  60
ATOM     60  C   UNL     1     147.129 165.798 184.012  0.00  0.00    -0.057 C 
ATOM     61  H   UNL     1     147.556 166.709 183.577  0.00  0.00    +0.024 HD
ATOM     62  H   UNL     1     146.845 165.134 183.193  0.00  0.00    +0.024 HD
ATOM     63  H   UNL     1     147.930 165.313 184.580  0.00  0.00    +0.024 HD
ENDBRANCH   1  60
BRANCH  26  64
ATOM     64  C   UNL     1     147.458 170.272 190.793  0.00  0.00    -0.056 C 
ATOM     65  H   UNL     1     147.541 170.361 191.879  0.00  0.00    +0.024 HD
ATOM     66  H   UNL     1     147.188 171.254 190.390  0.00  0.00    +0.024 HD
ATOM     67  H   UNL     1     148.447 170.011 190.400  0.00  0.00    +0.024 HD
ENDBRANCH  26  64
BRANCH  18  68
ATOM     68  C   UNL     1     152.972 167.004 187.877  0.00  0.00    -0.043 C 
ATOM     69  H   UNL     1     153.365 166.428 188.726  0.00  0.00    +0.027 HD
ATOM     70  H   UNL     1     153.844 167.353 187.311  0.00  0.00    +0.027 HD
ATOM     71  H   UNL     1     152.452 167.886 188.269  0.00  0.00    +0.027 HD
ENDBRANCH  18  68
BRANCH   7  72
ATOM     72  C   UNL     1     148.581 162.591 184.739  0.00  0.00    -0.057 C 
ATOM     73  H   UNL     1     148.879 162.330 183.716  0.00  0.00    +0.023 HD
ATOM     74  H   UNL     1     149.222 163.421 185.064  0.00  0.00    +0.023 HD
ATOM     75  H   UNL     1     147.550 162.952 184.712  0.00  0.00    +0.023 HD
ENDBRANCH   7  72
BRANCH  25  76
ATOM     76  C   UNL     1     145.801 166.661 190.795  0.00  0.00    +0.020 C 
ATOM     77  H   UNL     1     145.055 166.964 190.053  0.00  0.00    +0.036 HD
BRANCH  76  78
ATOM     78  C   UNL     1     146.464 165.378 190.246  0.00  0.00    -0.057 C 
ATOM     79  H   UNL     1     145.761 164.780 189.662  0.00  0.00    +0.023 HD
ATOM     80  H   UNL     1     147.317 165.625 189.601  0.00  0.00    +0.023 HD
ATOM     81  H   UNL     1     146.832 164.727 191.041  0.00  0.00    +0.023 HD
ENDBRANCH  76  78
BRANCH  76  82
ATOM     82  C   UNL     1     145.100 166.305 192.148  0.00  0.00    +0.067 C 
ATOM     83  H   UNL     1     145.251 165.229 192.310  0.00  0.00    +0.060 HD
BRANCH  82  84
ATOM     84  C   UNL     1     143.558 166.577 192.139  0.00  0.00    -0.017 C 
ATOM     85  H   UNL     1     143.035 165.639 191.918  0.00  0.00    +0.032 HD
BRANCH  84  86
ATOM     86  C   UNL     1     143.098 167.013 193.540  0.00  0.00    -0.060 C 
ATOM     87  H   UNL     1     142.662 168.015 193.513  0.00  0.00    +0.023 HD
ATOM     88  H   UNL     1     143.941 167.054 194.237  0.00  0.00    +0.023 HD
ATOM     89  H   UNL     1     142.353 166.324 193.954  0.00  0.00    +0.023 HD
ENDBRANCH  84  86
BRANCH  84  90
ATOM     90  C   UNL     1     143.139 167.628 191.083  0.00  0.00    -0.041 C 
ATOM     91  H   UNL     1     142.274 167.272 190.516  0.00  0.00    +0.027 HD
ATOM     92  H   UNL     1     143.943 167.767 190.350  0.00  0.00    +0.027 HD
BRANCH  90  93
ATOM     93  C   UNL     1     142.770 168.978 191.692  0.00  0.00    +0.007 C 
ATOM     94  H   UNL     1     142.372 168.856 192.704  0.00  0.00    +0.034 HD
ATOM     95  H   UNL     1     143.647 169.630 191.778  0.00  0.00    +0.034 HD
BRANCH  93  96
ATOM     96  C   UNL     1     141.762 169.706 190.826  0.00  0.00    +0.139 C 
ATOM     97  O   UNL     1     140.713 169.147 190.494  0.00  0.00    -0.297 OA
BRANCH  96  98
ATOM     98  C   UNL     1     142.078 171.142 190.417  0.00  0.00    +0.041 C 
ATOM     99  H   UNL     1     142.130 171.155 189.320  0.00  0.00    +0.040 HD
BRANCH  98 100
ATOM    100  C   UNL     1     143.483 171.535 190.894  0.00  0.00    -0.053 C 
ATOM    101  H   UNL     1     144.199 171.551 190.065  0.00  0.00    +0.024 HD
ATOM    102  H   UNL     1     143.853 170.811 191.630  0.00  0.00    +0.024 HD
ATOM    103  H   UNL     1     143.491 172.519 191.373  0.00  0.00    +0.024 HD
ENDBRANCH  98 100
BRANCH  98 104
ATOM    104  C   UNL     1     140.979 172.146 190.843  0.00  0.00    +0.071 C 
ATOM    105  H   UNL     1     140.071 171.907 190.271  0.00  0.00    +0.061 HD
BRANCH 104 106
ATOM    106  C   UNL     1     140.653 172.132 192.358  0.00  0.00    -0.006 C 
ATOM    107  H   UNL     1     139.704 171.615 192.547  0.00  0.00    +0.033 HD
ATOM    108  H   UNL     1     141.405 171.550 192.904  0.00  0.00    +0.033 HD
BRANCH 106 109
ATOM    109  C   UNL     1     140.652 173.517 192.942  0.00  0.00    -0.067 C 
ATOM    110  C   UNL     1     140.632 173.770 194.257  0.00  0.00    -0.005 C 
ATOM    111  H   UNL     1     140.663 174.325 192.218  0.00  0.00    +0.059 HD
ATOM    112  H   UNL     1     140.654 172.929 194.950  0.00  0.00    +0.078 HD
BRANCH 110 113
ATOM    113  N   UNL     1     140.573 175.015 194.861  0.00  0.00    -0.284 N 
ATOM    114  C   UNL     1     141.654 175.876 195.033  0.00  0.00    +0.206 C 
ATOM    115  O   UNL     1     142.806 175.756 194.633  0.00  0.00    -0.279 OA
ATOM    116  H   UNL     1     141.368 176.783 195.595  0.00  0.00    +0.126 HD
BRANCH 113 117
ATOM    117  C   UNL     1     139.245 175.491 195.231  0.00  0.00    +0.007 C 
ATOM    118  H   UNL     1     138.599 174.624 195.407  0.00  0.00    +0.043 HD
ATOM    119  H   UNL     1     139.313 176.098 196.138  0.00  0.00    +0.043 HD
ATOM    120  H   UNL     1     138.798 176.095 194.436  0.00  0.00    +0.043 HD
ENDBRANCH 113 117
ENDBRANCH 110 113
ENDBRANCH 106 109
ENDBRANCH 104 106
BRANCH 104 121
ATOM    121  O   UNL     1     141.410 173.466 190.462  0.00  0.00    -0.379 OA
BRANCH 121 122
ATOM    122  C   UNL     1     140.963 173.854 189.167  0.00  0.00    +0.037 C 
ATOM    123  H   UNL     1     141.686 174.540 188.716  0.00  0.00    +0.052 HD
ATOM    124  H   UNL     1     140.816 172.990 188.510  0.00  0.00    +0.052 HD
ATOM    125  H   UNL     1     140.012 174.379 189.280  0.00  0.00    +0.052 HD
ENDBRANCH 121 122
ENDBRANCH 104 121
ENDBRANCH  98 104
ENDBRANCH  96  98
ENDBRANCH  93  96
ENDBRANCH  90  93
ENDBRANCH  84  90
ENDBRANCH  82  84
BRANCH  82 126
ATOM    126  O   UNL     1     145.661 167.034 193.238  0.00  0.00    -0.379 OA
BRANCH 126 127
ATOM    127  C   UNL     1     146.576 166.272 194.016  0.00  0.00    +0.037 C 
ATOM    128  H   UNL     1     146.804 166.835 194.924  0.00  0.00    +0.052 HD
ATOM    129  H   UNL     1     146.141 165.311 194.300  0.00  0.00    +0.052 HD
ATOM    130  H   UNL     1     147.507 166.112 193.464  0.00  0.00    +0.052 HD
ENDBRANCH 126 127
ENDBRANCH  82 126
ENDBRANCH  76  82
ENDBRANCH  25  76
BRANCH  31 131
ATOM    131  O   UNL     1     146.738 168.452 184.837  0.00  0.00    -0.379 OA
BRANCH 131 132
ATOM    132  C   UNL     1     147.927 168.990 185.405  0.00  0.00    +0.037 C 
ATOM    133  H   UNL     1     147.867 169.026 186.496  0.00  0.00    +0.052 HD
ATOM    134  H   UNL     1     148.764 168.342 185.125  0.00  0.00    +0.052 HD
ATOM    135  H   UNL     1     148.119 169.991 185.010  0.00  0.00    +0.052 HD
ENDBRANCH 131 132
ENDBRANCH  31 131
BRANCH  29 136
ATOM    136  O   UNL     1     143.484 170.006 186.678  0.00  0.00    -0.376 OA
BRANCH 136 137
ATOM    137  C   UNL     1     143.022 170.027 185.333  0.00  0.00    +0.037 C 
ATOM    138  H   UNL     1     143.330 170.949 184.829  0.00  0.00    +0.052 HD
ATOM    139  H   UNL     1     141.929 169.981 185.344  0.00  0.00    +0.052 HD
ATOM    140  H   UNL     1     143.401 169.155 184.786  0.00  0.00    +0.052 HD
ENDBRANCH 136 137
ENDBRANCH  29 136
BRANCH  16 141
ATOM    141  O   UNL     1     154.939 164.784 186.761  0.00  0.00    -0.379 OA
BRANCH 141 142
ATOM    142  C   UNL     1     155.495 164.191 187.930  0.00  0.00    +0.037 C 
ATOM    143  H   UNL     1     156.517 164.542 188.098  0.00  0.00    +0.052 HD
ATOM    144  H   UNL     1     154.888 164.494 188.785  0.00  0.00    +0.052 HD
ATOM    145  H   UNL     1     155.476 163.100 187.865  0.00  0.00    +0.052 HD
ENDBRANCH 141 142
ENDBRANCH  16 141
BRANCH   6 146
ATOM    146  O   UNL     1     147.588 160.025 187.358  0.00  0.00    -0.379 OA
BRANCH 146 147
ATOM    147  C   UNL     1     147.291 160.119 188.746  0.00  0.00    +0.037 C 
ATOM    148  H   UNL     1     148.109 160.585 189.302  0.00  0.00    +0.052 HD
ATOM    149  H   UNL     1     146.398 160.738 188.861  0.00  0.00    +0.052 HD
ATOM    150  H   UNL     1     147.077 159.127 189.157  0.00  0.00    +0.052 HD
ENDBRANCH 146 147
ENDBRANCH   6 146
BRANCH   4 151
ATOM    151  O   UNL     1     145.012 162.631 187.358  0.00  0.00    -0.376 OA
BRANCH 151 152
ATOM    152  C   UNL     1     144.219 162.309 188.496  0.00  0.00    +0.037 C 
ATOM    153  H   UNL     1     144.296 161.243 188.732  0.00  0.00    +0.052 HD
ATOM    154  H   UNL     1     144.600 162.878 189.349  0.00  0.00    +0.052 HD
ATOM    155  H   UNL     1     143.175 162.589 188.338  0.00  0.00    +0.052 HD
ENDBRANCH 151 152
ENDBRANCH   4 151
TORSDOF 33
ENDMDL
