MODEL 1
REMARK VINA RESULT:      -5.2      0.000      0.000
REMARK  Name = Sphinxolide B_conf3
REMARK  33 active torsions:
REMARK  status: ('A' for Active; 'I' for Inactive)
REMARK    1  A    between atoms: C_1  and  C_2
REMARK    2  A    between atoms: C_5  and  O_67
REMARK    3  A    between atoms: C_7  and  O_65
REMARK    4  A    between atoms: C_8  and  C_64
REMARK    5  A    between atoms: C_10  and  O_63
REMARK    6  A    between atoms: C_17  and  O_61
REMARK    7  A    between atoms: C_19  and  C_60
REMARK    8  A    between atoms: C_26  and  C_37
REMARK    9  A    between atoms: C_27  and  C_36
REMARK   10  A    between atoms: C_30  and  O_34
REMARK   11  A    between atoms: C_32  and  O_33
REMARK   12  A    between atoms: O_34  and  C_35
REMARK   13  A    between atoms: C_37  and  C_38
REMARK   14  A    between atoms: C_37  and  C_39
REMARK   15  A    between atoms: C_39  and  C_40
REMARK   16  A    between atoms: C_39  and  O_58
REMARK   17  A    between atoms: C_40  and  C_41
REMARK   18  A    between atoms: C_40  and  C_42
REMARK   19  A    between atoms: C_42  and  C_43
REMARK   20  A    between atoms: C_43  and  C_44
REMARK   21  A    between atoms: C_44  and  C_46
REMARK   22  A    between atoms: C_46  and  C_47
REMARK   23  A    between atoms: C_46  and  C_48
REMARK   24  A    between atoms: C_48  and  C_49
REMARK   25  A    between atoms: C_48  and  O_56
REMARK   26  A    between atoms: C_49  and  C_50
REMARK   27  A    between atoms: C_51  and  N_52
REMARK   28  A    between atoms: N_52  and  C_53
REMARK   29  A    between atoms: O_56  and  C_57
REMARK   30  A    between atoms: O_58  and  C_59
REMARK   31  A    between atoms: O_61  and  C_62
REMARK   32  A    between atoms: O_65  and  C_66
REMARK   33  A    between atoms: O_67  and  C_68
REMARK                            x       y       z     vdW  Elec       q    Type
REMARK                         _______ _______ _______ _____ _____    ______ ____
ROOT
ATOM      1  C   UNL     1     147.953 168.404 188.016  0.00  0.00    +0.000 C 
ATOM      2  C   UNL     1     148.076 167.108 187.247  0.00  0.00    -0.080 C 
ATOM      3  C   UNL     1     148.720 167.005 186.073  0.00  0.00    -0.059 C 
ATOM      4  C   UNL     1     148.945 165.722 185.312  0.00  0.00    +0.079 C 
ATOM      5  C   UNL     1     150.446 165.469 185.053  0.00  0.00    +0.004 C 
ATOM      6  C   UNL     1     151.231 164.711 186.150  0.00  0.00    +0.067 C 
ATOM      7  C   UNL     1     151.279 165.464 187.517  0.00  0.00    +0.022 C 
ATOM      8  C   UNL     1     152.753 165.669 188.001  0.00  0.00    +0.138 C 
ATOM      9  C   UNL     1     152.979 166.761 189.069  0.00  0.00    +0.114 C 
ATOM     10  C   UNL     1     152.586 166.260 190.434  0.00  0.00    -0.029 C 
ATOM     11  C   UNL     1     152.815 164.957 190.696  0.00  0.00    +0.024 C 
ATOM     12  C   UNL     1     153.371 164.024 189.693  0.00  0.00    +0.332 C 
ATOM     13  O   UNL     1     153.797 162.926 190.026  0.00  0.00    -0.246 OA
ATOM     14  O   UNL     1     153.379 164.432 188.398  0.00  0.00    -0.455 OA
ATOM     15  C   UNL     1     152.032 167.279 191.415  0.00  0.00    -0.002 C 
ATOM     16  C   UNL     1     151.551 166.858 192.826  0.00  0.00    +0.066 C 
ATOM     17  C   UNL     1     150.247 166.004 192.801  0.00  0.00    -0.005 C 
ATOM     18  C   UNL     1     149.494 165.968 194.131  0.00  0.00    -0.070 C 
ATOM     19  C   UNL     1     148.156 166.031 194.299  0.00  0.00    -0.062 C 
ATOM     20  C   UNL     1     147.096 166.059 193.309  0.00  0.00    -0.055 C 
ATOM     21  C   UNL     1     145.814 166.005 193.708  0.00  0.00    +0.023 C 
ATOM     22  C   UNL     1     144.613 165.811 192.874  0.00  0.00    +0.332 C 
ATOM     23  O   UNL     1     143.563 165.443 193.383  0.00  0.00    -0.246 OA
ATOM     24  O   UNL     1     144.832 166.011 191.552  0.00  0.00    -0.457 OA
ATOM     25  C   UNL     1     143.817 165.462 190.659  0.00  0.00    +0.114 C 
ATOM     26  C   UNL     1     142.835 166.567 190.158  0.00  0.00    +0.012 C 
ATOM     27  C   UNL     1     143.525 167.740 189.496  0.00  0.00    -0.079 C 
ATOM     28  C   UNL     1     143.434 168.045 188.191  0.00  0.00    -0.059 C 
ATOM     29  C   UNL     1     144.121 169.209 187.526  0.00  0.00    +0.079 C 
ATOM     30  C   UNL     1     145.578 168.887 187.149  0.00  0.00    +0.004 C 
ATOM     31  C   UNL     1     146.492 168.755 188.370  0.00  0.00    +0.064 C 
ATOM     32  H   UNL     1     148.382 169.230 187.429  0.00  0.00    +0.037 HD
ATOM     33  H   UNL     1     147.643 166.222 187.706  0.00  0.00    +0.057 HD
ATOM     34  H   UNL     1     149.139 167.900 185.613  0.00  0.00    +0.059 HD
ATOM     35  H   UNL     1     148.497 164.856 185.814  0.00  0.00    +0.064 HD
ATOM     36  H   UNL     1     150.956 166.417 184.829  0.00  0.00    +0.032 HD
ATOM     37  H   UNL     1     150.525 164.874 184.133  0.00  0.00    +0.032 HD
ATOM     38  H   UNL     1     152.251 164.604 185.753  0.00  0.00    +0.060 HD
ATOM     39  H   UNL     1     150.911 166.479 187.338  0.00  0.00    +0.036 HD
ATOM     40  H   UNL     1     153.317 166.013 187.122  0.00  0.00    +0.077 HD
ATOM     41  H   UNL     1     154.050 167.004 189.121  0.00  0.00    +0.068 HD
ATOM     42  H   UNL     1     152.636 164.504 191.662  0.00  0.00    +0.069 HD
ATOM     43  H   UNL     1     152.810 168.045 191.543  0.00  0.00    +0.034 HD
ATOM     44  H   UNL     1     151.186 167.789 190.941  0.00  0.00    +0.034 HD
ATOM     45  H   UNL     1     151.326 167.781 193.381  0.00  0.00    +0.060 HD
ATOM     46  H   UNL     1     149.587 166.396 192.019  0.00  0.00    +0.034 HD
ATOM     47  H   UNL     1     150.489 164.967 192.540  0.00  0.00    +0.034 HD
ATOM     48  H   UNL     1     147.795 165.997 195.329  0.00  0.00    +0.062 HD
ATOM     49  H   UNL     1     147.354 166.030 192.257  0.00  0.00    +0.062 HD
ATOM     50  H   UNL     1     145.569 165.987 194.766  0.00  0.00    +0.069 HD
ATOM     51  H   UNL     1     143.220 164.738 191.222  0.00  0.00    +0.074 HD
ATOM     52  H   UNL     1     142.142 166.106 189.444  0.00  0.00    +0.038 HD
ATOM     53  H   UNL     1     144.129 168.369 190.151  0.00  0.00    +0.057 HD
ATOM     54  H   UNL     1     142.820 167.431 187.538  0.00  0.00    +0.059 HD
ATOM     55  H   UNL     1     144.059 170.087 188.178  0.00  0.00    +0.064 HD
ATOM     56  H   UNL     1     145.964 169.684 186.501  0.00  0.00    +0.032 HD
ATOM     57  H   UNL     1     145.599 167.975 186.542  0.00  0.00    +0.032 HD
ATOM     58  H   UNL     1     146.120 167.976 189.042  0.00  0.00    +0.060 HD
ENDROOT
BRANCH   1  59
ATOM     59  C   UNL     1     148.787 168.295 189.300  0.00  0.00    -0.057 C 
ATOM     60  H   UNL     1     149.861 168.286 189.082  0.00  0.00    +0.024 HD
ATOM     61  H   UNL     1     148.588 169.138 189.960  0.00  0.00    +0.024 HD
ATOM     62  H   UNL     1     148.549 167.381 189.854  0.00  0.00    +0.024 HD
ENDBRANCH   1  59
BRANCH  26  63
ATOM     63  C   UNL     1     141.962 167.116 191.295  0.00  0.00    -0.056 C 
ATOM     64  H   UNL     1     140.898 167.056 191.035  0.00  0.00    +0.024 HD
ATOM     65  H   UNL     1     142.109 166.532 192.209  0.00  0.00    +0.024 HD
ATOM     66  H   UNL     1     142.188 168.164 191.518  0.00  0.00    +0.024 HD
ENDBRANCH  26  63
BRANCH  18  67
ATOM     67  C   UNL     1     150.347 165.780 195.369  0.00  0.00    -0.043 C 
ATOM     68  H   UNL     1     151.394 166.017 195.147  0.00  0.00    +0.027 HD
ATOM     69  H   UNL     1     149.995 166.423 196.182  0.00  0.00    +0.027 HD
ATOM     70  H   UNL     1     150.330 164.749 195.737  0.00  0.00    +0.027 HD
ENDBRANCH  18  67
BRANCH   7  71
ATOM     71  C   UNL     1     150.355 164.815 188.557  0.00  0.00    -0.057 C 
ATOM     72  H   UNL     1     150.835 164.753 189.538  0.00  0.00    +0.023 HD
ATOM     73  H   UNL     1     149.429 165.383 188.696  0.00  0.00    +0.023 HD
ATOM     74  H   UNL     1     150.094 163.791 188.279  0.00  0.00    +0.023 HD
ENDBRANCH   7  71
BRANCH  31  75
ATOM     75  O   UNL     1     146.465 169.988 189.099  0.00  0.00    -0.391 OA
ATOM     76  H   UNL     1     145.542 170.297 189.130  0.00  0.00    +0.210 HD
ENDBRANCH  31  75
BRANCH  25  77
ATOM     77  C   UNL     1     144.555 164.678 189.528  0.00  0.00    +0.020 C 
ATOM     78  H   UNL     1     144.592 165.320 188.642  0.00  0.00    +0.036 HD
BRANCH  77  79
ATOM     79  C   UNL     1     146.043 164.462 189.886  0.00  0.00    -0.057 C 
ATOM     80  H   UNL     1     146.330 163.410 189.788  0.00  0.00    +0.023 HD
ATOM     81  H   UNL     1     146.249 164.779 190.913  0.00  0.00    +0.023 HD
ATOM     82  H   UNL     1     146.695 165.061 189.242  0.00  0.00    +0.023 HD
ENDBRANCH  77  79
BRANCH  77  83
ATOM     83  C   UNL     1     143.930 163.287 189.153  0.00  0.00    +0.067 C 
ATOM     84  H   UNL     1     144.643 162.493 189.414  0.00  0.00    +0.060 HD
BRANCH  83  85
ATOM     85  C   UNL     1     143.646 163.111 187.633  0.00  0.00    -0.017 C 
ATOM     86  H   UNL     1     143.060 162.197 187.504  0.00  0.00    +0.032 HD
BRANCH  85  87
ATOM     87  C   UNL     1     142.807 164.262 187.069  0.00  0.00    -0.060 C 
ATOM     88  H   UNL     1     142.480 164.937 187.866  0.00  0.00    +0.023 HD
ATOM     89  H   UNL     1     143.383 164.869 186.364  0.00  0.00    +0.023 HD
ATOM     90  H   UNL     1     141.923 163.895 186.538  0.00  0.00    +0.023 HD
ENDBRANCH  85  87
BRANCH  85  91
ATOM     91  C   UNL     1     144.920 162.870 186.775  0.00  0.00    -0.041 C 
ATOM     92  H   UNL     1     145.694 163.588 187.073  0.00  0.00    +0.027 HD
ATOM     93  H   UNL     1     144.672 163.129 185.736  0.00  0.00    +0.027 HD
BRANCH  91  94
ATOM     94  C   UNL     1     145.504 161.455 186.760  0.00  0.00    +0.007 C 
ATOM     95  H   UNL     1     145.887 161.241 185.755  0.00  0.00    +0.034 HD
ATOM     96  H   UNL     1     144.723 160.719 186.962  0.00  0.00    +0.034 HD
BRANCH  94  97
ATOM     97  C   UNL     1     146.666 161.225 187.711  0.00  0.00    +0.139 C 
ATOM     98  O   UNL     1     147.593 162.031 187.809  0.00  0.00    -0.297 OA
BRANCH  97  99
ATOM     99  C   UNL     1     146.646 159.926 188.506  0.00  0.00    +0.041 C 
ATOM    100  H   UNL     1     146.526 159.109 187.784  0.00  0.00    +0.040 HD
BRANCH  99 101
ATOM    101  C   UNL     1     145.414 159.890 189.406  0.00  0.00    -0.053 C 
ATOM    102  H   UNL     1     145.570 160.521 190.287  0.00  0.00    +0.024 HD
ATOM    103  H   UNL     1     145.202 158.881 189.774  0.00  0.00    +0.024 HD
ATOM    104  H   UNL     1     144.530 160.262 188.879  0.00  0.00    +0.024 HD
ENDBRANCH  99 101
BRANCH  99 105
ATOM    105  C   UNL     1     147.990 159.719 189.237  0.00  0.00    +0.071 C 
ATOM    106  H   UNL     1     148.358 160.690 189.601  0.00  0.00    +0.061 HD
BRANCH 105 107
ATOM    107  C   UNL     1     147.916 158.746 190.435  0.00  0.00    -0.006 C 
ATOM    108  H   UNL     1     146.952 158.849 190.948  0.00  0.00    +0.033 HD
ATOM    109  H   UNL     1     148.701 158.968 191.166  0.00  0.00    +0.033 HD
BRANCH 107 110
ATOM    110  C   UNL     1     148.026 157.310 189.978  0.00  0.00    -0.067 C 
ATOM    111  C   UNL     1     146.961 156.518 189.792  0.00  0.00    -0.005 C 
ATOM    112  H   UNL     1     149.045 156.967 189.818  0.00  0.00    +0.059 HD
ATOM    113  H   UNL     1     145.969 156.931 189.976  0.00  0.00    +0.078 HD
BRANCH 111 114
ATOM    114  N   UNL     1     146.962 155.190 189.389  0.00  0.00    -0.284 N 
ATOM    115  C   UNL     1     146.107 154.205 189.867  0.00  0.00    +0.206 C 
ATOM    116  O   UNL     1     146.081 153.036 189.501  0.00  0.00    -0.279 OA
ATOM    117  H   UNL     1     145.406 154.559 190.636  0.00  0.00    +0.126 HD
BRANCH 114 118
ATOM    118  C   UNL     1     147.931 154.811 188.367  0.00  0.00    +0.007 C 
ATOM    119  H   UNL     1     148.850 155.386 188.518  0.00  0.00    +0.043 HD
ATOM    120  H   UNL     1     147.562 155.007 187.355  0.00  0.00    +0.043 HD
ATOM    121  H   UNL     1     148.148 153.742 188.453  0.00  0.00    +0.043 HD
ENDBRANCH 114 118
ENDBRANCH 111 114
ENDBRANCH 107 110
ENDBRANCH 105 107
BRANCH 105 122
ATOM    122  O   UNL     1     148.943 159.169 188.303  0.00  0.00    -0.379 OA
BRANCH 122 123
ATOM    123  C   UNL     1     150.238 159.745 188.410  0.00  0.00    +0.037 C 
ATOM    124  H   UNL     1     150.204 160.676 188.975  0.00  0.00    +0.052 HD
ATOM    125  H   UNL     1     150.600 159.960 187.403  0.00  0.00    +0.052 HD
ATOM    126  H   UNL     1     150.932 159.044 188.881  0.00  0.00    +0.052 HD
ENDBRANCH 122 123
ENDBRANCH 105 122
ENDBRANCH  99 105
ENDBRANCH  97  99
ENDBRANCH  94  97
ENDBRANCH  91  94
ENDBRANCH  85  91
ENDBRANCH  83  85
BRANCH  83 127
ATOM    127  O   UNL     1     142.704 163.039 189.854  0.00  0.00    -0.379 OA
BRANCH 127 128
ATOM    128  C   UNL     1     142.243 161.694 189.758  0.00  0.00    +0.037 C 
ATOM    129  H   UNL     1     141.338 161.539 190.352  0.00  0.00    +0.052 HD
ATOM    130  H   UNL     1     143.032 161.041 190.148  0.00  0.00    +0.052 HD
ATOM    131  H   UNL     1     142.061 161.417 188.719  0.00  0.00    +0.052 HD
ENDBRANCH 127 128
ENDBRANCH  83 127
ENDBRANCH  77  83
ENDBRANCH  25  77
BRANCH   9 132
ATOM    132  O   UNL     1     152.297 167.963 188.745  0.00  0.00    -0.384 OA
ATOM    133  H   UNL     1     152.784 168.388 188.017  0.00  0.00    +0.210 HD
ENDBRANCH   9 132
BRANCH  29 134
ATOM    134  O   UNL     1     143.377 169.457 186.322  0.00  0.00    -0.376 OA
BRANCH 134 135
ATOM    135  C   UNL     1     144.005 168.933 185.161  0.00  0.00    +0.037 C 
ATOM    136  H   UNL     1     144.760 168.191 185.439  0.00  0.00    +0.052 HD
ATOM    137  H   UNL     1     144.502 169.757 184.638  0.00  0.00    +0.052 HD
ATOM    138  H   UNL     1     143.271 168.486 184.483  0.00  0.00    +0.052 HD
ENDBRANCH 134 135
ENDBRANCH  29 134
BRANCH   6 139
ATOM    139  O   UNL     1     150.626 163.416 186.255  0.00  0.00    -0.379 OA
BRANCH 139 140
ATOM    140  C   UNL     1     151.529 162.350 185.978  0.00  0.00    +0.037 C 
ATOM    141  H   UNL     1     152.146 162.130 186.857  0.00  0.00    +0.052 HD
ATOM    142  H   UNL     1     152.186 162.667 185.162  0.00  0.00    +0.052 HD
ATOM    143  H   UNL     1     150.990 161.454 185.658  0.00  0.00    +0.052 HD
ENDBRANCH 139 140
ENDBRANCH   6 139
BRANCH  16 144
ATOM    144  O   UNL     1     152.573 166.133 193.528  0.00  0.00    -0.379 OA
BRANCH 144 145
ATOM    145  C   UNL     1     153.747 166.891 193.784  0.00  0.00    +0.037 C 
ATOM    146  H   UNL     1     154.364 166.407 194.543  0.00  0.00    +0.052 HD
ATOM    147  H   UNL     1     154.322 167.050 192.868  0.00  0.00    +0.052 HD
ATOM    148  H   UNL     1     153.439 167.865 194.173  0.00  0.00    +0.052 HD
ENDBRANCH 144 145
ENDBRANCH  16 144
BRANCH   4 149
ATOM    149  O   UNL     1     148.336 165.911 184.024  0.00  0.00    -0.376 OA
BRANCH 149 150
ATOM    150  C   UNL     1     148.911 165.082 183.022  0.00  0.00    +0.037 C 
ATOM    151  H   UNL     1     149.994 165.056 183.176  0.00  0.00    +0.052 HD
ATOM    152  H   UNL     1     148.527 164.059 183.105  0.00  0.00    +0.052 HD
ATOM    153  H   UNL     1     148.714 165.481 182.023  0.00  0.00    +0.052 HD
ENDBRANCH 149 150
ENDBRANCH   4 149
TORSDOF 33
ENDMDL
MODEL 2
REMARK VINA RESULT:      -5.1      1.233      2.317
REMARK  Name = Sphinxolide B_conf3
REMARK  33 active torsions:
REMARK  status: ('A' for Active; 'I' for Inactive)
REMARK    1  A    between atoms: C_1  and  C_2
REMARK    2  A    between atoms: C_5  and  O_67
REMARK    3  A    between atoms: C_7  and  O_65
REMARK    4  A    between atoms: C_8  and  C_64
REMARK    5  A    between atoms: C_10  and  O_63
REMARK    6  A    between atoms: C_17  and  O_61
REMARK    7  A    between atoms: C_19  and  C_60
REMARK    8  A    between atoms: C_26  and  C_37
REMARK    9  A    between atoms: C_27  and  C_36
REMARK   10  A    between atoms: C_30  and  O_34
REMARK   11  A    between atoms: C_32  and  O_33
REMARK   12  A    between atoms: O_34  and  C_35
REMARK   13  A    between atoms: C_37  and  C_38
REMARK   14  A    between atoms: C_37  and  C_39
REMARK   15  A    between atoms: C_39  and  C_40
REMARK   16  A    between atoms: C_39  and  O_58
REMARK   17  A    between atoms: C_40  and  C_41
REMARK   18  A    between atoms: C_40  and  C_42
REMARK   19  A    between atoms: C_42  and  C_43
REMARK   20  A    between atoms: C_43  and  C_44
REMARK   21  A    between atoms: C_44  and  C_46
REMARK   22  A    between atoms: C_46  and  C_47
REMARK   23  A    between atoms: C_46  and  C_48
REMARK   24  A    between atoms: C_48  and  C_49
REMARK   25  A    between atoms: C_48  and  O_56
REMARK   26  A    between atoms: C_49  and  C_50
REMARK   27  A    between atoms: C_51  and  N_52
REMARK   28  A    between atoms: N_52  and  C_53
REMARK   29  A    between atoms: O_56  and  C_57
REMARK   30  A    between atoms: O_58  and  C_59
REMARK   31  A    between atoms: O_61  and  C_62
REMARK   32  A    between atoms: O_65  and  C_66
REMARK   33  A    between atoms: O_67  and  C_68
REMARK                            x       y       z     vdW  Elec       q    Type
REMARK                         _______ _______ _______ _____ _____    ______ ____
ROOT
ATOM      1  C   UNL     1     147.971 168.331 187.904  0.00  0.00    +0.000 C 
ATOM      2  C   UNL     1     148.093 167.018 187.166  0.00  0.00    -0.080 C 
ATOM      3  C   UNL     1     148.730 166.888 185.990  0.00  0.00    -0.059 C 
ATOM      4  C   UNL     1     148.955 165.588 185.259  0.00  0.00    +0.079 C 
ATOM      5  C   UNL     1     150.455 165.335 184.996  0.00  0.00    +0.004 C 
ATOM      6  C   UNL     1     151.251 164.607 186.106  0.00  0.00    +0.067 C 
ATOM      7  C   UNL     1     151.304 165.392 187.454  0.00  0.00    +0.022 C 
ATOM      8  C   UNL     1     152.780 165.614 187.924  0.00  0.00    +0.138 C 
ATOM      9  C   UNL     1     153.009 166.733 188.963  0.00  0.00    +0.114 C 
ATOM     10  C   UNL     1     152.627 166.264 190.342  0.00  0.00    -0.029 C 
ATOM     11  C   UNL     1     152.862 164.968 190.635  0.00  0.00    +0.024 C 
ATOM     12  C   UNL     1     153.416 164.014 189.651  0.00  0.00    +0.332 C 
ATOM     13  O   UNL     1     153.848 162.925 190.008  0.00  0.00    -0.246 OA
ATOM     14  O   UNL     1     153.414 164.389 188.346  0.00  0.00    -0.455 OA
ATOM     15  C   UNL     1     152.076 167.304 191.302  0.00  0.00    -0.002 C 
ATOM     16  C   UNL     1     151.605 166.915 192.726  0.00  0.00    +0.066 C 
ATOM     17  C   UNL     1     150.305 166.056 192.730  0.00  0.00    -0.005 C 
ATOM     18  C   UNL     1     149.560 166.050 194.066  0.00  0.00    -0.070 C 
ATOM     19  C   UNL     1     148.223 166.112 194.241  0.00  0.00    -0.062 C 
ATOM     20  C   UNL     1     147.156 166.112 193.257  0.00  0.00    -0.055 C 
ATOM     21  C   UNL     1     145.877 166.063 193.666  0.00  0.00    +0.023 C 
ATOM     22  C   UNL     1     144.672 165.845 192.845  0.00  0.00    +0.332 C 
ATOM     23  O   UNL     1     143.627 165.485 193.370  0.00  0.00    -0.246 OA
ATOM     24  O   UNL     1     144.881 166.013 191.517  0.00  0.00    -0.457 OA
ATOM     25  C   UNL     1     143.863 165.440 190.645  0.00  0.00    +0.114 C 
ATOM     26  C   UNL     1     142.874 166.528 190.123  0.00  0.00    +0.012 C 
ATOM     27  C   UNL     1     143.554 167.687 189.429  0.00  0.00    -0.079 C 
ATOM     28  C   UNL     1     143.454 167.960 188.117  0.00  0.00    -0.059 C 
ATOM     29  C   UNL     1     144.132 169.110 187.419  0.00  0.00    +0.079 C 
ATOM     30  C   UNL     1     145.588 168.784 187.041  0.00  0.00    +0.004 C 
ATOM     31  C   UNL     1     146.511 168.685 188.259  0.00  0.00    +0.064 C 
ATOM     32  H   UNL     1     148.392 169.144 187.294  0.00  0.00    +0.037 HD
ATOM     33  H   UNL     1     147.666 166.141 187.648  0.00  0.00    +0.057 HD
ATOM     34  H   UNL     1     149.143 167.773 185.507  0.00  0.00    +0.059 HD
ATOM     35  H   UNL     1     148.513 164.733 185.785  0.00  0.00    +0.064 HD
ATOM     36  H   UNL     1     150.960 166.279 184.747  0.00  0.00    +0.032 HD
ATOM     37  H   UNL     1     150.530 164.717 184.090  0.00  0.00    +0.032 HD
ATOM     38  H   UNL     1     152.268 164.494 185.705  0.00  0.00    +0.060 HD
ATOM     39  H   UNL     1     150.931 166.401 187.254  0.00  0.00    +0.036 HD
ATOM     40  H   UNL     1     153.337 165.939 187.032  0.00  0.00    +0.077 HD
ATOM     41  H   UNL     1     154.079 166.981 189.002  0.00  0.00    +0.068 HD
ATOM     42  H   UNL     1     152.692 164.538 191.613  0.00  0.00    +0.069 HD
ATOM     43  H   UNL     1     152.851 168.075 191.406  0.00  0.00    +0.034 HD
ATOM     44  H   UNL     1     151.225 167.799 190.822  0.00  0.00    +0.034 HD
ATOM     45  H   UNL     1     151.381 167.850 193.260  0.00  0.00    +0.060 HD
ATOM     46  H   UNL     1     149.638 166.427 191.944  0.00  0.00    +0.034 HD
ATOM     47  H   UNL     1     150.549 165.015 192.493  0.00  0.00    +0.034 HD
ATOM     48  H   UNL     1     147.869 166.101 195.274  0.00  0.00    +0.062 HD
ATOM     49  H   UNL     1     147.407 166.059 192.205  0.00  0.00    +0.062 HD
ATOM     50  H   UNL     1     145.639 166.070 194.726  0.00  0.00    +0.069 HD
ATOM     51  H   UNL     1     143.272 164.726 191.229  0.00  0.00    +0.074 HD
ATOM     52  H   UNL     1     142.177 166.048 189.426  0.00  0.00    +0.038 HD
ATOM     53  H   UNL     1     144.160 168.334 190.064  0.00  0.00    +0.057 HD
ATOM     54  H   UNL     1     142.838 167.329 187.483  0.00  0.00    +0.059 HD
ATOM     55  H   UNL     1     144.071 170.004 188.051  0.00  0.00    +0.064 HD
ATOM     56  H   UNL     1     145.966 169.567 186.371  0.00  0.00    +0.032 HD
ATOM     57  H   UNL     1     145.609 167.858 186.457  0.00  0.00    +0.032 HD
ATOM     58  H   UNL     1     146.146 167.922 188.952  0.00  0.00    +0.060 HD
ENDROOT
BRANCH   1  59
ATOM     59  C   UNL     1     148.813 168.256 189.185  0.00  0.00    -0.057 C 
ATOM     60  H   UNL     1     148.427 168.928 189.959  0.00  0.00    +0.024 HD
ATOM     61  H   UNL     1     148.809 167.244 189.589  0.00  0.00    +0.024 HD
ATOM     62  H   UNL     1     149.856 168.528 188.993  0.00  0.00    +0.024 HD
ENDBRANCH   1  59
BRANCH  26  63
ATOM     63  C   UNL     1     142.006 167.101 191.253  0.00  0.00    -0.056 C 
ATOM     64  H   UNL     1     140.939 166.961 191.036  0.00  0.00    +0.024 HD
ATOM     65  H   UNL     1     142.218 166.591 192.197  0.00  0.00    +0.024 HD
ATOM     66  H   UNL     1     142.174 168.174 191.396  0.00  0.00    +0.024 HD
ENDBRANCH  26  63
BRANCH  18  67
ATOM     67  C   UNL     1     150.422 165.895 195.302  0.00  0.00    -0.043 C 
ATOM     68  H   UNL     1     151.472 165.758 195.018  0.00  0.00    +0.027 HD
ATOM     69  H   UNL     1     150.334 166.775 195.947  0.00  0.00    +0.027 HD
ATOM     70  H   UNL     1     150.143 165.022 195.901  0.00  0.00    +0.027 HD
ENDBRANCH  18  67
BRANCH   7  71
ATOM     71  C   UNL     1     150.389 164.766 188.516  0.00  0.00    -0.057 C 
ATOM     72  H   UNL     1     149.354 164.706 188.170  0.00  0.00    +0.023 HD
ATOM     73  H   UNL     1     150.695 163.746 188.772  0.00  0.00    +0.023 HD
ATOM     74  H   UNL     1     150.372 165.362 189.432  0.00  0.00    +0.023 HD
ENDBRANCH   7  71
BRANCH  31  75
ATOM     75  O   UNL     1     146.483 169.936 188.958  0.00  0.00    -0.391 OA
ATOM     76  H   UNL     1     147.399 170.169 189.192  0.00  0.00    +0.210 HD
ENDBRANCH  31  75
BRANCH  25  77
ATOM     77  C   UNL     1     144.596 164.631 189.528  0.00  0.00    +0.020 C 
ATOM     78  H   UNL     1     144.493 165.183 188.589  0.00  0.00    +0.036 HD
BRANCH  77  79
ATOM     79  C   UNL     1     146.122 164.609 189.774  0.00  0.00    -0.057 C 
ATOM     80  H   UNL     1     146.357 164.665 190.841  0.00  0.00    +0.023 HD
ATOM     81  H   UNL     1     146.612 165.449 189.271  0.00  0.00    +0.023 HD
ATOM     82  H   UNL     1     146.575 163.700 189.366  0.00  0.00    +0.023 HD
ENDBRANCH  77  79
BRANCH  77  83
ATOM     83  C   UNL     1     144.106 163.151 189.334  0.00  0.00    +0.067 C 
ATOM     84  H   UNL     1     144.753 162.481 189.917  0.00  0.00    +0.060 HD
BRANCH  83  85
ATOM     85  C   UNL     1     144.195 162.644 187.865  0.00  0.00    -0.017 C 
ATOM     86  H   UNL     1     143.325 162.012 187.674  0.00  0.00    +0.032 HD
BRANCH  85  87
ATOM     87  C   UNL     1     144.139 163.795 186.856  0.00  0.00    -0.060 C 
ATOM     88  H   UNL     1     145.121 163.970 186.405  0.00  0.00    +0.023 HD
ATOM     89  H   UNL     1     143.455 163.571 186.032  0.00  0.00    +0.023 HD
ATOM     90  H   UNL     1     143.797 164.725 187.321  0.00  0.00    +0.023 HD
ENDBRANCH  85  87
BRANCH  85  91
ATOM     91  C   UNL     1     145.410 161.713 187.590  0.00  0.00    -0.041 C 
ATOM     92  H   UNL     1     146.193 162.287 187.079  0.00  0.00    +0.027 HD
ATOM     93  H   UNL     1     145.087 160.956 186.861  0.00  0.00    +0.027 HD
BRANCH  91  94
ATOM     94  C   UNL     1     146.010 160.965 188.782  0.00  0.00    +0.007 C 
ATOM     95  H   UNL     1     145.866 161.567 189.687  0.00  0.00    +0.034 HD
ATOM     96  H   UNL     1     147.088 160.845 188.652  0.00  0.00    +0.034 HD
BRANCH  94  97
ATOM     97  C   UNL     1     145.389 159.610 189.075  0.00  0.00    +0.139 C 
ATOM     98  O   UNL     1     144.558 159.457 189.972  0.00  0.00    -0.297 OA
BRANCH  97  99
ATOM     99  C   UNL     1     145.878 158.441 188.228  0.00  0.00    +0.041 C 
ATOM    100  H   UNL     1     146.544 158.856 187.462  0.00  0.00    +0.040 HD
BRANCH  99 101
ATOM    101  C   UNL     1     144.702 157.815 187.485  0.00  0.00    -0.053 C 
ATOM    102  H   UNL     1     144.083 157.233 188.176  0.00  0.00    +0.024 HD
ATOM    103  H   UNL     1     145.030 157.127 186.700  0.00  0.00    +0.024 HD
ATOM    104  H   UNL     1     144.067 158.584 187.031  0.00  0.00    +0.024 HD
ENDBRANCH  99 101
BRANCH  99 105
ATOM    105  C   UNL     1     146.700 157.458 189.089  0.00  0.00    +0.071 C 
ATOM    106  H   UNL     1     147.349 156.858 188.434  0.00  0.00    +0.061 HD
BRANCH 105 107
ATOM    107  C   UNL     1     147.582 158.139 190.158  0.00  0.00    -0.006 C 
ATOM    108  H   UNL     1     147.588 157.547 191.081  0.00  0.00    +0.033 HD
ATOM    109  H   UNL     1     147.192 159.131 190.410  0.00  0.00    +0.033 HD
BRANCH 107 110
ATOM    110  C   UNL     1     149.016 158.251 189.692  0.00  0.00    -0.067 C 
ATOM    111  C   UNL     1     149.449 159.233 188.890  0.00  0.00    -0.005 C 
ATOM    112  H   UNL     1     149.668 157.462 190.055  0.00  0.00    +0.059 HD
ATOM    113  H   UNL     1     148.735 159.989 188.562  0.00  0.00    +0.078 HD
BRANCH 111 114
ATOM    114  N   UNL     1     150.735 159.412 188.401  0.00  0.00    -0.284 N 
ATOM    115  C   UNL     1     151.416 160.622 188.356  0.00  0.00    +0.206 C 
ATOM    116  O   UNL     1     152.561 160.789 187.950  0.00  0.00    -0.279 OA
ATOM    117  H   UNL     1     150.836 161.474 188.737  0.00  0.00    +0.126 HD
BRANCH 114 118
ATOM    118  C   UNL     1     151.427 158.225 187.911  0.00  0.00    +0.007 C 
ATOM    119  H   UNL     1     151.809 157.659 188.767  0.00  0.00    +0.043 HD
ATOM    120  H   UNL     1     152.269 158.477 187.259  0.00  0.00    +0.043 HD
ATOM    121  H   UNL     1     150.726 157.605 187.345  0.00  0.00    +0.043 HD
ENDBRANCH 114 118
ENDBRANCH 111 114
ENDBRANCH 107 110
ENDBRANCH 105 107
BRANCH 105 122
ATOM    122  O   UNL     1     145.789 156.582 189.787  0.00  0.00    -0.379 OA
BRANCH 122 123
ATOM    123  C   UNL     1     146.163 155.213 189.729  0.00  0.00    +0.037 C 
ATOM    124  H   UNL     1     145.719 154.725 188.860  0.00  0.00    +0.052 HD
ATOM    125  H   UNL     1     145.797 154.720 190.631  0.00  0.00    +0.052 HD
ATOM    126  H   UNL     1     147.251 155.113 189.701  0.00  0.00    +0.052 HD
ENDBRANCH 122 123
ENDBRANCH 105 122
ENDBRANCH  99 105
ENDBRANCH  97  99
ENDBRANCH  94  97
ENDBRANCH  91  94
ENDBRANCH  85  91
ENDBRANCH  83  85
BRANCH  83 127
ATOM    127  O   UNL     1     142.754 162.968 189.773  0.00  0.00    -0.379 OA
BRANCH 127 128
ATOM    128  C   UNL     1     142.165 161.743 189.344  0.00  0.00    +0.037 C 
ATOM    129  H   UNL     1     141.150 161.898 188.970  0.00  0.00    +0.052 HD
ATOM    130  H   UNL     1     142.121 161.072 190.209  0.00  0.00    +0.052 HD
ATOM    131  H   UNL     1     142.776 161.264 188.578  0.00  0.00    +0.052 HD
ENDBRANCH 127 128
ENDBRANCH  83 127
ENDBRANCH  77  83
ENDBRANCH  25  77
BRANCH   9 132
ATOM    132  O   UNL     1     152.320 167.924 188.615  0.00  0.00    -0.384 OA
ATOM    133  H   UNL     1     151.923 167.785 187.736  0.00  0.00    +0.210 HD
ENDBRANCH   9 132
BRANCH  29 134
ATOM    134  O   UNL     1     143.379 169.327 186.215  0.00  0.00    -0.376 OA
BRANCH 134 135
ATOM    135  C   UNL     1     144.157 169.879 185.164  0.00  0.00    +0.037 C 
ATOM    136  H   UNL     1     144.819 170.661 185.550  0.00  0.00    +0.052 HD
ATOM    137  H   UNL     1     143.477 170.328 184.432  0.00  0.00    +0.052 HD
ATOM    138  H   UNL     1     144.746 169.107 184.659  0.00  0.00    +0.052 HD
ENDBRANCH 134 135
ENDBRANCH  29 134
BRANCH   6 139
ATOM    139  O   UNL     1     150.651 163.312 186.247  0.00  0.00    -0.379 OA
BRANCH 139 140
ATOM    140  C   UNL     1     150.947 162.435 185.164  0.00  0.00    +0.037 C 
ATOM    141  H   UNL     1     151.033 161.402 185.519  0.00  0.00    +0.052 HD
ATOM    142  H   UNL     1     151.908 162.738 184.738  0.00  0.00    +0.052 HD
ATOM    143  H   UNL     1     150.185 162.507 184.384  0.00  0.00    +0.052 HD
ENDBRANCH 139 140
ENDBRANCH   6 139
BRANCH  16 144
ATOM    144  O   UNL     1     152.635 166.211 193.439  0.00  0.00    -0.379 OA
BRANCH 144 145
ATOM    145  C   UNL     1     153.805 166.981 193.673  0.00  0.00    +0.037 C 
ATOM    146  H   UNL     1     154.322 167.198 192.736  0.00  0.00    +0.052 HD
ATOM    147  H   UNL     1     153.569 167.908 194.202  0.00  0.00    +0.052 HD
ATOM    148  H   UNL     1     154.478 166.388 194.298  0.00  0.00    +0.052 HD
ENDBRANCH 144 145
ENDBRANCH  16 144
BRANCH   4 149
ATOM    149  O   UNL     1     148.337 165.744 183.971  0.00  0.00    -0.376 OA
BRANCH 149 150
ATOM    150  C   UNL     1     148.966 164.959 182.966  0.00  0.00    +0.037 C 
ATOM    151  H   UNL     1     149.400 165.634 182.222  0.00  0.00    +0.052 HD
ATOM    152  H   UNL     1     149.774 164.358 183.398  0.00  0.00    +0.052 HD
ATOM    153  H   UNL     1     148.240 164.313 182.463  0.00  0.00    +0.052 HD
ENDBRANCH 149 150
ENDBRANCH   4 149
TORSDOF 33
ENDMDL
MODEL 3
REMARK VINA RESULT:      -5.1      0.918      1.102
REMARK  Name = Sphinxolide B_conf3
REMARK  33 active torsions:
REMARK  status: ('A' for Active; 'I' for Inactive)
REMARK    1  A    between atoms: C_1  and  C_2
REMARK    2  A    between atoms: C_5  and  O_67
REMARK    3  A    between atoms: C_7  and  O_65
REMARK    4  A    between atoms: C_8  and  C_64
REMARK    5  A    between atoms: C_10  and  O_63
REMARK    6  A    between atoms: C_17  and  O_61
REMARK    7  A    between atoms: C_19  and  C_60
REMARK    8  A    between atoms: C_26  and  C_37
REMARK    9  A    between atoms: C_27  and  C_36
REMARK   10  A    between atoms: C_30  and  O_34
REMARK   11  A    between atoms: C_32  and  O_33
REMARK   12  A    between atoms: O_34  and  C_35
REMARK   13  A    between atoms: C_37  and  C_38
REMARK   14  A    between atoms: C_37  and  C_39
REMARK   15  A    between atoms: C_39  and  C_40
REMARK   16  A    between atoms: C_39  and  O_58
REMARK   17  A    between atoms: C_40  and  C_41
REMARK   18  A    between atoms: C_40  and  C_42
REMARK   19  A    between atoms: C_42  and  C_43
REMARK   20  A    between atoms: C_43  and  C_44
REMARK   21  A    between atoms: C_44  and  C_46
REMARK   22  A    between atoms: C_46  and  C_47
REMARK   23  A    between atoms: C_46  and  C_48
REMARK   24  A    between atoms: C_48  and  C_49
REMARK   25  A    between atoms: C_48  and  O_56
REMARK   26  A    between atoms: C_49  and  C_50
REMARK   27  A    between atoms: C_51  and  N_52
REMARK   28  A    between atoms: N_52  and  C_53
REMARK   29  A    between atoms: O_56  and  C_57
REMARK   30  A    between atoms: O_58  and  C_59
REMARK   31  A    between atoms: O_61  and  C_62
REMARK   32  A    between atoms: O_65  and  C_66
REMARK   33  A    between atoms: O_67  and  C_68
REMARK                            x       y       z     vdW  Elec       q    Type
REMARK                         _______ _______ _______ _____ _____    ______ ____
ROOT
ATOM      1  C   UNL     1     147.941 168.376 187.969  0.00  0.00    +0.000 C 
ATOM      2  C   UNL     1     148.068 167.074 187.212  0.00  0.00    -0.080 C 
ATOM      3  C   UNL     1     148.715 166.962 186.039  0.00  0.00    -0.059 C 
ATOM      4  C   UNL     1     148.944 165.672 185.291  0.00  0.00    +0.079 C 
ATOM      5  C   UNL     1     150.447 165.423 185.036  0.00  0.00    +0.004 C 
ATOM      6  C   UNL     1     151.233 164.678 186.141  0.00  0.00    +0.067 C 
ATOM      7  C   UNL     1     151.276 165.443 187.501  0.00  0.00    +0.022 C 
ATOM      8  C   UNL     1     152.749 165.657 187.985  0.00  0.00    +0.138 C 
ATOM      9  C   UNL     1     152.971 166.760 189.043  0.00  0.00    +0.114 C 
ATOM     10  C   UNL     1     152.577 166.271 190.412  0.00  0.00    -0.029 C 
ATOM     11  C   UNL     1     152.811 164.970 190.686  0.00  0.00    +0.024 C 
ATOM     12  C   UNL     1     153.372 164.031 189.693  0.00  0.00    +0.332 C 
ATOM     13  O   UNL     1     153.801 162.937 190.036  0.00  0.00    -0.246 OA
ATOM     14  O   UNL     1     153.380 164.426 188.394  0.00  0.00    -0.455 OA
ATOM     15  C   UNL     1     152.019 167.297 191.382  0.00  0.00    -0.002 C 
ATOM     16  C   UNL     1     151.537 166.887 192.797  0.00  0.00    +0.066 C 
ATOM     17  C   UNL     1     150.237 166.028 192.778  0.00  0.00    -0.005 C 
ATOM     18  C   UNL     1     149.482 166.002 194.108  0.00  0.00    -0.070 C 
ATOM     19  C   UNL     1     148.144 166.062 194.274  0.00  0.00    -0.062 C 
ATOM     20  C   UNL     1     147.085 166.077 193.282  0.00  0.00    -0.055 C 
ATOM     21  C   UNL     1     145.802 166.022 193.680  0.00  0.00    +0.023 C 
ATOM     22  C   UNL     1     144.604 165.816 192.847  0.00  0.00    +0.332 C 
ATOM     23  O   UNL     1     143.555 165.449 193.359  0.00  0.00    -0.246 OA
ATOM     24  O   UNL     1     144.823 166.005 191.524  0.00  0.00    -0.457 OA
ATOM     25  C   UNL     1     143.811 165.445 190.635  0.00  0.00    +0.114 C 
ATOM     26  C   UNL     1     142.826 166.541 190.122  0.00  0.00    +0.012 C 
ATOM     27  C   UNL     1     143.512 167.710 189.450  0.00  0.00    -0.079 C 
ATOM     28  C   UNL     1     143.422 168.003 188.142  0.00  0.00    -0.059 C 
ATOM     29  C   UNL     1     144.106 169.163 187.467  0.00  0.00    +0.079 C 
ATOM     30  C   UNL     1     145.564 168.842 187.095  0.00  0.00    +0.004 C 
ATOM     31  C   UNL     1     146.478 168.725 188.318  0.00  0.00    +0.064 C 
ATOM     32  H   UNL     1     148.367 169.198 187.375  0.00  0.00    +0.037 HD
ATOM     33  H   UNL     1     147.638 166.190 187.678  0.00  0.00    +0.057 HD
ATOM     34  H   UNL     1     149.131 167.854 185.573  0.00  0.00    +0.059 HD
ATOM     35  H   UNL     1     148.499 164.809 185.800  0.00  0.00    +0.064 HD
ATOM     36  H   UNL     1     150.954 166.370 184.804  0.00  0.00    +0.032 HD
ATOM     37  H   UNL     1     150.529 164.819 184.121  0.00  0.00    +0.032 HD
ATOM     38  H   UNL     1     152.254 164.571 185.746  0.00  0.00    +0.060 HD
ATOM     39  H   UNL     1     150.906 166.455 187.313  0.00  0.00    +0.036 HD
ATOM     40  H   UNL     1     153.313 165.995 187.103  0.00  0.00    +0.077 HD
ATOM     41  H   UNL     1     154.040 167.008 189.094  0.00  0.00    +0.068 HD
ATOM     42  H   UNL     1     152.632 164.526 191.656  0.00  0.00    +0.069 HD
ATOM     43  H   UNL     1     152.794 168.066 191.504  0.00  0.00    +0.034 HD
ATOM     44  H   UNL     1     151.172 167.799 190.903  0.00  0.00    +0.034 HD
ATOM     45  H   UNL     1     151.309 167.814 193.344  0.00  0.00    +0.060 HD
ATOM     46  H   UNL     1     149.577 166.411 191.992  0.00  0.00    +0.034 HD
ATOM     47  H   UNL     1     150.483 164.990 192.528  0.00  0.00    +0.034 HD
ATOM     48  H   UNL     1     147.782 166.035 195.304  0.00  0.00    +0.062 HD
ATOM     49  H   UNL     1     147.344 166.039 192.231  0.00  0.00    +0.062 HD
ATOM     50  H   UNL     1     145.556 166.013 194.738  0.00  0.00    +0.069 HD
ATOM     51  H   UNL     1     143.216 164.723 191.204  0.00  0.00    +0.074 HD
ATOM     52  H   UNL     1     142.135 166.072 189.412  0.00  0.00    +0.038 HD
ATOM     53  H   UNL     1     144.113 168.347 190.100  0.00  0.00    +0.057 HD
ATOM     54  H   UNL     1     142.811 167.381 187.494  0.00  0.00    +0.059 HD
ATOM     55  H   UNL     1     144.040 170.047 188.112  0.00  0.00    +0.064 HD
ATOM     56  H   UNL     1     145.948 169.635 186.440  0.00  0.00    +0.032 HD
ATOM     57  H   UNL     1     145.590 167.925 186.497  0.00  0.00    +0.032 HD
ATOM     58  H   UNL     1     146.108 167.951 188.997  0.00  0.00    +0.060 HD
ENDROOT
BRANCH   1  59
ATOM     59  C   UNL     1     148.773 168.281 189.255  0.00  0.00    -0.057 C 
ATOM     60  H   UNL     1     148.705 167.285 189.706  0.00  0.00    +0.024 HD
ATOM     61  H   UNL     1     149.824 168.482 189.048  0.00  0.00    +0.024 HD
ATOM     62  H   UNL     1     148.440 169.011 190.000  0.00  0.00    +0.024 HD
ENDBRANCH   1  59
BRANCH  26  63
ATOM     63  C   UNL     1     141.950 167.097 191.253  0.00  0.00    -0.056 C 
ATOM     64  H   UNL     1     141.702 166.312 191.978  0.00  0.00    +0.024 HD
ATOM     65  H   UNL     1     142.478 167.887 191.795  0.00  0.00    +0.024 HD
ATOM     66  H   UNL     1     141.006 167.508 190.879  0.00  0.00    +0.024 HD
ENDBRANCH  26  63
BRANCH  18  67
ATOM     67  C   UNL     1     150.334 165.829 195.348  0.00  0.00    -0.043 C 
ATOM     68  H   UNL     1     150.345 166.755 195.935  0.00  0.00    +0.027 HD
ATOM     69  H   UNL     1     149.952 165.012 195.969  0.00  0.00    +0.027 HD
ATOM     70  H   UNL     1     151.378 165.597 195.111  0.00  0.00    +0.027 HD
ENDBRANCH  18  67
BRANCH   7  71
ATOM     71  C   UNL     1     150.354 164.801 188.546  0.00  0.00    -0.057 C 
ATOM     72  H   UNL     1     149.725 165.547 189.039  0.00  0.00    +0.023 HD
ATOM     73  H   UNL     1     149.677 164.065 188.100  0.00  0.00    +0.023 HD
ATOM     74  H   UNL     1     150.925 164.310 189.338  0.00  0.00    +0.023 HD
ENDBRANCH   7  71
BRANCH  31  75
ATOM     75  O   UNL     1     146.445 169.965 189.036  0.00  0.00    -0.391 OA
ATOM     76  H   UNL     1     145.924 169.828 189.847  0.00  0.00    +0.210 HD
ENDBRANCH  31  75
BRANCH  25  77
ATOM     77  C   UNL     1     144.553 164.653 189.511  0.00  0.00    +0.020 C 
ATOM     78  H   UNL     1     144.472 165.228 188.584  0.00  0.00    +0.036 HD
BRANCH  77  79
ATOM     79  C   UNL     1     146.074 164.605 189.782  0.00  0.00    -0.057 C 
ATOM     80  H   UNL     1     146.347 165.216 190.648  0.00  0.00    +0.023 HD
ATOM     81  H   UNL     1     146.638 164.968 188.916  0.00  0.00    +0.023 HD
ATOM     82  H   UNL     1     146.412 163.579 189.961  0.00  0.00    +0.023 HD
ENDBRANCH  77  79
BRANCH  77  83
ATOM     83  C   UNL     1     144.047 163.184 189.274  0.00  0.00    +0.067 C 
ATOM     84  H   UNL     1     144.766 162.483 189.721  0.00  0.00    +0.060 HD
BRANCH  83  85
ATOM     85  C   UNL     1     143.951 162.785 187.774  0.00  0.00    -0.017 C 
ATOM     86  H   UNL     1     143.079 162.136 187.654  0.00  0.00    +0.032 HD
BRANCH  85  87
ATOM     87  C   UNL     1     143.728 164.001 186.868  0.00  0.00    -0.060 C 
ATOM     88  H   UNL     1     144.139 164.908 187.322  0.00  0.00    +0.023 HD
ATOM     89  H   UNL     1     144.233 163.880 185.905  0.00  0.00    +0.023 HD
ATOM     90  H   UNL     1     142.666 164.162 186.663  0.00  0.00    +0.023 HD
ENDBRANCH  85  87
BRANCH  85  91
ATOM     91  C   UNL     1     145.140 161.919 187.271  0.00  0.00    -0.041 C 
ATOM     92  H   UNL     1     146.069 162.289 187.723  0.00  0.00    +0.027 HD
ATOM     93  H   UNL     1     145.251 162.104 186.193  0.00  0.00    +0.027 HD
BRANCH  91  94
ATOM     94  C   UNL     1     145.040 160.404 187.461  0.00  0.00    +0.007 C 
ATOM     95  H   UNL     1     145.390 159.908 186.546  0.00  0.00    +0.034 HD
ATOM     96  H   UNL     1     143.999 160.105 187.601  0.00  0.00    +0.034 HD
BRANCH  94  97
ATOM     97  C   UNL     1     145.880 159.837 188.593  0.00  0.00    +0.139 C 
ATOM     98  O   UNL     1     145.471 159.814 189.755  0.00  0.00    -0.297 OA
BRANCH  97  99
ATOM     99  C   UNL     1     147.271 159.338 188.223  0.00  0.00    +0.041 C 
ATOM    100  H   UNL     1     147.895 160.223 188.048  0.00  0.00    +0.040 HD
BRANCH  99 101
ATOM    101  C   UNL     1     147.213 158.582 186.899  0.00  0.00    -0.053 C 
ATOM    102  H   UNL     1     147.816 157.669 186.956  0.00  0.00    +0.024 HD
ATOM    103  H   UNL     1     147.614 159.173 186.069  0.00  0.00    +0.024 HD
ATOM    104  H   UNL     1     146.185 158.292 186.655  0.00  0.00    +0.024 HD
ENDBRANCH  99 101
BRANCH  99 105
ATOM    105  C   UNL     1     147.890 158.546 189.396  0.00  0.00    +0.071 C 
ATOM    106  H   UNL     1     147.179 158.524 190.234  0.00  0.00    +0.061 HD
BRANCH 105 107
ATOM    107  C   UNL     1     148.274 157.092 189.043  0.00  0.00    -0.006 C 
ATOM    108  H   UNL     1     149.279 156.862 189.418  0.00  0.00    +0.033 HD
ATOM    109  H   UNL     1     148.289 156.946 187.958  0.00  0.00    +0.033 HD
BRANCH 107 110
ATOM    110  C   UNL     1     147.324 156.106 189.684  0.00  0.00    -0.067 C 
ATOM    111  C   UNL     1     146.015 156.064 189.402  0.00  0.00    -0.005 C 
ATOM    112  H   UNL     1     147.789 155.438 190.403  0.00  0.00    +0.059 HD
ATOM    113  H   UNL     1     145.618 156.771 188.673  0.00  0.00    +0.078 HD
BRANCH 111 114
ATOM    114  N   UNL     1     145.066 155.210 189.944  0.00  0.00    -0.284 N 
ATOM    115  C   UNL     1     143.753 155.553 190.242  0.00  0.00    +0.206 C 
ATOM    116  O   UNL     1     142.898 154.801 190.698  0.00  0.00    -0.279 OA
ATOM    117  H   UNL     1     143.506 156.601 190.024  0.00  0.00    +0.126 HD
BRANCH 114 118
ATOM    118  C   UNL     1     145.484 153.837 190.205  0.00  0.00    +0.007 C 
ATOM    119  H   UNL     1     145.328 153.614 191.266  0.00  0.00    +0.043 HD
ATOM    120  H   UNL     1     146.541 153.675 189.969  0.00  0.00    +0.043 HD
ATOM    121  H   UNL     1     144.886 153.154 189.594  0.00  0.00    +0.043 HD
ENDBRANCH 114 118
ENDBRANCH 111 114
ENDBRANCH 107 110
ENDBRANCH 105 107
BRANCH 105 122
ATOM    122  O   UNL     1     149.099 159.214 189.815  0.00  0.00    -0.379 OA
BRANCH 122 123
ATOM    123  C   UNL     1     150.103 159.251 188.811  0.00  0.00    +0.037 C 
ATOM    124  H   UNL     1     149.706 158.920 187.851  0.00  0.00    +0.052 HD
ATOM    125  H   UNL     1     150.908 158.576 189.106  0.00  0.00    +0.052 HD
ATOM    126  H   UNL     1     150.517 160.258 188.719  0.00  0.00    +0.052 HD
ENDBRANCH 122 123
ENDBRANCH 105 122
ENDBRANCH  99 105
ENDBRANCH  97  99
ENDBRANCH  94  97
ENDBRANCH  91  94
ENDBRANCH  85  91
ENDBRANCH  83  85
BRANCH  83 127
ATOM    127  O   UNL     1     142.763 162.953 189.867  0.00  0.00    -0.379 OA
BRANCH 127 128
ATOM    128  C   UNL     1     142.285 161.619 189.715  0.00  0.00    +0.037 C 
ATOM    129  H   UNL     1     142.460 161.246 188.703  0.00  0.00    +0.052 HD
ATOM    130  H   UNL     1     141.205 161.627 189.902  0.00  0.00    +0.052 HD
ATOM    131  H   UNL     1     142.747 160.954 190.445  0.00  0.00    +0.052 HD
ENDBRANCH 127 128
ENDBRANCH  83 127
ENDBRANCH  77  83
ENDBRANCH  25  77
BRANCH   9 132
ATOM    132  O   UNL     1     152.284 167.956 188.707  0.00  0.00    -0.384 OA
ATOM    133  H   UNL     1     152.145 167.952 187.743  0.00  0.00    +0.210 HD
ENDBRANCH   9 132
BRANCH  29 134
ATOM    134  O   UNL     1     143.362 169.398 186.260  0.00  0.00    -0.376 OA
BRANCH 134 135
ATOM    135  C   UNL     1     144.153 169.950 185.218  0.00  0.00    +0.037 C 
ATOM    136  H   UNL     1     144.195 171.040 185.308  0.00  0.00    +0.052 HD
ATOM    137  H   UNL     1     143.684 169.698 184.261  0.00  0.00    +0.052 HD
ATOM    138  H   UNL     1     145.165 169.534 185.226  0.00  0.00    +0.052 HD
ENDBRANCH 134 135
ENDBRANCH  29 134
BRANCH   6 139
ATOM    139  O   UNL     1     150.633 163.381 186.257  0.00  0.00    -0.379 OA
BRANCH 139 140
ATOM    140  C   UNL     1     151.551 162.315 186.039  0.00  0.00    +0.037 C 
ATOM    141  H   UNL     1     151.627 161.684 186.932  0.00  0.00    +0.052 HD
ATOM    142  H   UNL     1     152.534 162.752 185.836  0.00  0.00    +0.052 HD
ATOM    143  H   UNL     1     151.255 161.715 185.174  0.00  0.00    +0.052 HD
ENDBRANCH 139 140
ENDBRANCH   6 139
BRANCH  16 144
ATOM    144  O   UNL     1     152.562 166.172 193.507  0.00  0.00    -0.379 OA
BRANCH 144 145
ATOM    145  C   UNL     1     153.734 166.934 193.754  0.00  0.00    +0.037 C 
ATOM    146  H   UNL     1     154.445 166.370 194.360  0.00  0.00    +0.052 HD
ATOM    147  H   UNL     1     154.201 167.256 192.819  0.00  0.00    +0.052 HD
ATOM    148  H   UNL     1     153.443 167.824 194.319  0.00  0.00    +0.052 HD
ENDBRANCH 144 145
ENDBRANCH  16 144
BRANCH   4 149
ATOM    149  O   UNL     1     148.336 165.848 184.001  0.00  0.00    -0.376 OA
BRANCH 149 150
ATOM    150  C   UNL     1     148.951 165.051 182.996  0.00  0.00    +0.037 C 
ATOM    151  H   UNL     1     149.094 165.671 182.104  0.00  0.00    +0.052 HD
ATOM    152  H   UNL     1     149.933 164.701 183.332  0.00  0.00    +0.052 HD
ATOM    153  H   UNL     1     148.315 164.202 182.727  0.00  0.00    +0.052 HD
ENDBRANCH 149 150
ENDBRANCH   4 149
TORSDOF 33
ENDMDL
MODEL 4
REMARK VINA RESULT:      -4.9      2.804      6.222
REMARK  Name = Sphinxolide B_conf3
REMARK  33 active torsions:
REMARK  status: ('A' for Active; 'I' for Inactive)
REMARK    1  A    between atoms: C_1  and  C_2
REMARK    2  A    between atoms: C_5  and  O_67
REMARK    3  A    between atoms: C_7  and  O_65
REMARK    4  A    between atoms: C_8  and  C_64
REMARK    5  A    between atoms: C_10  and  O_63
REMARK    6  A    between atoms: C_17  and  O_61
REMARK    7  A    between atoms: C_19  and  C_60
REMARK    8  A    between atoms: C_26  and  C_37
REMARK    9  A    between atoms: C_27  and  C_36
REMARK   10  A    between atoms: C_30  and  O_34
REMARK   11  A    between atoms: C_32  and  O_33
REMARK   12  A    between atoms: O_34  and  C_35
REMARK   13  A    between atoms: C_37  and  C_38
REMARK   14  A    between atoms: C_37  and  C_39
REMARK   15  A    between atoms: C_39  and  C_40
REMARK   16  A    between atoms: C_39  and  O_58
REMARK   17  A    between atoms: C_40  and  C_41
REMARK   18  A    between atoms: C_40  and  C_42
REMARK   19  A    between atoms: C_42  and  C_43
REMARK   20  A    between atoms: C_43  and  C_44
REMARK   21  A    between atoms: C_44  and  C_46
REMARK   22  A    between atoms: C_46  and  C_47
REMARK   23  A    between atoms: C_46  and  C_48
REMARK   24  A    between atoms: C_48  and  C_49
REMARK   25  A    between atoms: C_48  and  O_56
REMARK   26  A    between atoms: C_49  and  C_50
REMARK   27  A    between atoms: C_51  and  N_52
REMARK   28  A    between atoms: N_52  and  C_53
REMARK   29  A    between atoms: O_56  and  C_57
REMARK   30  A    between atoms: O_58  and  C_59
REMARK   31  A    between atoms: O_61  and  C_62
REMARK   32  A    between atoms: O_65  and  C_66
REMARK   33  A    between atoms: O_67  and  C_68
REMARK                            x       y       z     vdW  Elec       q    Type
REMARK                         _______ _______ _______ _____ _____    ______ ____
ROOT
ATOM      1  C   UNL     1     148.187 166.956 185.601  0.00  0.00    +0.000 C 
ATOM      2  C   UNL     1     147.165 165.885 185.909  0.00  0.00    -0.080 C 
ATOM      3  C   UNL     1     146.684 165.035 184.986  0.00  0.00    -0.059 C 
ATOM      4  C   UNL     1     145.733 163.897 185.261  0.00  0.00    +0.079 C 
ATOM      5  C   UNL     1     146.315 162.545 184.796  0.00  0.00    +0.004 C 
ATOM      6  C   UNL     1     147.199 161.775 185.806  0.00  0.00    +0.067 C 
ATOM      7  C   UNL     1     148.496 162.542 186.214  0.00  0.00    +0.022 C 
ATOM      8  C   UNL     1     149.773 161.676 185.955  0.00  0.00    +0.138 C 
ATOM      9  C   UNL     1     151.115 162.438 185.878  0.00  0.00    +0.114 C 
ATOM     10  C   UNL     1     151.611 162.781 187.257  0.00  0.00    -0.029 C 
ATOM     11  C   UNL     1     151.360 161.889 188.238  0.00  0.00    +0.024 C 
ATOM     12  C   UNL     1     150.587 160.649 188.012  0.00  0.00    +0.332 C 
ATOM     13  O   UNL     1     150.587 159.750 188.843  0.00  0.00    -0.246 OA
ATOM     14  O   UNL     1     149.874 160.558 186.860  0.00  0.00    -0.455 OA
ATOM     15  C   UNL     1     152.409 164.065 187.409  0.00  0.00    -0.002 C 
ATOM     16  C   UNL     1     152.920 164.535 188.794  0.00  0.00    +0.066 C 
ATOM     17  C   UNL     1     151.777 164.998 189.747  0.00  0.00    -0.005 C 
ATOM     18  C   UNL     1     152.242 165.886 190.901  0.00  0.00    -0.070 C 
ATOM     19  C   UNL     1     151.610 166.977 191.382  0.00  0.00    -0.062 C 
ATOM     20  C   UNL     1     150.324 167.541 191.016  0.00  0.00    -0.055 C 
ATOM     21  C   UNL     1     149.833 168.579 191.714  0.00  0.00    +0.023 C 
ATOM     22  C   UNL     1     148.478 169.156 191.646  0.00  0.00    +0.332 C 
ATOM     23  O   UNL     1     148.061 169.857 192.558  0.00  0.00    -0.246 OA
ATOM     24  O   UNL     1     147.779 168.774 190.551  0.00  0.00    -0.457 OA
ATOM     25  C   UNL     1     146.337 168.981 190.623  0.00  0.00    +0.114 C 
ATOM     26  C   UNL     1     145.900 170.261 189.844  0.00  0.00    +0.012 C 
ATOM     27  C   UNL     1     146.352 170.279 188.400  0.00  0.00    -0.079 C 
ATOM     28  C   UNL     1     145.532 170.198 187.339  0.00  0.00    -0.059 C 
ATOM     29  C   UNL     1     145.975 170.211 185.900  0.00  0.00    +0.079 C 
ATOM     30  C   UNL     1     146.420 168.820 185.416  0.00  0.00    +0.004 C 
ATOM     31  C   UNL     1     147.736 168.361 186.052  0.00  0.00    +0.064 C 
ATOM     32  H   UNL     1     148.388 166.980 184.519  0.00  0.00    +0.037 HD
ATOM     33  H   UNL     1     146.846 165.795 186.945  0.00  0.00    +0.057 HD
ATOM     34  H   UNL     1     146.998 165.142 183.948  0.00  0.00    +0.059 HD
ATOM     35  H   UNL     1     145.444 163.841 186.318  0.00  0.00    +0.064 HD
ATOM     36  H   UNL     1     146.868 162.674 183.855  0.00  0.00    +0.032 HD
ATOM     37  H   UNL     1     145.468 161.891 184.548  0.00  0.00    +0.032 HD
ATOM     38  H   UNL     1     147.470 160.838 185.298  0.00  0.00    +0.060 HD
ATOM     39  H   UNL     1     148.600 163.387 185.526  0.00  0.00    +0.036 HD
ATOM     40  H   UNL     1     149.643 161.233 184.956  0.00  0.00    +0.077 HD
ATOM     41  H   UNL     1     151.877 161.789 185.423  0.00  0.00    +0.068 HD
ATOM     42  H   UNL     1     151.726 161.998 189.250  0.00  0.00    +0.069 HD
ATOM     43  H   UNL     1     153.280 163.972 186.746  0.00  0.00    +0.034 HD
ATOM     44  H   UNL     1     151.812 164.890 187.006  0.00  0.00    +0.034 HD
ATOM     45  H   UNL     1     153.573 165.403 188.621  0.00  0.00    +0.060 HD
ATOM     46  H   UNL     1     151.025 165.534 189.156  0.00  0.00    +0.034 HD
ATOM     47  H   UNL     1     151.289 164.123 190.190  0.00  0.00    +0.034 HD
ATOM     48  H   UNL     1     152.096 167.492 192.213  0.00  0.00    +0.062 HD
ATOM     49  H   UNL     1     149.735 167.060 190.245  0.00  0.00    +0.062 HD
ATOM     50  H   UNL     1     150.413 169.025 192.518  0.00  0.00    +0.069 HD
ATOM     51  H   UNL     1     146.065 169.139 191.672  0.00  0.00    +0.074 HD
ATOM     52  H   UNL     1     144.807 170.325 189.881  0.00  0.00    +0.038 HD
ATOM     53  H   UNL     1     147.427 170.369 188.238  0.00  0.00    +0.057 HD
ATOM     54  H   UNL     1     144.459 170.124 187.495  0.00  0.00    +0.059 HD
ATOM     55  H   UNL     1     146.770 170.955 185.773  0.00  0.00    +0.064 HD
ATOM     56  H   UNL     1     146.543 168.844 184.325  0.00  0.00    +0.032 HD
ATOM     57  H   UNL     1     145.619 168.098 185.609  0.00  0.00    +0.032 HD
ATOM     58  H   UNL     1     147.646 168.345 187.142  0.00  0.00    +0.060 HD
ENDROOT
BRANCH   1  59
ATOM     59  C   UNL     1     149.509 166.588 186.288  0.00  0.00    -0.057 C 
ATOM     60  H   UNL     1     150.167 167.459 186.385  0.00  0.00    +0.024 HD
ATOM     61  H   UNL     1     149.325 166.197 187.289  0.00  0.00    +0.024 HD
ATOM     62  H   UNL     1     150.049 165.818 185.729  0.00  0.00    +0.024 HD
ENDBRANCH   1  59
BRANCH  26  63
ATOM     63  C   UNL     1     146.417 171.542 190.514  0.00  0.00    -0.056 C 
ATOM     64  H   UNL     1     146.232 172.417 189.878  0.00  0.00    +0.024 HD
ATOM     65  H   UNL     1     145.904 171.714 191.464  0.00  0.00    +0.024 HD
ATOM     66  H   UNL     1     147.494 171.499 190.708  0.00  0.00    +0.024 HD
ENDBRANCH  26  63
BRANCH  18  67
ATOM     67  C   UNL     1     153.510 165.444 191.605  0.00  0.00    -0.043 C 
ATOM     68  H   UNL     1     154.364 166.034 191.253  0.00  0.00    +0.027 HD
ATOM     69  H   UNL     1     153.411 165.562 192.689  0.00  0.00    +0.027 HD
ATOM     70  H   UNL     1     153.753 164.395 191.411  0.00  0.00    +0.027 HD
ENDBRANCH  18  67
BRANCH   7  71
ATOM     71  C   UNL     1     148.397 163.115 187.635  0.00  0.00    -0.057 C 
ATOM     72  H   UNL     1     148.236 164.196 187.622  0.00  0.00    +0.023 HD
ATOM     73  H   UNL     1     147.563 162.680 188.196  0.00  0.00    +0.023 HD
ATOM     74  H   UNL     1     149.318 162.949 188.199  0.00  0.00    +0.023 HD
ENDBRANCH   7  71
BRANCH  31  75
ATOM     75  O   UNL     1     148.757 169.313 185.728  0.00  0.00    -0.391 OA
ATOM     76  H   UNL     1     149.573 169.044 186.186  0.00  0.00    +0.210 HD
ENDBRANCH  31  75
BRANCH  25  77
ATOM     77  C   UNL     1     145.644 167.661 190.156  0.00  0.00    +0.020 C 
ATOM     78  H   UNL     1     144.900 167.922 189.396  0.00  0.00    +0.036 HD
BRANCH  77  79
ATOM     79  C   UNL     1     146.639 166.754 189.398  0.00  0.00    -0.057 C 
ATOM     80  H   UNL     1     146.760 165.786 189.897  0.00  0.00    +0.023 HD
ATOM     81  H   UNL     1     147.624 167.226 189.326  0.00  0.00    +0.023 HD
ATOM     82  H   UNL     1     146.308 166.575 188.370  0.00  0.00    +0.023 HD
ENDBRANCH  77  79
BRANCH  77  83
ATOM     83  C   UNL     1     144.971 166.814 191.294  0.00  0.00    +0.067 C 
ATOM     84  H   UNL     1     145.290 165.767 191.196  0.00  0.00    +0.060 HD
BRANCH  83  85
ATOM     85  C   UNL     1     143.416 166.786 191.224  0.00  0.00    -0.017 C 
ATOM     86  H   UNL     1     143.127 166.795 190.170  0.00  0.00    +0.032 HD
BRANCH  85  87
ATOM     87  C   UNL     1     142.837 165.506 191.835  0.00  0.00    -0.060 C 
ATOM     88  H   UNL     1     143.269 164.617 191.365  0.00  0.00    +0.023 HD
ATOM     89  H   UNL     1     143.063 165.434 192.902  0.00  0.00    +0.023 HD
ATOM     90  H   UNL     1     141.748 165.464 191.727  0.00  0.00    +0.023 HD
ENDBRANCH  85  87
BRANCH  85  91
ATOM     91  C   UNL     1     142.733 168.051 191.816  0.00  0.00    -0.041 C 
ATOM     92  H   UNL     1     143.247 168.335 192.743  0.00  0.00    +0.027 HD
ATOM     93  H   UNL     1     141.718 167.764 192.126  0.00  0.00    +0.027 HD
BRANCH  91  94
ATOM     94  C   UNL     1     142.598 169.273 190.904  0.00  0.00    +0.007 C 
ATOM     95  H   UNL     1     143.572 169.478 190.441  0.00  0.00    +0.034 HD
ATOM     96  H   UNL     1     142.335 170.157 191.489  0.00  0.00    +0.034 HD
BRANCH  94  97
ATOM     97  C   UNL     1     141.612 169.119 189.759  0.00  0.00    +0.139 C 
ATOM     98  O   UNL     1     140.403 168.993 189.957  0.00  0.00    -0.297 OA
BRANCH  97  99
ATOM     99  C   UNL     1     142.202 169.085 188.355  0.00  0.00    +0.041 C 
ATOM    100  H   UNL     1     143.134 169.664 188.384  0.00  0.00    +0.040 HD
BRANCH  99 101
ATOM    101  C   UNL     1     141.273 169.811 187.387  0.00  0.00    -0.053 C 
ATOM    102  H   UNL     1     140.954 170.768 187.813  0.00  0.00    +0.024 HD
ATOM    103  H   UNL     1     140.364 169.238 187.180  0.00  0.00    +0.024 HD
ATOM    104  H   UNL     1     141.778 170.019 186.437  0.00  0.00    +0.024 HD
ENDBRANCH  99 101
BRANCH  99 105
ATOM    105  C   UNL     1     142.556 167.637 187.952  0.00  0.00    +0.071 C 
ATOM    106  H   UNL     1     143.018 167.125 188.809  0.00  0.00    +0.061 HD
BRANCH 105 107
ATOM    107  C   UNL     1     141.348 166.800 187.477  0.00  0.00    -0.006 C 
ATOM    108  H   UNL     1     141.323 166.756 186.382  0.00  0.00    +0.033 HD
ATOM    109  H   UNL     1     140.407 167.253 187.808  0.00  0.00    +0.033 HD
BRANCH 107 110
ATOM    110  C   UNL     1     141.441 165.376 187.977  0.00  0.00    -0.067 C 
ATOM    111  C   UNL     1     142.606 164.749 188.186  0.00  0.00    -0.005 C 
ATOM    112  H   UNL     1     140.481 164.897 188.147  0.00  0.00    +0.059 HD
ATOM    113  H   UNL     1     143.531 165.293 187.990  0.00  0.00    +0.078 HD
BRANCH 111 114
ATOM    114  N   UNL     1     142.793 163.448 188.629  0.00  0.00    -0.284 N 
ATOM    115  C   UNL     1     141.838 162.440 188.585  0.00  0.00    +0.206 C 
ATOM    116  O   UNL     1     141.998 161.280 188.949  0.00  0.00    -0.279 OA
ATOM    117  H   UNL     1     140.871 162.760 188.171  0.00  0.00    +0.126 HD
BRANCH 114 118
ATOM    118  C   UNL     1     144.107 163.115 189.167  0.00  0.00    +0.007 C 
ATOM    119  H   UNL     1     144.269 163.688 190.087  0.00  0.00    +0.043 HD
ATOM    120  H   UNL     1     144.913 163.351 188.466  0.00  0.00    +0.043 HD
ATOM    121  H   UNL     1     144.147 162.045 189.390  0.00  0.00    +0.043 HD
ENDBRANCH 114 118
ENDBRANCH 111 114
ENDBRANCH 107 110
ENDBRANCH 105 107
BRANCH 105 122
ATOM    122  O   UNL     1     143.498 167.679 186.859  0.00  0.00    -0.379 OA
BRANCH 122 123
ATOM    123  C   UNL     1     142.906 167.433 185.591  0.00  0.00    +0.037 C 
ATOM    124  H   UNL     1     141.852 167.173 185.698  0.00  0.00    +0.052 HD
ATOM    125  H   UNL     1     143.427 166.596 185.126  0.00  0.00    +0.052 HD
ATOM    126  H   UNL     1     143.013 168.306 184.942  0.00  0.00    +0.052 HD
ENDBRANCH 122 123
ENDBRANCH 105 122
ENDBRANCH  99 105
ENDBRANCH  97  99
ENDBRANCH  94  97
ENDBRANCH  91  94
ENDBRANCH  85  91
ENDBRANCH  83  85
BRANCH  83 127
ATOM    127  O   UNL     1     145.337 167.276 192.601  0.00  0.00    -0.379 OA
BRANCH 127 128
ATOM    128  C   UNL     1     146.224 166.405 193.297  0.00  0.00    +0.037 C 
ATOM    129  H   UNL     1     147.013 166.963 193.807  0.00  0.00    +0.052 HD
ATOM    130  H   UNL     1     146.687 165.739 192.560  0.00  0.00    +0.052 HD
ATOM    131  H   UNL     1     145.681 165.786 194.013  0.00  0.00    +0.052 HD
ENDBRANCH 127 128
ENDBRANCH  83 127
ENDBRANCH  77  83
ENDBRANCH  25  77
BRANCH   9 132
ATOM    132  O   UNL     1     151.016 163.595 185.062  0.00  0.00    -0.384 OA
ATOM    133  H   UNL     1     150.826 164.350 185.648  0.00  0.00    +0.210 HD
ENDBRANCH   9 132
BRANCH  29 134
ATOM    134  O   UNL     1     144.821 170.615 185.146  0.00  0.00    -0.376 OA
BRANCH 134 135
ATOM    135  C   UNL     1     144.362 171.916 185.485  0.00  0.00    +0.037 C 
ATOM    136  H   UNL     1     144.606 172.625 184.686  0.00  0.00    +0.052 HD
ATOM    137  H   UNL     1     144.872 172.233 186.400  0.00  0.00    +0.052 HD
ATOM    138  H   UNL     1     143.284 171.918 185.671  0.00  0.00    +0.052 HD
ENDBRANCH 134 135
ENDBRANCH  29 134
BRANCH   6 139
ATOM    139  O   UNL     1     146.359 161.477 186.930  0.00  0.00    -0.379 OA
BRANCH 139 140
ATOM    140  C   UNL     1     146.249 160.082 187.195  0.00  0.00    +0.037 C 
ATOM    141  H   UNL     1     145.490 159.627 186.549  0.00  0.00    +0.052 HD
ATOM    142  H   UNL     1     145.937 159.960 188.237  0.00  0.00    +0.052 HD
ATOM    143  H   UNL     1     147.212 159.582 187.062  0.00  0.00    +0.052 HD
ENDBRANCH 139 140
ENDBRANCH   6 139
BRANCH  16 144
ATOM    144  O   UNL     1     153.684 163.505 189.442  0.00  0.00    -0.379 OA
BRANCH 144 145
ATOM    145  C   UNL     1     154.977 163.309 188.889  0.00  0.00    +0.037 C 
ATOM    146  H   UNL     1     155.277 162.262 188.965  0.00  0.00    +0.052 HD
ATOM    147  H   UNL     1     155.017 163.642 187.849  0.00  0.00    +0.052 HD
ATOM    148  H   UNL     1     155.685 163.904 189.471  0.00  0.00    +0.052 HD
ENDBRANCH 144 145
ENDBRANCH  16 144
BRANCH   4 149
ATOM    149  O   UNL     1     144.574 164.143 184.448  0.00  0.00    -0.376 OA
BRANCH 149 150
ATOM    150  C   UNL     1     143.438 163.405 184.883  0.00  0.00    +0.037 C 
ATOM    151  H   UNL     1     143.406 162.462 184.327  0.00  0.00    +0.052 HD
ATOM    152  H   UNL     1     143.517 163.173 185.950  0.00  0.00    +0.052 HD
ATOM    153  H   UNL     1     142.514 163.955 184.681  0.00  0.00    +0.052 HD
ENDBRANCH 149 150
ENDBRANCH   4 149
TORSDOF 33
ENDMDL
MODEL 5
REMARK VINA RESULT:      -4.9      1.435      2.162
REMARK  Name = Sphinxolide B_conf3
REMARK  33 active torsions:
REMARK  status: ('A' for Active; 'I' for Inactive)
REMARK    1  A    between atoms: C_1  and  C_2
REMARK    2  A    between atoms: C_5  and  O_67
REMARK    3  A    between atoms: C_7  and  O_65
REMARK    4  A    between atoms: C_8  and  C_64
REMARK    5  A    between atoms: C_10  and  O_63
REMARK    6  A    between atoms: C_17  and  O_61
REMARK    7  A    between atoms: C_19  and  C_60
REMARK    8  A    between atoms: C_26  and  C_37
REMARK    9  A    between atoms: C_27  and  C_36
REMARK   10  A    between atoms: C_30  and  O_34
REMARK   11  A    between atoms: C_32  and  O_33
REMARK   12  A    between atoms: O_34  and  C_35
REMARK   13  A    between atoms: C_37  and  C_38
REMARK   14  A    between atoms: C_37  and  C_39
REMARK   15  A    between atoms: C_39  and  C_40
REMARK   16  A    between atoms: C_39  and  O_58
REMARK   17  A    between atoms: C_40  and  C_41
REMARK   18  A    between atoms: C_40  and  C_42
REMARK   19  A    between atoms: C_42  and  C_43
REMARK   20  A    between atoms: C_43  and  C_44
REMARK   21  A    between atoms: C_44  and  C_46
REMARK   22  A    between atoms: C_46  and  C_47
REMARK   23  A    between atoms: C_46  and  C_48
REMARK   24  A    between atoms: C_48  and  C_49
REMARK   25  A    between atoms: C_48  and  O_56
REMARK   26  A    between atoms: C_49  and  C_50
REMARK   27  A    between atoms: C_51  and  N_52
REMARK   28  A    between atoms: N_52  and  C_53
REMARK   29  A    between atoms: O_56  and  C_57
REMARK   30  A    between atoms: O_58  and  C_59
REMARK   31  A    between atoms: O_61  and  C_62
REMARK   32  A    between atoms: O_65  and  C_66
REMARK   33  A    between atoms: O_67  and  C_68
REMARK                            x       y       z     vdW  Elec       q    Type
REMARK                         _______ _______ _______ _____ _____    ______ ____
ROOT
ATOM      1  C   UNL     1     148.026 168.196 187.499  0.00  0.00    +0.000 C 
ATOM      2  C   UNL     1     148.129 166.859 186.801  0.00  0.00    -0.080 C 
ATOM      3  C   UNL     1     148.785 166.682 185.641  0.00  0.00    -0.059 C 
ATOM      4  C   UNL     1     148.991 165.356 184.951  0.00  0.00    +0.079 C 
ATOM      5  C   UNL     1     150.490 165.061 184.724  0.00  0.00    +0.004 C 
ATOM      6  C   UNL     1     151.247 164.346 185.868  0.00  0.00    +0.067 C 
ATOM      7  C   UNL     1     151.295 165.168 187.195  0.00  0.00    +0.022 C 
ATOM      8  C   UNL     1     152.768 165.369 187.685  0.00  0.00    +0.138 C 
ATOM      9  C   UNL     1     153.004 166.511 188.697  0.00  0.00    +0.114 C 
ATOM     10  C   UNL     1     152.586 166.091 190.081  0.00  0.00    -0.029 C 
ATOM     11  C   UNL     1     152.785 164.798 190.414  0.00  0.00    +0.024 C 
ATOM     12  C   UNL     1     153.334 163.804 189.468  0.00  0.00    +0.332 C 
ATOM     13  O   UNL     1     153.733 162.716 189.863  0.00  0.00    -0.246 OA
ATOM     14  O   UNL     1     153.364 164.142 188.154  0.00  0.00    -0.455 OA
ATOM     15  C   UNL     1     152.043 167.170 191.001  0.00  0.00    -0.002 C 
ATOM     16  C   UNL     1     151.537 166.834 192.426  0.00  0.00    +0.066 C 
ATOM     17  C   UNL     1     150.217 166.005 192.430  0.00  0.00    -0.005 C 
ATOM     18  C   UNL     1     149.448 166.055 193.751  0.00  0.00    -0.070 C 
ATOM     19  C   UNL     1     148.110 166.153 193.899  0.00  0.00    -0.062 C 
ATOM     20  C   UNL     1     147.062 166.150 192.896  0.00  0.00    -0.055 C 
ATOM     21  C   UNL     1     145.775 166.143 193.282  0.00  0.00    +0.023 C 
ATOM     22  C   UNL     1     144.580 165.929 192.446  0.00  0.00    +0.332 C 
ATOM     23  O   UNL     1     143.517 165.610 192.961  0.00  0.00    -0.246 OA
ATOM     24  O   UNL     1     144.817 166.055 191.118  0.00  0.00    -0.457 OA
ATOM     25  C   UNL     1     143.801 165.481 190.243  0.00  0.00    +0.114 C 
ATOM     26  C   UNL     1     142.847 166.577 189.673  0.00  0.00    +0.012 C 
ATOM     27  C   UNL     1     143.568 167.699 188.959  0.00  0.00    -0.079 C 
ATOM     28  C   UNL     1     143.498 167.937 187.638  0.00  0.00    -0.059 C 
ATOM     29  C   UNL     1     144.216 169.051 186.921  0.00  0.00    +0.079 C 
ATOM     30  C   UNL     1     145.670 168.680 186.580  0.00  0.00    +0.004 C 
ATOM     31  C   UNL     1     146.568 168.594 187.817  0.00  0.00    +0.064 C 
ATOM     32  H   UNL     1     148.477 168.981 186.875  0.00  0.00    +0.037 HD
ATOM     33  H   UNL     1     147.673 166.007 187.300  0.00  0.00    +0.057 HD
ATOM     34  H   UNL     1     149.227 167.543 185.141  0.00  0.00    +0.059 HD
ATOM     35  H   UNL     1     148.520 164.527 185.492  0.00  0.00    +0.064 HD
ATOM     36  H   UNL     1     151.022 165.985 184.457  0.00  0.00    +0.032 HD
ATOM     37  H   UNL     1     150.566 164.416 183.837  0.00  0.00    +0.032 HD
ATOM     38  H   UNL     1     152.269 164.198 185.490  0.00  0.00    +0.060 HD
ATOM     39  H   UNL     1     150.951 166.180 186.959  0.00  0.00    +0.036 HD
ATOM     40  H   UNL     1     153.348 165.655 186.796  0.00  0.00    +0.077 HD
ATOM     41  H   UNL     1     154.079 166.735 188.749  0.00  0.00    +0.068 HD
ATOM     42  H   UNL     1     152.587 164.401 191.401  0.00  0.00    +0.069 HD
ATOM     43  H   UNL     1     152.835 167.926 191.098  0.00  0.00    +0.034 HD
ATOM     44  H   UNL     1     151.213 167.671 190.491  0.00  0.00    +0.034 HD
ATOM     45  H   UNL     1     151.326 167.789 192.930  0.00  0.00    +0.060 HD
ATOM     46  H   UNL     1     149.574 166.370 191.621  0.00  0.00    +0.034 HD
ATOM     47  H   UNL     1     150.441 164.952 192.227  0.00  0.00    +0.034 HD
ATOM     48  H   UNL     1     147.737 166.180 194.925  0.00  0.00    +0.062 HD
ATOM     49  H   UNL     1     147.331 166.061 191.851  0.00  0.00    +0.062 HD
ATOM     50  H   UNL     1     145.518 166.186 194.337  0.00  0.00    +0.069 HD
ATOM     51  H   UNL     1     143.183 164.799 190.836  0.00  0.00    +0.074 HD
ATOM     52  H   UNL     1     142.152 166.093 188.976  0.00  0.00    +0.038 HD
ATOM     53  H   UNL     1     144.178 168.350 189.587  0.00  0.00    +0.057 HD
ATOM     54  H   UNL     1     142.879 167.302 187.011  0.00  0.00    +0.059 HD
ATOM     55  H   UNL     1     144.165 169.963 187.526  0.00  0.00    +0.064 HD
ATOM     56  H   UNL     1     146.079 169.434 185.895  0.00  0.00    +0.032 HD
ATOM     57  H   UNL     1     145.679 167.737 186.022  0.00  0.00    +0.032 HD
ATOM     58  H   UNL     1     146.173 167.859 188.524  0.00  0.00    +0.060 HD
ENDROOT
BRANCH   1  59
ATOM     59  C   UNL     1     148.843 168.138 188.797  0.00  0.00    -0.057 C 
ATOM     60  H   UNL     1     148.622 167.231 189.370  0.00  0.00    +0.024 HD
ATOM     61  H   UNL     1     149.910 168.142 188.579  0.00  0.00    +0.024 HD
ATOM     62  H   UNL     1     148.635 169.001 189.438  0.00  0.00    +0.024 HD
ENDBRANCH   1  59
BRANCH  26  63
ATOM     63  C   UNL     1     141.974 167.202 190.769  0.00  0.00    -0.056 C 
ATOM     64  H   UNL     1     142.159 168.280 190.850  0.00  0.00    +0.024 HD
ATOM     65  H   UNL     1     140.913 167.069 190.539  0.00  0.00    +0.024 HD
ATOM     66  H   UNL     1     142.170 166.761 191.753  0.00  0.00    +0.024 HD
ENDBRANCH  26  63
BRANCH  18  67
ATOM     67  C   UNL     1     150.284 165.916 195.007  0.00  0.00    -0.043 C 
ATOM     68  H   UNL     1     151.053 165.147 194.868  0.00  0.00    +0.027 HD
ATOM     69  H   UNL     1     150.764 166.867 195.260  0.00  0.00    +0.027 HD
ATOM     70  H   UNL     1     149.690 165.609 195.875  0.00  0.00    +0.027 HD
ENDBRANCH  18  67
BRANCH   7  71
ATOM     71  C   UNL     1     150.347 164.594 188.256  0.00  0.00    -0.057 C 
ATOM     72  H   UNL     1     149.479 165.241 188.413  0.00  0.00    +0.023 HD
ATOM     73  H   UNL     1     149.958 163.611 187.972  0.00  0.00    +0.023 HD
ATOM     74  H   UNL     1     150.840 164.503 189.228  0.00  0.00    +0.023 HD
ENDBRANCH   7  71
BRANCH  31  75
ATOM     75  O   UNL     1     146.558 169.865 188.480  0.00  0.00    -0.391 OA
ATOM     76  H   UNL     1     147.427 170.282 188.342  0.00  0.00    +0.210 HD
ENDBRANCH  31  75
BRANCH  25  77
ATOM     77  C   UNL     1     144.535 164.623 189.163  0.00  0.00    +0.020 C 
ATOM     78  H   UNL     1     144.836 165.292 188.350  0.00  0.00    +0.036 HD
BRANCH  77  79
ATOM     79  C   UNL     1     145.876 164.081 189.707  0.00  0.00    -0.057 C 
ATOM     80  H   UNL     1     146.227 164.664 190.564  0.00  0.00    +0.023 HD
ATOM     81  H   UNL     1     146.651 164.106 188.935  0.00  0.00    +0.023 HD
ATOM     82  H   UNL     1     145.783 163.034 190.015  0.00  0.00    +0.023 HD
ENDBRANCH  77  79
BRANCH  77  83
ATOM     83  C   UNL     1     143.711 163.417 188.585  0.00  0.00    +0.067 C 
ATOM     84  H   UNL     1     144.371 162.542 188.502  0.00  0.00    +0.060 HD
BRANCH  83  85
ATOM     85  C   UNL     1     143.157 163.661 187.152  0.00  0.00    -0.017 C 
ATOM     86  H   UNL     1     143.218 162.718 186.603  0.00  0.00    +0.032 HD
BRANCH  85  87
ATOM     87  C   UNL     1     141.681 164.071 187.169  0.00  0.00    -0.060 C 
ATOM     88  H   UNL     1     141.109 163.510 186.424  0.00  0.00    +0.023 HD
ATOM     89  H   UNL     1     141.219 163.862 188.138  0.00  0.00    +0.023 HD
ATOM     90  H   UNL     1     141.557 165.140 186.971  0.00  0.00    +0.023 HD
ENDBRANCH  85  87
BRANCH  85  91
ATOM     91  C   UNL     1     144.006 164.650 186.304  0.00  0.00    -0.041 C 
ATOM     92  H   UNL     1     143.996 165.635 186.786  0.00  0.00    +0.027 HD
ATOM     93  H   UNL     1     143.487 164.793 185.345  0.00  0.00    +0.027 HD
BRANCH  91  94
ATOM     94  C   UNL     1     145.447 164.246 185.981  0.00  0.00    +0.007 C 
ATOM     95  H   UNL     1     145.902 163.811 186.880  0.00  0.00    +0.034 HD
ATOM     96  H   UNL     1     146.040 165.126 185.724  0.00  0.00    +0.034 HD
BRANCH  94  97
ATOM     97  C   UNL     1     145.596 163.204 184.886  0.00  0.00    +0.139 C 
ATOM     98  O   UNL     1     144.687 162.962 184.092  0.00  0.00    -0.297 OA
BRANCH  97  99
ATOM     99  C   UNL     1     146.916 162.443 184.849  0.00  0.00    +0.041 C 
ATOM    100  H   UNL     1     147.708 163.161 185.094  0.00  0.00    +0.040 HD
BRANCH  99 101
ATOM    101  C   UNL     1     147.194 161.960 183.429  0.00  0.00    -0.053 C 
ATOM    102  H   UNL     1     146.716 162.625 182.702  0.00  0.00    +0.024 HD
ATOM    103  H   UNL     1     146.794 160.957 183.249  0.00  0.00    +0.024 HD
ATOM    104  H   UNL     1     148.269 161.950 183.219  0.00  0.00    +0.024 HD
ENDBRANCH  99 101
BRANCH  99 105
ATOM    105  C   UNL     1     146.931 161.336 185.926  0.00  0.00    +0.071 C 
ATOM    106  H   UNL     1     147.507 160.476 185.554  0.00  0.00    +0.061 HD
BRANCH 105 107
ATOM    107  C   UNL     1     147.534 161.778 187.278  0.00  0.00    -0.006 C 
ATOM    108  H   UNL     1     147.184 162.784 187.539  0.00  0.00    +0.033 HD
ATOM    109  H   UNL     1     148.627 161.816 187.223  0.00  0.00    +0.033 HD
BRANCH 107 110
ATOM    110  C   UNL     1     147.104 160.854 188.394  0.00  0.00    -0.067 C 
ATOM    111  C   UNL     1     147.826 159.794 188.785  0.00  0.00    -0.005 C 
ATOM    112  H   UNL     1     146.154 161.115 188.852  0.00  0.00    +0.059 HD
ATOM    113  H   UNL     1     148.768 159.592 188.276  0.00  0.00    +0.078 HD
BRANCH 111 114
ATOM    114  N   UNL     1     147.511 158.886 189.785  0.00  0.00    -0.284 N 
ATOM    115  C   UNL     1     146.281 158.788 190.423  0.00  0.00    +0.206 C 
ATOM    116  O   UNL     1     145.982 157.974 191.289  0.00  0.00    -0.279 OA
ATOM    117  H   UNL     1     145.541 159.525 190.079  0.00  0.00    +0.126 HD
BRANCH 114 118
ATOM    118  C   UNL     1     148.557 157.949 190.180  0.00  0.00    +0.007 C 
ATOM    119  H   UNL     1     149.495 158.242 189.697  0.00  0.00    +0.043 HD
ATOM    120  H   UNL     1     148.323 156.921 189.888  0.00  0.00    +0.043 HD
ATOM    121  H   UNL     1     148.679 157.980 191.267  0.00  0.00    +0.043 HD
ENDBRANCH 114 118
ENDBRANCH 111 114
ENDBRANCH 107 110
ENDBRANCH 105 107
BRANCH 105 122
ATOM    122  O   UNL     1     145.572 160.923 186.183  0.00  0.00    -0.379 OA
BRANCH 122 123
ATOM    123  C   UNL     1     145.246 159.664 185.612  0.00  0.00    +0.037 C 
ATOM    124  H   UNL     1     145.287 159.707 184.524  0.00  0.00    +0.052 HD
ATOM    125  H   UNL     1     144.229 159.405 185.913  0.00  0.00    +0.052 HD
ATOM    126  H   UNL     1     145.920 158.888 185.983  0.00  0.00    +0.052 HD
ENDBRANCH 122 123
ENDBRANCH 105 122
ENDBRANCH  99 105
ENDBRANCH  97  99
ENDBRANCH  94  97
ENDBRANCH  91  94
ENDBRANCH  85  91
ENDBRANCH  83  85
BRANCH  83 127
ATOM    127  O   UNL     1     142.603 163.068 189.424  0.00  0.00    -0.379 OA
BRANCH 127 128
ATOM    128  C   UNL     1     142.483 161.671 189.677  0.00  0.00    +0.037 C 
ATOM    129  H   UNL     1     143.042 161.378 190.570  0.00  0.00    +0.052 HD
ATOM    130  H   UNL     1     142.899 161.138 188.814  0.00  0.00    +0.052 HD
ATOM    131  H   UNL     1     141.437 161.381 189.778  0.00  0.00    +0.052 HD
ENDBRANCH 127 128
ENDBRANCH  83 127
ENDBRANCH  77  83
ENDBRANCH  25  77
BRANCH   9 132
ATOM    132  O   UNL     1     152.351 167.707 188.302  0.00  0.00    -0.384 OA
ATOM    133  H   UNL     1     153.018 168.280 187.883  0.00  0.00    +0.210 HD
ENDBRANCH   9 132
BRANCH  29 134
ATOM    134  O   UNL     1     143.490 169.250 185.698  0.00  0.00    -0.376 OA
BRANCH 134 135
ATOM    135  C   UNL     1     144.281 169.827 184.669  0.00  0.00    +0.037 C 
ATOM    136  H   UNL     1     145.279 169.375 184.658  0.00  0.00    +0.052 HD
ATOM    137  H   UNL     1     144.386 170.897 184.874  0.00  0.00    +0.052 HD
ATOM    138  H   UNL     1     143.805 169.708 183.690  0.00  0.00    +0.052 HD
ENDBRANCH 134 135
ENDBRANCH  29 134
BRANCH   6 139
ATOM    139  O   UNL     1     150.615 163.070 186.034  0.00  0.00    -0.379 OA
BRANCH 139 140
ATOM    140  C   UNL     1     150.845 162.183 184.944  0.00  0.00    +0.037 C 
ATOM    141  H   UNL     1     151.864 162.302 184.560  0.00  0.00    +0.052 HD
ATOM    142  H   UNL     1     150.140 162.438 184.146  0.00  0.00    +0.052 HD
ATOM    143  H   UNL     1     150.669 161.145 185.241  0.00  0.00    +0.052 HD
ENDBRANCH 139 140
ENDBRANCH   6 139
BRANCH  16 144
ATOM    144  O   UNL     1     152.537 166.126 193.178  0.00  0.00    -0.379 OA
BRANCH 144 145
ATOM    145  C   UNL     1     153.659 166.919 193.536  0.00  0.00    +0.037 C 
ATOM    146  H   UNL     1     153.345 167.819 194.070  0.00  0.00    +0.052 HD
ATOM    147  H   UNL     1     154.372 166.348 194.137  0.00  0.00    +0.052 HD
ATOM    148  H   UNL     1     154.157 167.233 192.614  0.00  0.00    +0.052 HD
ENDBRANCH 144 145
ENDBRANCH  16 144
BRANCH   4 149
ATOM    149  O   UNL     1     148.400 165.490 183.648  0.00  0.00    -0.376 OA
BRANCH 149 150
ATOM    150  C   UNL     1     149.259 165.033 182.611  0.00  0.00    +0.037 C 
ATOM    151  H   UNL     1     149.805 164.157 182.977  0.00  0.00    +0.052 HD
ATOM    152  H   UNL     1     148.676 164.732 181.734  0.00  0.00    +0.052 HD
ATOM    153  H   UNL     1     149.987 165.803 182.337  0.00  0.00    +0.052 HD
ENDBRANCH 149 150
ENDBRANCH   4 149
TORSDOF 33
ENDMDL
MODEL 6
REMARK VINA RESULT:      -4.8     11.965     15.187
REMARK  Name = Sphinxolide B_conf3
REMARK  33 active torsions:
REMARK  status: ('A' for Active; 'I' for Inactive)
REMARK    1  A    between atoms: C_1  and  C_2
REMARK    2  A    between atoms: C_5  and  O_67
REMARK    3  A    between atoms: C_7  and  O_65
REMARK    4  A    between atoms: C_8  and  C_64
REMARK    5  A    between atoms: C_10  and  O_63
REMARK    6  A    between atoms: C_17  and  O_61
REMARK    7  A    between atoms: C_19  and  C_60
REMARK    8  A    between atoms: C_26  and  C_37
REMARK    9  A    between atoms: C_27  and  C_36
REMARK   10  A    between atoms: C_30  and  O_34
REMARK   11  A    between atoms: C_32  and  O_33
REMARK   12  A    between atoms: O_34  and  C_35
REMARK   13  A    between atoms: C_37  and  C_38
REMARK   14  A    between atoms: C_37  and  C_39
REMARK   15  A    between atoms: C_39  and  C_40
REMARK   16  A    between atoms: C_39  and  O_58
REMARK   17  A    between atoms: C_40  and  C_41
REMARK   18  A    between atoms: C_40  and  C_42
REMARK   19  A    between atoms: C_42  and  C_43
REMARK   20  A    between atoms: C_43  and  C_44
REMARK   21  A    between atoms: C_44  and  C_46
REMARK   22  A    between atoms: C_46  and  C_47
REMARK   23  A    between atoms: C_46  and  C_48
REMARK   24  A    between atoms: C_48  and  C_49
REMARK   25  A    between atoms: C_48  and  O_56
REMARK   26  A    between atoms: C_49  and  C_50
REMARK   27  A    between atoms: C_51  and  N_52
REMARK   28  A    between atoms: N_52  and  C_53
REMARK   29  A    between atoms: O_56  and  C_57
REMARK   30  A    between atoms: O_58  and  C_59
REMARK   31  A    between atoms: O_61  and  C_62
REMARK   32  A    between atoms: O_65  and  C_66
REMARK   33  A    between atoms: O_67  and  C_68
REMARK                            x       y       z     vdW  Elec       q    Type
REMARK                         _______ _______ _______ _____ _____    ______ ____
ROOT
ATOM      1  C   UNL     1     152.886 174.446 181.438  0.00  0.00    +0.000 C 
ATOM      2  C   UNL     1     153.790 174.908 180.319  0.00  0.00    -0.080 C 
ATOM      3  C   UNL     1     154.394 176.109 180.306  0.00  0.00    -0.059 C 
ATOM      4  C   UNL     1     155.371 176.581 179.258  0.00  0.00    +0.079 C 
ATOM      5  C   UNL     1     156.723 176.990 179.884  0.00  0.00    +0.004 C 
ATOM      6  C   UNL     1     157.779 175.874 180.068  0.00  0.00    +0.067 C 
ATOM      7  C   UNL     1     157.325 174.736 181.035  0.00  0.00    +0.022 C 
ATOM      8  C   UNL     1     158.358 174.530 182.193  0.00  0.00    +0.138 C 
ATOM      9  C   UNL     1     157.846 173.784 183.444  0.00  0.00    +0.114 C 
ATOM     10  C   UNL     1     157.804 172.299 183.198  0.00  0.00    -0.029 C 
ATOM     11  C   UNL     1     158.772 171.782 182.413  0.00  0.00    +0.024 C 
ATOM     12  C   UNL     1     159.806 172.615 181.764  0.00  0.00    +0.332 C 
ATOM     13  O   UNL     1     160.803 172.106 181.270  0.00  0.00    -0.246 OA
ATOM     14  O   UNL     1     159.597 173.956 181.730  0.00  0.00    -0.455 OA
ATOM     15  C   UNL     1     156.721 171.507 183.910  0.00  0.00    -0.002 C 
ATOM     16  C   UNL     1     156.560 169.983 183.684  0.00  0.00    +0.066 C 
ATOM     17  C   UNL     1     156.046 169.623 182.257  0.00  0.00    -0.005 C 
ATOM     18  C   UNL     1     155.436 168.225 182.143  0.00  0.00    -0.070 C 
ATOM     19  C   UNL     1     154.333 167.885 181.444  0.00  0.00    -0.062 C 
ATOM     20  C   UNL     1     153.500 168.691 180.572  0.00  0.00    -0.055 C 
ATOM     21  C   UNL     1     152.505 168.109 179.881  0.00  0.00    +0.023 C 
ATOM     22  C   UNL     1     151.692 168.694 178.799  0.00  0.00    +0.332 C 
ATOM     23  O   UNL     1     151.070 167.967 178.036  0.00  0.00    -0.246 OA
ATOM     24  O   UNL     1     151.776 170.044 178.724  0.00  0.00    -0.457 OA
ATOM     25  C   UNL     1     151.327 170.631 177.467  0.00  0.00    +0.114 C 
ATOM     26  C   UNL     1     149.889 171.224 177.591  0.00  0.00    +0.012 C 
ATOM     27  C   UNL     1     149.739 172.229 178.713  0.00  0.00    -0.079 C 
ATOM     28  C   UNL     1     149.514 173.542 178.540  0.00  0.00    -0.059 C 
ATOM     29  C   UNL     1     149.368 174.548 179.652  0.00  0.00    +0.079 C 
ATOM     30  C   UNL     1     150.729 175.047 180.167  0.00  0.00    +0.004 C 
ATOM     31  C   UNL     1     151.505 173.974 180.936  0.00  0.00    +0.064 C 
ATOM     32  H   UNL     1     152.738 175.262 182.161  0.00  0.00    +0.037 HD
ATOM     33  H   UNL     1     153.974 174.202 179.512  0.00  0.00    +0.057 HD
ATOM     34  H   UNL     1     154.193 176.816 181.110  0.00  0.00    +0.059 HD
ATOM     35  H   UNL     1     155.530 175.835 178.470  0.00  0.00    +0.064 HD
ATOM     36  H   UNL     1     156.556 177.495 180.846  0.00  0.00    +0.032 HD
ATOM     37  H   UNL     1     157.170 177.751 179.230  0.00  0.00    +0.032 HD
ATOM     38  H   UNL     1     158.663 176.380 180.482  0.00  0.00    +0.060 HD
ATOM     39  H   UNL     1     156.420 175.087 181.542  0.00  0.00    +0.036 HD
ATOM     40  H   UNL     1     158.617 175.537 182.551  0.00  0.00    +0.077 HD
ATOM     41  H   UNL     1     158.546 173.944 184.277  0.00  0.00    +0.068 HD
ATOM     42  H   UNL     1     158.882 170.723 182.223  0.00  0.00    +0.069 HD
ATOM     43  H   UNL     1     156.869 171.671 184.986  0.00  0.00    +0.034 HD
ATOM     44  H   UNL     1     155.752 171.957 183.669  0.00  0.00    +0.034 HD
ATOM     45  H   UNL     1     155.807 169.626 184.402  0.00  0.00    +0.060 HD
ATOM     46  H   UNL     1     155.303 170.370 181.955  0.00  0.00    +0.034 HD
ATOM     47  H   UNL     1     156.875 169.672 181.543  0.00  0.00    +0.034 HD
ATOM     48  H   UNL     1     154.041 166.833 181.482  0.00  0.00    +0.062 HD
ATOM     49  H   UNL     1     153.748 169.734 180.420  0.00  0.00    +0.062 HD
ATOM     50  H   UNL     1     152.295 167.050 180.007  0.00  0.00    +0.069 HD
ATOM     51  H   UNL     1     151.280 169.837 176.715  0.00  0.00    +0.074 HD
ATOM     52  H   UNL     1     149.637 171.706 176.639  0.00  0.00    +0.038 HD
ATOM     53  H   UNL     1     149.819 171.829 179.724  0.00  0.00    +0.057 HD
ATOM     54  H   UNL     1     149.417 173.942 177.535  0.00  0.00    +0.059 HD
ATOM     55  H   UNL     1     148.768 174.111 180.458  0.00  0.00    +0.064 HD
ATOM     56  H   UNL     1     150.566 175.909 180.828  0.00  0.00    +0.032 HD
ATOM     57  H   UNL     1     151.316 175.426 179.324  0.00  0.00    +0.032 HD
ATOM     58  H   UNL     1     151.666 173.095 180.305  0.00  0.00    +0.060 HD
ENDROOT
BRANCH   1  59
ATOM     59  C   UNL     1     153.582 173.305 182.194  0.00  0.00    -0.057 C 
ATOM     60  H   UNL     1     154.557 173.069 181.755  0.00  0.00    +0.024 HD
ATOM     61  H   UNL     1     153.743 173.577 183.236  0.00  0.00    +0.024 HD
ATOM     62  H   UNL     1     152.977 172.392 182.182  0.00  0.00    +0.024 HD
ENDBRANCH   1  59
BRANCH  26  63
ATOM     63  C   UNL     1     148.834 170.128 177.799  0.00  0.00    -0.056 C 
ATOM     64  H   UNL     1     147.836 170.487 177.517  0.00  0.00    +0.024 HD
ATOM     65  H   UNL     1     149.056 169.258 177.175  0.00  0.00    +0.024 HD
ATOM     66  H   UNL     1     148.783 169.799 178.842  0.00  0.00    +0.024 HD
ENDBRANCH  26  63
BRANCH  18  67
ATOM     67  C   UNL     1     156.196 167.114 182.837  0.00  0.00    -0.043 C 
ATOM     68  H   UNL     1     157.275 167.240 182.687  0.00  0.00    +0.027 HD
ATOM     69  H   UNL     1     155.979 167.109 183.910  0.00  0.00    +0.027 HD
ATOM     70  H   UNL     1     155.941 166.123 182.447  0.00  0.00    +0.027 HD
ENDBRANCH  18  67
BRANCH   7  71
ATOM     71  C   UNL     1     156.960 173.453 180.276  0.00  0.00    -0.057 C 
ATOM     72  H   UNL     1     157.211 173.530 179.214  0.00  0.00    +0.023 HD
ATOM     73  H   UNL     1     157.496 172.580 180.663  0.00  0.00    +0.023 HD
ATOM     74  H   UNL     1     155.887 173.250 180.323  0.00  0.00    +0.023 HD
ENDBRANCH   7  71
BRANCH  31  75
ATOM     75  O   UNL     1     150.714 173.550 182.054  0.00  0.00    -0.391 OA
ATOM     76  H   UNL     1     150.446 174.343 182.550  0.00  0.00    +0.210 HD
ENDBRANCH  31  75
BRANCH  25  77
ATOM     77  C   UNL     1     152.418 171.649 177.003  0.00  0.00    +0.020 C 
ATOM     78  H   UNL     1     151.916 172.585 176.742  0.00  0.00    +0.036 HD
BRANCH  77  79
ATOM     79  C   UNL     1     153.341 172.042 178.178  0.00  0.00    -0.057 C 
ATOM     80  H   UNL     1     153.190 171.389 179.044  0.00  0.00    +0.023 HD
ATOM     81  H   UNL     1     153.158 173.075 178.492  0.00  0.00    +0.023 HD
ATOM     82  H   UNL     1     154.396 171.992 177.887  0.00  0.00    +0.023 HD
ENDBRANCH  77  79
BRANCH  77  83
ATOM     83  C   UNL     1     153.317 171.174 175.806  0.00  0.00    +0.067 C 
ATOM     84  H   UNL     1     152.786 171.366 174.863  0.00  0.00    +0.060 HD
BRANCH  83  85
ATOM     85  C   UNL     1     153.621 169.648 175.811  0.00  0.00    -0.017 C 
ATOM     86  H   UNL     1     153.041 169.193 176.619  0.00  0.00    +0.032 HD
BRANCH  85  87
ATOM     87  C   UNL     1     153.180 168.969 174.511  0.00  0.00    -0.060 C 
ATOM     88  H   UNL     1     153.885 168.185 174.219  0.00  0.00    +0.023 HD
ATOM     89  H   UNL     1     152.205 168.484 174.623  0.00  0.00    +0.023 HD
ATOM     90  H   UNL     1     153.095 169.687 173.689  0.00  0.00    +0.023 HD
ENDBRANCH  85  87
BRANCH  85  91
ATOM     91  C   UNL     1     155.096 169.297 176.157  0.00  0.00    -0.041 C 
ATOM     92  H   UNL     1     155.702 170.210 176.110  0.00  0.00    +0.027 HD
ATOM     93  H   UNL     1     155.480 168.655 175.352  0.00  0.00    +0.027 HD
BRANCH  91  94
ATOM     94  C   UNL     1     155.357 168.569 177.478  0.00  0.00    +0.007 C 
ATOM     95  H   UNL     1     155.701 167.551 177.259  0.00  0.00    +0.034 HD
ATOM     96  H   UNL     1     154.431 168.472 178.049  0.00  0.00    +0.034 HD
BRANCH  94  97
ATOM     97  C   UNL     1     156.425 169.194 178.359  0.00  0.00    +0.139 C 
ATOM     98  O   UNL     1     156.314 170.338 178.801  0.00  0.00    -0.297 OA
BRANCH  97  99
ATOM     99  C   UNL     1     157.661 168.345 178.634  0.00  0.00    +0.041 C 
ATOM    100  H   UNL     1     158.171 168.200 177.674  0.00  0.00    +0.040 HD
BRANCH  99 101
ATOM    101  C   UNL     1     157.239 166.959 179.112  0.00  0.00    -0.053 C 
ATOM    102  H   UNL     1     156.508 166.525 178.421  0.00  0.00    +0.024 HD
ATOM    103  H   UNL     1     156.763 166.990 180.097  0.00  0.00    +0.024 HD
ATOM    104  H   UNL     1     158.098 166.281 179.161  0.00  0.00    +0.024 HD
ENDBRANCH  99 101
BRANCH  99 105
ATOM    105  C   UNL     1     158.629 169.091 179.578  0.00  0.00    +0.071 C 
ATOM    106  H   UNL     1     158.161 170.029 179.911  0.00  0.00    +0.061 HD
BRANCH 105 107
ATOM    107  C   UNL     1     159.043 168.282 180.827  0.00  0.00    -0.006 C 
ATOM    108  H   UNL     1     159.028 167.208 180.606  0.00  0.00    +0.033 HD
ATOM    109  H   UNL     1     158.345 168.456 181.652  0.00  0.00    +0.033 HD
BRANCH 107 110
ATOM    110  C   UNL     1     160.450 168.627 181.258  0.00  0.00    -0.067 C 
ATOM    111  C   UNL     1     160.916 168.388 182.491  0.00  0.00    -0.005 C 
ATOM    112  H   UNL     1     161.054 169.095 180.485  0.00  0.00    +0.059 HD
ATOM    113  H   UNL     1     160.250 167.919 183.216  0.00  0.00    +0.078 HD
BRANCH 111 114
ATOM    114  N   UNL     1     162.180 168.679 182.983  0.00  0.00    -0.284 N 
ATOM    115  C   UNL     1     162.826 169.904 182.866  0.00  0.00    +0.206 C 
ATOM    116  O   UNL     1     163.931 170.181 183.318  0.00  0.00    -0.279 OA
ATOM    117  H   UNL     1     162.248 170.661 182.318  0.00  0.00    +0.126 HD
BRANCH 114 118
ATOM    118  C   UNL     1     162.875 167.610 183.693  0.00  0.00    +0.007 C 
ATOM    119  H   UNL     1     163.027 167.917 184.734  0.00  0.00    +0.043 HD
ATOM    120  H   UNL     1     163.851 167.388 183.252  0.00  0.00    +0.043 HD
ATOM    121  H   UNL     1     162.268 166.701 183.663  0.00  0.00    +0.043 HD
ENDBRANCH 114 118
ENDBRANCH 111 114
ENDBRANCH 107 110
ENDBRANCH 105 107
BRANCH 105 122
ATOM    122  O   UNL     1     159.839 169.396 178.850  0.00  0.00    -0.379 OA
BRANCH 122 123
ATOM    123  C   UNL     1     159.804 170.657 178.197  0.00  0.00    +0.037 C 
ATOM    124  H   UNL     1     160.621 171.294 178.537  0.00  0.00    +0.052 HD
ATOM    125  H   UNL     1     158.858 171.143 178.441  0.00  0.00    +0.052 HD
ATOM    126  H   UNL     1     159.853 170.529 177.113  0.00  0.00    +0.052 HD
ENDBRANCH 122 123
ENDBRANCH 105 122
ENDBRANCH  99 105
ENDBRANCH  97  99
ENDBRANCH  94  97
ENDBRANCH  91  94
ENDBRANCH  85  91
ENDBRANCH  83  85
BRANCH  83 127
ATOM    127  O   UNL     1     154.572 171.864 175.765  0.00  0.00    -0.379 OA
BRANCH 127 128
ATOM    128  C   UNL     1     154.712 172.750 174.658  0.00  0.00    +0.037 C 
ATOM    129  H   UNL     1     155.758 172.850 174.356  0.00  0.00    +0.052 HD
ATOM    130  H   UNL     1     154.343 173.734 174.967  0.00  0.00    +0.052 HD
ATOM    131  H   UNL     1     154.109 172.416 173.813  0.00  0.00    +0.052 HD
ENDBRANCH 127 128
ENDBRANCH  83 127
ENDBRANCH  77  83
ENDBRANCH  25  77
BRANCH   9 132
ATOM    132  O   UNL     1     156.582 174.272 183.867  0.00  0.00    -0.384 OA
ATOM    133  H   UNL     1     155.900 173.703 183.466  0.00  0.00    +0.210 HD
ENDBRANCH   9 132
BRANCH  29 134
ATOM    134  O   UNL     1     148.657 175.655 179.077  0.00  0.00    -0.376 OA
BRANCH 134 135
ATOM    135  C   UNL     1     147.624 176.151 179.917  0.00  0.00    +0.037 C 
ATOM    136  H   UNL     1     146.914 176.748 179.335  0.00  0.00    +0.052 HD
ATOM    137  H   UNL     1     148.079 176.793 180.678  0.00  0.00    +0.052 HD
ATOM    138  H   UNL     1     147.099 175.334 180.422  0.00  0.00    +0.052 HD
ENDBRANCH 134 135
ENDBRANCH  29 134
BRANCH   6 139
ATOM    139  O   UNL     1     158.084 175.389 178.753  0.00  0.00    -0.379 OA
BRANCH 139 140
ATOM    140  C   UNL     1     158.832 176.316 177.972  0.00  0.00    +0.037 C 
ATOM    141  H   UNL     1     158.502 176.293 176.927  0.00  0.00    +0.052 HD
ATOM    142  H   UNL     1     159.885 176.019 178.011  0.00  0.00    +0.052 HD
ATOM    143  H   UNL     1     158.744 177.328 178.376  0.00  0.00    +0.052 HD
ENDBRANCH 139 140
ENDBRANCH   6 139
BRANCH  16 144
ATOM    144  O   UNL     1     157.795 169.289 183.927  0.00  0.00    -0.379 OA
BRANCH 144 145
ATOM    145  C   UNL     1     158.234 169.346 185.276  0.00  0.00    +0.037 C 
ATOM    146  H   UNL     1     158.715 168.410 185.568  0.00  0.00    +0.052 HD
ATOM    147  H   UNL     1     158.910 170.189 185.436  0.00  0.00    +0.052 HD
ATOM    148  H   UNL     1     157.354 169.482 185.910  0.00  0.00    +0.052 HD
ENDBRANCH 144 145
ENDBRANCH  16 144
BRANCH   4 149
ATOM    149  O   UNL     1     154.805 177.776 178.696  0.00  0.00    -0.376 OA
BRANCH 149 150
ATOM    150  C   UNL     1     155.082 178.931 179.478  0.00  0.00    +0.037 C 
ATOM    151  H   UNL     1     155.726 179.596 178.894  0.00  0.00    +0.052 HD
ATOM    152  H   UNL     1     154.156 179.466 179.713  0.00  0.00    +0.052 HD
ATOM    153  H   UNL     1     155.610 178.662 180.398  0.00  0.00    +0.052 HD
ENDBRANCH 149 150
ENDBRANCH   4 149
TORSDOF 33
ENDMDL
MODEL 7
REMARK VINA RESULT:      -4.8      1.819      2.651
REMARK  Name = Sphinxolide B_conf3
REMARK  33 active torsions:
REMARK  status: ('A' for Active; 'I' for Inactive)
REMARK    1  A    between atoms: C_1  and  C_2
REMARK    2  A    between atoms: C_5  and  O_67
REMARK    3  A    between atoms: C_7  and  O_65
REMARK    4  A    between atoms: C_8  and  C_64
REMARK    5  A    between atoms: C_10  and  O_63
REMARK    6  A    between atoms: C_17  and  O_61
REMARK    7  A    between atoms: C_19  and  C_60
REMARK    8  A    between atoms: C_26  and  C_37
REMARK    9  A    between atoms: C_27  and  C_36
REMARK   10  A    between atoms: C_30  and  O_34
REMARK   11  A    between atoms: C_32  and  O_33
REMARK   12  A    between atoms: O_34  and  C_35
REMARK   13  A    between atoms: C_37  and  C_38
REMARK   14  A    between atoms: C_37  and  C_39
REMARK   15  A    between atoms: C_39  and  C_40
REMARK   16  A    between atoms: C_39  and  O_58
REMARK   17  A    between atoms: C_40  and  C_41
REMARK   18  A    between atoms: C_40  and  C_42
REMARK   19  A    between atoms: C_42  and  C_43
REMARK   20  A    between atoms: C_43  and  C_44
REMARK   21  A    between atoms: C_44  and  C_46
REMARK   22  A    between atoms: C_46  and  C_47
REMARK   23  A    between atoms: C_46  and  C_48
REMARK   24  A    between atoms: C_48  and  C_49
REMARK   25  A    between atoms: C_48  and  O_56
REMARK   26  A    between atoms: C_49  and  C_50
REMARK   27  A    between atoms: C_51  and  N_52
REMARK   28  A    between atoms: N_52  and  C_53
REMARK   29  A    between atoms: O_56  and  C_57
REMARK   30  A    between atoms: O_58  and  C_59
REMARK   31  A    between atoms: O_61  and  C_62
REMARK   32  A    between atoms: O_65  and  C_66
REMARK   33  A    between atoms: O_67  and  C_68
REMARK                            x       y       z     vdW  Elec       q    Type
REMARK                         _______ _______ _______ _____ _____    ______ ____
ROOT
ATOM      1  C   UNL     1     147.952 168.401 188.009  0.00  0.00    +0.000 C 
ATOM      2  C   UNL     1     148.076 167.101 187.248  0.00  0.00    -0.080 C 
ATOM      3  C   UNL     1     148.721 166.991 186.074  0.00  0.00    -0.059 C 
ATOM      4  C   UNL     1     148.948 165.704 185.322  0.00  0.00    +0.079 C 
ATOM      5  C   UNL     1     150.450 165.453 185.064  0.00  0.00    +0.004 C 
ATOM      6  C   UNL     1     151.236 164.703 186.166  0.00  0.00    +0.067 C 
ATOM      7  C   UNL     1     151.282 165.464 187.528  0.00  0.00    +0.022 C 
ATOM      8  C   UNL     1     152.756 165.675 188.011  0.00  0.00    +0.138 C 
ATOM      9  C   UNL     1     152.981 166.774 189.072  0.00  0.00    +0.114 C 
ATOM     10  C   UNL     1     152.588 166.282 190.439  0.00  0.00    -0.029 C 
ATOM     11  C   UNL     1     152.820 164.980 190.710  0.00  0.00    +0.024 C 
ATOM     12  C   UNL     1     153.378 164.043 189.713  0.00  0.00    +0.332 C 
ATOM     13  O   UNL     1     153.806 162.947 190.053  0.00  0.00    -0.246 OA
ATOM     14  O   UNL     1     153.385 164.442 188.415  0.00  0.00    -0.455 OA
ATOM     15  C   UNL     1     152.033 167.305 191.414  0.00  0.00    -0.002 C 
ATOM     16  C   UNL     1     151.553 166.892 192.828  0.00  0.00    +0.066 C 
ATOM     17  C   UNL     1     150.251 166.035 192.808  0.00  0.00    -0.005 C 
ATOM     18  C   UNL     1     149.497 166.007 194.139  0.00  0.00    -0.070 C 
ATOM     19  C   UNL     1     148.160 166.068 194.307  0.00  0.00    -0.062 C 
ATOM     20  C   UNL     1     147.099 166.087 193.317  0.00  0.00    -0.055 C 
ATOM     21  C   UNL     1     145.817 166.034 193.716  0.00  0.00    +0.023 C 
ATOM     22  C   UNL     1     144.617 165.832 192.884  0.00  0.00    +0.332 C 
ATOM     23  O   UNL     1     143.568 165.465 193.396  0.00  0.00    -0.246 OA
ATOM     24  O   UNL     1     144.835 166.024 191.561  0.00  0.00    -0.457 OA
ATOM     25  C   UNL     1     143.821 165.468 190.672  0.00  0.00    +0.114 C 
ATOM     26  C   UNL     1     142.837 166.567 190.163  0.00  0.00    +0.012 C 
ATOM     27  C   UNL     1     143.524 167.737 189.494  0.00  0.00    -0.079 C 
ATOM     28  C   UNL     1     143.433 168.034 188.187  0.00  0.00    -0.059 C 
ATOM     29  C   UNL     1     144.117 169.196 187.514  0.00  0.00    +0.079 C 
ATOM     30  C   UNL     1     145.575 168.874 187.140  0.00  0.00    +0.004 C 
ATOM     31  C   UNL     1     146.490 168.751 188.361  0.00  0.00    +0.064 C 
ATOM     32  H   UNL     1     148.378 169.224 187.417  0.00  0.00    +0.037 HD
ATOM     33  H   UNL     1     147.645 166.216 187.712  0.00  0.00    +0.057 HD
ATOM     34  H   UNL     1     149.138 167.884 185.610  0.00  0.00    +0.059 HD
ATOM     35  H   UNL     1     148.502 164.840 185.829  0.00  0.00    +0.064 HD
ATOM     36  H   UNL     1     150.958 166.400 184.835  0.00  0.00    +0.032 HD
ATOM     37  H   UNL     1     150.529 164.851 184.148  0.00  0.00    +0.032 HD
ATOM     38  H   UNL     1     152.256 164.596 185.769  0.00  0.00    +0.060 HD
ATOM     39  H   UNL     1     150.913 166.478 187.343  0.00  0.00    +0.036 HD
ATOM     40  H   UNL     1     153.319 166.015 187.129  0.00  0.00    +0.077 HD
ATOM     41  H   UNL     1     154.051 167.020 189.122  0.00  0.00    +0.068 HD
ATOM     42  H   UNL     1     152.642 164.533 191.679  0.00  0.00    +0.069 HD
ATOM     43  H   UNL     1     152.809 168.073 191.537  0.00  0.00    +0.034 HD
ATOM     44  H   UNL     1     151.186 167.810 190.938  0.00  0.00    +0.034 HD
ATOM     45  H   UNL     1     151.326 167.818 193.378  0.00  0.00    +0.060 HD
ATOM     46  H   UNL     1     149.590 166.422 192.025  0.00  0.00    +0.034 HD
ATOM     47  H   UNL     1     150.495 164.998 192.555  0.00  0.00    +0.034 HD
ATOM     48  H   UNL     1     147.799 166.039 195.337  0.00  0.00    +0.062 HD
ATOM     49  H   UNL     1     147.357 166.052 192.265  0.00  0.00    +0.062 HD
ATOM     50  H   UNL     1     145.573 166.022 194.775  0.00  0.00    +0.069 HD
ATOM     51  H   UNL     1     143.226 164.746 191.239  0.00  0.00    +0.074 HD
ATOM     52  H   UNL     1     142.144 166.101 189.453  0.00  0.00    +0.038 HD
ATOM     53  H   UNL     1     144.127 168.372 190.145  0.00  0.00    +0.057 HD
ATOM     54  H   UNL     1     142.820 167.416 187.538  0.00  0.00    +0.059 HD
ATOM     55  H   UNL     1     144.054 170.078 188.162  0.00  0.00    +0.064 HD
ATOM     56  H   UNL     1     145.959 169.668 186.487  0.00  0.00    +0.032 HD
ATOM     57  H   UNL     1     145.598 167.958 186.539  0.00  0.00    +0.032 HD
ATOM     58  H   UNL     1     146.119 167.976 189.038  0.00  0.00    +0.060 HD
ENDROOT
BRANCH   1  59
ATOM     59  C   UNL     1     148.786 168.301 189.294  0.00  0.00    -0.057 C 
ATOM     60  H   UNL     1     148.150 168.295 190.186  0.00  0.00    +0.024 HD
ATOM     61  H   UNL     1     149.376 167.385 189.299  0.00  0.00    +0.024 HD
ATOM     62  H   UNL     1     149.483 169.141 189.383  0.00  0.00    +0.024 HD
ENDBRANCH   1  59
BRANCH  26  63
ATOM     63  C   UNL     1     141.964 167.122 191.298  0.00  0.00    -0.056 C 
ATOM     64  H   UNL     1     142.075 166.518 192.207  0.00  0.00    +0.024 HD
ATOM     65  H   UNL     1     142.259 168.145 191.546  0.00  0.00    +0.024 HD
ATOM     66  H   UNL     1     140.901 167.125 191.034  0.00  0.00    +0.024 HD
ENDBRANCH  26  63
BRANCH  18  67
ATOM     67  C   UNL     1     150.351 165.828 195.378  0.00  0.00    -0.043 C 
ATOM     68  H   UNL     1     150.089 164.894 195.888  0.00  0.00    +0.027 HD
ATOM     69  H   UNL     1     151.414 165.811 195.116  0.00  0.00    +0.027 HD
ATOM     70  H   UNL     1     150.207 166.633 196.106  0.00  0.00    +0.027 HD
ENDBRANCH  18  67
BRANCH   7  71
ATOM     71  C   UNL     1     150.360 164.820 188.572  0.00  0.00    -0.057 C 
ATOM     72  H   UNL     1     149.351 165.239 188.529  0.00  0.00    +0.023 HD
ATOM     73  H   UNL     1     150.260 163.741 188.422  0.00  0.00    +0.023 HD
ATOM     74  H   UNL     1     150.721 164.997 189.589  0.00  0.00    +0.023 HD
ENDBRANCH   7  71
BRANCH  31  75
ATOM     75  O   UNL     1     146.460 169.989 189.083  0.00  0.00    -0.391 OA
ATOM     76  H   UNL     1     147.017 170.628 188.604  0.00  0.00    +0.210 HD
ENDBRANCH  31  75
BRANCH  25  77
ATOM     77  C   UNL     1     144.561 164.678 189.545  0.00  0.00    +0.020 C 
ATOM     78  H   UNL     1     144.435 165.230 188.608  0.00  0.00    +0.036 HD
BRANCH  77  79
ATOM     79  C   UNL     1     146.089 164.689 189.774  0.00  0.00    -0.057 C 
ATOM     80  H   UNL     1     146.633 164.407 188.868  0.00  0.00    +0.023 HD
ATOM     81  H   UNL     1     146.371 163.995 190.573  0.00  0.00    +0.023 HD
ATOM     82  H   UNL     1     146.434 165.679 190.091  0.00  0.00    +0.023 HD
ENDBRANCH  77  79
BRANCH  77  83
ATOM     83  C   UNL     1     144.101 163.189 189.352  0.00  0.00    +0.067 C 
ATOM     84  H   UNL     1     144.745 162.535 189.957  0.00  0.00    +0.060 HD
BRANCH  83  85
ATOM     85  C   UNL     1     144.234 162.671 187.891  0.00  0.00    -0.017 C 
ATOM     86  H   UNL     1     143.354 162.062 187.668  0.00  0.00    +0.032 HD
BRANCH  85  87
ATOM     87  C   UNL     1     144.250 163.817 186.875  0.00  0.00    -0.060 C 
ATOM     88  H   UNL     1     143.672 163.559 185.982  0.00  0.00    +0.023 HD
ATOM     89  H   UNL     1     143.797 164.723 187.287  0.00  0.00    +0.023 HD
ATOM     90  H   UNL     1     145.270 164.071 186.569  0.00  0.00    +0.023 HD
ENDBRANCH  85  87
BRANCH  85  91
ATOM     91  C   UNL     1     145.431 161.704 187.668  0.00  0.00    -0.041 C 
ATOM     92  H   UNL     1     146.119 162.147 186.936  0.00  0.00    +0.027 HD
ATOM     93  H   UNL     1     145.039 160.799 187.183  0.00  0.00    +0.027 HD
BRANCH  91  94
ATOM     94  C   UNL     1     146.213 161.252 188.904  0.00  0.00    +0.007 C 
ATOM     95  H   UNL     1     145.526 161.202 189.758  0.00  0.00    +0.034 HD
ATOM     96  H   UNL     1     146.979 161.986 189.160  0.00  0.00    +0.034 HD
BRANCH  94  97
ATOM     97  C   UNL     1     146.852 159.878 188.797  0.00  0.00    +0.139 C 
ATOM     98  O   UNL     1     147.555 159.562 187.836  0.00  0.00    -0.297 OA
BRANCH  97  99
ATOM     99  C   UNL     1     146.544 158.897 189.921  0.00  0.00    +0.041 C 
ATOM    100  H   UNL     1     146.678 159.438 190.866  0.00  0.00    +0.040 HD
BRANCH  99 101
ATOM    101  C   UNL     1     147.572 157.770 189.919  0.00  0.00    -0.053 C 
ATOM    102  H   UNL     1     147.463 157.155 190.819  0.00  0.00    +0.024 HD
ATOM    103  H   UNL     1     148.599 158.148 189.918  0.00  0.00    +0.024 HD
ATOM    104  H   UNL     1     147.440 157.117 189.049  0.00  0.00    +0.024 HD
ENDBRANCH  99 101
BRANCH  99 105
ATOM    105  C   UNL     1     145.073 158.433 189.846  0.00  0.00    +0.071 C 
ATOM    106  H   UNL     1     144.412 159.289 190.049  0.00  0.00    +0.061 HD
BRANCH 105 107
ATOM    107  C   UNL     1     144.672 157.821 188.485  0.00  0.00    -0.006 C 
ATOM    108  H   UNL     1     144.311 156.795 188.622  0.00  0.00    +0.033 HD
ATOM    109  H   UNL     1     145.534 157.777 187.810  0.00  0.00    +0.033 HD
BRANCH 107 110
ATOM    110  C   UNL     1     143.552 158.606 187.842  0.00  0.00    -0.067 C 
ATOM    111  C   UNL     1     142.542 158.028 187.178  0.00  0.00    -0.005 C 
ATOM    112  H   UNL     1     143.636 159.683 187.957  0.00  0.00    +0.059 HD
ATOM    113  H   UNL     1     142.527 156.941 187.100  0.00  0.00    +0.078 HD
BRANCH 111 114
ATOM    114  N   UNL     1     141.481 158.661 186.547  0.00  0.00    -0.284 N 
ATOM    115  C   UNL     1     140.245 158.084 186.281  0.00  0.00    +0.206 C 
ATOM    116  O   UNL     1     139.291 158.640 185.747  0.00  0.00    -0.279 OA
ATOM    117  H   UNL     1     140.163 157.037 186.604  0.00  0.00    +0.126 HD
BRANCH 114 118
ATOM    118  C   UNL     1     141.681 160.050 186.148  0.00  0.00    +0.007 C 
ATOM    119  H   UNL     1     142.020 160.074 185.107  0.00  0.00    +0.043 HD
ATOM    120  H   UNL     1     142.430 160.553 186.768  0.00  0.00    +0.043 HD
ATOM    121  H   UNL     1     140.736 160.593 186.240  0.00  0.00    +0.043 HD
ENDBRANCH 114 118
ENDBRANCH 111 114
ENDBRANCH 107 110
ENDBRANCH 105 107
BRANCH 105 122
ATOM    122  O   UNL     1     144.857 157.417 190.848  0.00  0.00    -0.379 OA
BRANCH 122 123
ATOM    123  C   UNL     1     143.486 157.103 191.049  0.00  0.00    +0.037 C 
ATOM    124  H   UNL     1     143.158 156.327 190.356  0.00  0.00    +0.052 HD
ATOM    125  H   UNL     1     142.898 158.004 190.868  0.00  0.00    +0.052 HD
ATOM    126  H   UNL     1     143.313 156.783 192.080  0.00  0.00    +0.052 HD
ENDBRANCH 122 123
ENDBRANCH 105 122
ENDBRANCH  99 105
ENDBRANCH  97  99
ENDBRANCH  94  97
ENDBRANCH  91  94
ENDBRANCH  85  91
ENDBRANCH  83  85
BRANCH  83 127
ATOM    127  O   UNL     1     142.742 162.985 189.761  0.00  0.00    -0.379 OA
BRANCH 127 128
ATOM    128  C   UNL     1     142.333 161.620 189.759  0.00  0.00    +0.037 C 
ATOM    129  H   UNL     1     142.424 161.178 188.764  0.00  0.00    +0.052 HD
ATOM    130  H   UNL     1     141.281 161.585 190.063  0.00  0.00    +0.052 HD
ATOM    131  H   UNL     1     142.910 161.039 190.480  0.00  0.00    +0.052 HD
ENDBRANCH 127 128
ENDBRANCH  83 127
ENDBRANCH  77  83
ENDBRANCH  25  77
BRANCH   9 132
ATOM    132  O   UNL     1     152.296 167.973 188.740  0.00  0.00    -0.384 OA
ATOM    133  H   UNL     1     151.592 167.742 188.107  0.00  0.00    +0.210 HD
ENDBRANCH   9 132
BRANCH  29 134
ATOM    134  O   UNL     1     143.373 169.435 186.310  0.00  0.00    -0.376 OA
BRANCH 134 135
ATOM    135  C   UNL     1     143.699 170.670 185.689  0.00  0.00    +0.037 C 
ATOM    136  H   UNL     1     144.360 171.257 186.335  0.00  0.00    +0.052 HD
ATOM    137  H   UNL     1     142.773 171.232 185.534  0.00  0.00    +0.052 HD
ATOM    138  H   UNL     1     144.174 170.509 184.715  0.00  0.00    +0.052 HD
ENDBRANCH 134 135
ENDBRANCH  29 134
BRANCH   6 139
ATOM    139  O   UNL     1     150.634 163.407 186.279  0.00  0.00    -0.379 OA
BRANCH 139 140
ATOM    140  C   UNL     1     151.548 162.340 186.046  0.00  0.00    +0.037 C 
ATOM    141  H   UNL     1     152.241 162.598 185.238  0.00  0.00    +0.052 HD
ATOM    142  H   UNL     1     150.970 161.461 185.743  0.00  0.00    +0.052 HD
ATOM    143  H   UNL     1     152.100 162.093 186.957  0.00  0.00    +0.052 HD
ENDBRANCH 139 140
ENDBRANCH   6 139
BRANCH  16 144
ATOM    144  O   UNL     1     152.577 166.173 193.535  0.00  0.00    -0.379 OA
BRANCH 144 145
ATOM    145  C   UNL     1     153.751 166.933 193.780  0.00  0.00    +0.037 C 
ATOM    146  H   UNL     1     153.500 167.929 194.151  0.00  0.00    +0.052 HD
ATOM    147  H   UNL     1     154.415 166.421 194.481  0.00  0.00    +0.052 HD
ATOM    148  H   UNL     1     154.278 167.053 192.829  0.00  0.00    +0.052 HD
ENDBRANCH 144 145
ENDBRANCH  16 144
BRANCH   4 149
ATOM    149  O   UNL     1     148.338 165.884 184.033  0.00  0.00    -0.376 OA
BRANCH 149 150
ATOM    150  C   UNL     1     148.401 164.711 183.232  0.00  0.00    +0.037 C 
ATOM    151  H   UNL     1     147.627 164.017 183.576  0.00  0.00    +0.052 HD
ATOM    152  H   UNL     1     148.203 164.952 182.182  0.00  0.00    +0.052 HD
ATOM    153  H   UNL     1     149.374 164.220 183.333  0.00  0.00    +0.052 HD
ENDBRANCH 149 150
ENDBRANCH   4 149
TORSDOF 33
ENDMDL
MODEL 8
REMARK VINA RESULT:      -4.8      6.674     12.530
REMARK  Name = Sphinxolide B_conf3
REMARK  33 active torsions:
REMARK  status: ('A' for Active; 'I' for Inactive)
REMARK    1  A    between atoms: C_1  and  C_2
REMARK    2  A    between atoms: C_5  and  O_67
REMARK    3  A    between atoms: C_7  and  O_65
REMARK    4  A    between atoms: C_8  and  C_64
REMARK    5  A    between atoms: C_10  and  O_63
REMARK    6  A    between atoms: C_17  and  O_61
REMARK    7  A    between atoms: C_19  and  C_60
REMARK    8  A    between atoms: C_26  and  C_37
REMARK    9  A    between atoms: C_27  and  C_36
REMARK   10  A    between atoms: C_30  and  O_34
REMARK   11  A    between atoms: C_32  and  O_33
REMARK   12  A    between atoms: O_34  and  C_35
REMARK   13  A    between atoms: C_37  and  C_38
REMARK   14  A    between atoms: C_37  and  C_39
REMARK   15  A    between atoms: C_39  and  C_40
REMARK   16  A    between atoms: C_39  and  O_58
REMARK   17  A    between atoms: C_40  and  C_41
REMARK   18  A    between atoms: C_40  and  C_42
REMARK   19  A    between atoms: C_42  and  C_43
REMARK   20  A    between atoms: C_43  and  C_44
REMARK   21  A    between atoms: C_44  and  C_46
REMARK   22  A    between atoms: C_46  and  C_47
REMARK   23  A    between atoms: C_46  and  C_48
REMARK   24  A    between atoms: C_48  and  C_49
REMARK   25  A    between atoms: C_48  and  O_56
REMARK   26  A    between atoms: C_49  and  C_50
REMARK   27  A    between atoms: C_51  and  N_52
REMARK   28  A    between atoms: N_52  and  C_53
REMARK   29  A    between atoms: O_56  and  C_57
REMARK   30  A    between atoms: O_58  and  C_59
REMARK   31  A    between atoms: O_61  and  C_62
REMARK   32  A    between atoms: O_65  and  C_66
REMARK   33  A    between atoms: O_67  and  C_68
REMARK                            x       y       z     vdW  Elec       q    Type
REMARK                         _______ _______ _______ _____ _____    ______ ____
ROOT
ATOM      1  C   UNL     1     158.628 159.875 188.649  0.00  0.00    +0.000 C 
ATOM      2  C   UNL     1     158.576 160.329 190.090  0.00  0.00    -0.080 C 
ATOM      3  C   UNL     1     158.996 159.573 191.118  0.00  0.00    -0.059 C 
ATOM      4  C   UNL     1     159.046 160.014 192.560  0.00  0.00    +0.079 C 
ATOM      5  C   UNL     1     160.469 159.884 193.146  0.00  0.00    +0.004 C 
ATOM      6  C   UNL     1     161.419 161.091 192.961  0.00  0.00    +0.067 C 
ATOM      7  C   UNL     1     161.731 161.418 191.467  0.00  0.00    +0.022 C 
ATOM      8  C   UNL     1     163.273 161.434 191.199  0.00  0.00    +0.138 C 
ATOM      9  C   UNL     1     163.716 161.292 189.727  0.00  0.00    +0.114 C 
ATOM     10  C   UNL     1     163.562 162.600 188.997  0.00  0.00    -0.029 C 
ATOM     11  C   UNL     1     163.800 163.726 189.702  0.00  0.00    +0.024 C 
ATOM     12  C   UNL     1     164.143 163.712 191.139  0.00  0.00    +0.332 C 
ATOM     13  O   UNL     1     164.593 164.710 191.686  0.00  0.00    -0.246 OA
ATOM     14  O   UNL     1     163.928 162.558 191.822  0.00  0.00    -0.455 OA
ATOM     15  C   UNL     1     163.221 162.534 187.518  0.00  0.00    -0.002 C 
ATOM     16  C   UNL     1     162.991 163.822 186.688  0.00  0.00    +0.066 C 
ATOM     17  C   UNL     1     161.682 164.576 187.074  0.00  0.00    -0.005 C 
ATOM     18  C   UNL     1     161.180 165.548 186.006  0.00  0.00    -0.070 C 
ATOM     19  C   UNL     1     159.896 165.745 185.638  0.00  0.00    -0.062 C 
ATOM     20  C   UNL     1     158.676 165.182 186.185  0.00  0.00    -0.055 C 
ATOM     21  C   UNL     1     157.486 165.612 185.733  0.00  0.00    +0.023 C 
ATOM     22  C   UNL     1     156.150 165.331 186.291  0.00  0.00    +0.332 C 
ATOM     23  O   UNL     1     155.200 166.045 186.001  0.00  0.00    -0.246 OA
ATOM     24  O   UNL     1     156.132 164.294 187.162  0.00  0.00    -0.457 OA
ATOM     25  C   UNL     1     154.960 164.222 188.026  0.00  0.00    +0.114 C 
ATOM     26  C   UNL     1     153.933 163.164 187.514  0.00  0.00    +0.012 C 
ATOM     27  C   UNL     1     154.522 161.783 187.329  0.00  0.00    -0.079 C 
ATOM     28  C   UNL     1     154.206 160.709 188.071  0.00  0.00    -0.059 C 
ATOM     29  C   UNL     1     154.792 159.333 187.894  0.00  0.00    +0.079 C 
ATOM     30  C   UNL     1     156.148 159.182 188.605  0.00  0.00    +0.004 C 
ATOM     31  C   UNL     1     157.264 159.989 187.935  0.00  0.00    +0.064 C 
ATOM     32  H   UNL     1     158.965 158.828 188.599  0.00  0.00    +0.037 HD
ATOM     33  H   UNL     1     158.209 161.337 190.274  0.00  0.00    +0.057 HD
ATOM     34  H   UNL     1     159.348 158.560 190.927  0.00  0.00    +0.059 HD
ATOM     35  H   UNL     1     158.673 161.037 192.697  0.00  0.00    +0.064 HD
ATOM     36  H   UNL     1     160.955 158.977 192.760  0.00  0.00    +0.032 HD
ATOM     37  H   UNL     1     160.365 159.720 194.227  0.00  0.00    +0.032 HD
ATOM     38  H   UNL     1     162.347 160.810 193.478  0.00  0.00    +0.060 HD
ATOM     39  H   UNL     1     161.364 160.577 190.870  0.00  0.00    +0.036 HD
ATOM     40  H   UNL     1     163.678 160.544 191.703  0.00  0.00    +0.077 HD
ATOM     41  H   UNL     1     164.785 161.037 189.691  0.00  0.00    +0.068 HD
ATOM     42  H   UNL     1     163.787 164.715 189.265  0.00  0.00    +0.069 HD
ATOM     43  H   UNL     1     164.029 161.967 187.036  0.00  0.00    +0.034 HD
ATOM     44  H   UNL     1     162.317 161.927 187.400  0.00  0.00    +0.034 HD
ATOM     45  H   UNL     1     162.894 163.517 185.635  0.00  0.00    +0.060 HD
ATOM     46  H   UNL     1     160.903 163.836 187.287  0.00  0.00    +0.034 HD
ATOM     47  H   UNL     1     161.846 165.158 187.987  0.00  0.00    +0.034 HD
ATOM     48  H   UNL     1     159.725 166.481 184.849  0.00  0.00    +0.062 HD
ATOM     49  H   UNL     1     158.740 164.489 187.015  0.00  0.00    +0.062 HD
ATOM     50  H   UNL     1     157.435 166.342 184.930  0.00  0.00    +0.069 HD
ATOM     51  H   UNL     1     154.455 165.194 188.002  0.00  0.00    +0.074 HD
ATOM     52  H   UNL     1     153.110 163.112 188.237  0.00  0.00    +0.038 HD
ATOM     53  H   UNL     1     155.250 161.680 186.524  0.00  0.00    +0.057 HD
ATOM     54  H   UNL     1     153.469 160.803 188.864  0.00  0.00    +0.059 HD
ATOM     55  H   UNL     1     154.871 159.109 186.824  0.00  0.00    +0.064 HD
ATOM     56  H   UNL     1     156.432 158.122 188.612  0.00  0.00    +0.032 HD
ATOM     57  H   UNL     1     156.037 159.466 189.657  0.00  0.00    +0.032 HD
ATOM     58  H   UNL     1     156.999 161.050 187.900  0.00  0.00    +0.060 HD
ENDROOT
BRANCH   1  59
ATOM     59  C   UNL     1     159.676 160.714 187.905  0.00  0.00    -0.057 C 
ATOM     60  H   UNL     1     159.707 160.464 186.839  0.00  0.00    +0.024 HD
ATOM     61  H   UNL     1     159.450 161.776 187.992  0.00  0.00    +0.024 HD
ATOM     62  H   UNL     1     160.678 160.556 188.318  0.00  0.00    +0.024 HD
ENDBRANCH   1  59
BRANCH  26  63
ATOM     63  C   UNL     1     153.294 163.585 186.183  0.00  0.00    -0.056 C 
ATOM     64  H   UNL     1     153.972 163.386 185.344  0.00  0.00    +0.024 HD
ATOM     65  H   UNL     1     152.374 163.021 186.002  0.00  0.00    +0.024 HD
ATOM     66  H   UNL     1     153.051 164.653 186.163  0.00  0.00    +0.024 HD
ENDBRANCH  26  63
BRANCH  18  67
ATOM     67  C   UNL     1     162.237 166.414 185.351  0.00  0.00    -0.043 C 
ATOM     68  H   UNL     1     162.303 166.188 184.280  0.00  0.00    +0.027 HD
ATOM     69  H   UNL     1     162.003 167.476 185.483  0.00  0.00    +0.027 HD
ATOM     70  H   UNL     1     163.235 166.245 185.768  0.00  0.00    +0.027 HD
ENDBRANCH  18  67
BRANCH   7  71
ATOM     71  C   UNL     1     160.993 162.677 190.992  0.00  0.00    -0.057 C 
ATOM     72  H   UNL     1     160.123 162.893 191.618  0.00  0.00    +0.023 HD
ATOM     73  H   UNL     1     161.632 163.565 191.024  0.00  0.00    +0.023 HD
ATOM     74  H   UNL     1     160.615 162.560 189.972  0.00  0.00    +0.023 HD
ENDBRANCH   7  71
BRANCH  31  75
ATOM     75  O   UNL     1     157.400 159.545 186.579  0.00  0.00    -0.391 OA
ATOM     76  H   UNL     1     157.727 160.294 186.050  0.00  0.00    +0.210 HD
ENDBRANCH  31  75
BRANCH  25  77
ATOM     77  C   UNL     1     155.461 163.995 189.488  0.00  0.00    +0.020 C 
ATOM     78  H   UNL     1     155.021 163.062 189.854  0.00  0.00    +0.036 HD
BRANCH  77  79
ATOM     79  C   UNL     1     156.981 163.719 189.514  0.00  0.00    -0.057 C 
ATOM     80  H   UNL     1     157.420 163.978 190.483  0.00  0.00    +0.023 HD
ATOM     81  H   UNL     1     157.498 164.295 188.739  0.00  0.00    +0.023 HD
ATOM     82  H   UNL     1     157.195 162.665 189.307  0.00  0.00    +0.023 HD
ENDBRANCH  77  79
BRANCH  77  83
ATOM     83  C   UNL     1     155.154 165.161 190.495  0.00  0.00    +0.067 C 
ATOM     84  H   UNL     1     155.485 164.862 191.500  0.00  0.00    +0.060 HD
BRANCH  83  85
ATOM     85  C   UNL     1     153.639 165.491 190.635  0.00  0.00    -0.017 C 
ATOM     86  H   UNL     1     153.387 166.240 189.880  0.00  0.00    +0.032 HD
BRANCH  85  87
ATOM     87  C   UNL     1     152.757 164.269 190.361  0.00  0.00    -0.060 C 
ATOM     88  H   UNL     1     153.363 163.404 190.075  0.00  0.00    +0.023 HD
ATOM     89  H   UNL     1     152.196 163.973 191.252  0.00  0.00    +0.023 HD
ATOM     90  H   UNL     1     152.031 164.465 189.567  0.00  0.00    +0.023 HD
ENDBRANCH  85  87
BRANCH  85  91
ATOM     91  C   UNL     1     153.260 166.168 191.983  0.00  0.00    -0.041 C 
ATOM     92  H   UNL     1     154.178 166.400 192.537  0.00  0.00    +0.027 HD
ATOM     93  H   UNL     1     152.737 165.418 192.593  0.00  0.00    +0.027 HD
BRANCH  91  94
ATOM     94  C   UNL     1     152.364 167.407 191.923  0.00  0.00    +0.007 C 
ATOM     95  H   UNL     1     152.671 168.025 191.070  0.00  0.00    +0.034 HD
ATOM     96  H   UNL     1     152.499 168.018 192.818  0.00  0.00    +0.034 HD
BRANCH  94  97
ATOM     97  C   UNL     1     150.884 167.125 191.729  0.00  0.00    +0.139 C 
ATOM     98  O   UNL     1     150.427 166.782 190.637  0.00  0.00    -0.297 OA
BRANCH  97  99
ATOM     99  C   UNL     1     149.989 167.331 192.944  0.00  0.00    +0.041 C 
ATOM    100  H   UNL     1     150.337 168.240 193.450  0.00  0.00    +0.040 HD
BRANCH  99 101
ATOM    101  C   UNL     1     150.186 166.185 193.931  0.00  0.00    -0.053 C 
ATOM    102  H   UNL     1     150.469 165.270 193.399  0.00  0.00    +0.024 HD
ATOM    103  H   UNL     1     149.271 165.957 194.486  0.00  0.00    +0.024 HD
ATOM    104  H   UNL     1     150.981 166.415 194.648  0.00  0.00    +0.024 HD
ENDBRANCH  99 101
BRANCH  99 105
ATOM    105  C   UNL     1     148.526 167.564 192.504  0.00  0.00    +0.071 C 
ATOM    106  H   UNL     1     148.415 167.274 191.448  0.00  0.00    +0.061 HD
BRANCH 105 107
ATOM    107  C   UNL     1     147.484 166.786 193.336  0.00  0.00    -0.006 C 
ATOM    108  H   UNL     1     147.281 167.310 194.278  0.00  0.00    +0.033 HD
ATOM    109  H   UNL     1     147.857 165.788 193.591  0.00  0.00    +0.033 HD
BRANCH 107 110
ATOM    110  C   UNL     1     146.170 166.673 192.597  0.00  0.00    -0.067 C 
ATOM    111  C   UNL     1     145.049 166.209 193.166  0.00  0.00    -0.005 C 
ATOM    112  H   UNL     1     146.211 166.992 191.560  0.00  0.00    +0.059 HD
ATOM    113  H   UNL     1     145.086 165.903 194.211  0.00  0.00    +0.078 HD
BRANCH 111 114
ATOM    114  N   UNL     1     143.805 166.058 192.570  0.00  0.00    -0.284 N 
ATOM    115  C   UNL     1     142.585 166.324 193.178  0.00  0.00    +0.206 C 
ATOM    116  O   UNL     1     141.482 166.218 192.654  0.00  0.00    -0.279 OA
ATOM    117  H   UNL     1     142.671 166.664 194.219  0.00  0.00    +0.126 HD
BRANCH 114 118
ATOM    118  C   UNL     1     143.788 165.596 191.186  0.00  0.00    +0.007 C 
ATOM    119  H   UNL     1     144.818 165.545 190.816  0.00  0.00    +0.043 HD
ATOM    120  H   UNL     1     143.218 166.266 190.535  0.00  0.00    +0.043 HD
ATOM    121  H   UNL     1     143.333 164.602 191.142  0.00  0.00    +0.043 HD
ENDBRANCH 114 118
ENDBRANCH 111 114
ENDBRANCH 107 110
ENDBRANCH 105 107
BRANCH 105 122
ATOM    122  O   UNL     1     148.220 168.968 192.647  0.00  0.00    -0.379 OA
BRANCH 122 123
ATOM    123  C   UNL     1     148.203 169.672 191.413  0.00  0.00    +0.037 C 
ATOM    124  H   UNL     1     147.784 170.671 191.540  0.00  0.00    +0.052 HD
ATOM    125  H   UNL     1     147.578 169.118 190.711  0.00  0.00    +0.052 HD
ATOM    126  H   UNL     1     149.211 169.738 190.995  0.00  0.00    +0.052 HD
ENDBRANCH 122 123
ENDBRANCH 105 122
ENDBRANCH  99 105
ENDBRANCH  97  99
ENDBRANCH  94  97
ENDBRANCH  91  94
ENDBRANCH  85  91
ENDBRANCH  83  85
BRANCH  83 127
ATOM    127  O   UNL     1     155.830 166.374 190.141  0.00  0.00    -0.379 OA
BRANCH 127 128
ATOM    128  C   UNL     1     156.756 166.831 191.123  0.00  0.00    +0.037 C 
ATOM    129  H   UNL     1     156.602 167.887 191.356  0.00  0.00    +0.052 HD
ATOM    130  H   UNL     1     157.765 166.707 190.714  0.00  0.00    +0.052 HD
ATOM    131  H   UNL     1     156.686 166.233 192.032  0.00  0.00    +0.052 HD
ENDBRANCH 127 128
ENDBRANCH  83 127
ENDBRANCH  77  83
ENDBRANCH  25  77
BRANCH   9 132
ATOM    132  O   UNL     1     163.018 160.248 189.066  0.00  0.00    -0.384 OA
ATOM    133  H   UNL     1     162.942 159.506 189.692  0.00  0.00    +0.210 HD
ENDBRANCH   9 132
BRANCH  29 134
ATOM    134  O   UNL     1     153.850 158.433 188.500  0.00  0.00    -0.376 OA
BRANCH 134 135
ATOM    135  C   UNL     1     152.769 158.099 187.643  0.00  0.00    +0.037 C 
ATOM    136  H   UNL     1     153.135 157.885 186.633  0.00  0.00    +0.052 HD
ATOM    137  H   UNL     1     152.091 158.957 187.593  0.00  0.00    +0.052 HD
ATOM    138  H   UNL     1     152.210 157.240 188.028  0.00  0.00    +0.052 HD
ENDBRANCH 134 135
ENDBRANCH  29 134
BRANCH   6 139
ATOM    139  O   UNL     1     160.809 162.192 193.649  0.00  0.00    -0.379 OA
BRANCH 139 140
ATOM    140  C   UNL     1     161.646 162.763 194.649  0.00  0.00    +0.037 C 
ATOM    141  H   UNL     1     162.654 162.935 194.255  0.00  0.00    +0.052 HD
ATOM    142  H   UNL     1     161.714 162.051 195.479  0.00  0.00    +0.052 HD
ATOM    143  H   UNL     1     161.221 163.696 195.029  0.00  0.00    +0.052 HD
ENDBRANCH 139 140
ENDBRANCH   6 139
BRANCH  16 144
ATOM    144  O   UNL     1     164.104 164.723 186.807  0.00  0.00    -0.379 OA
BRANCH 144 145
ATOM    145  C   UNL     1     165.262 164.307 186.099  0.00  0.00    +0.037 C 
ATOM    146  H   UNL     1     165.517 165.024 185.315  0.00  0.00    +0.052 HD
ATOM    147  H   UNL     1     166.109 164.164 186.775  0.00  0.00    +0.052 HD
ATOM    148  H   UNL     1     165.037 163.351 185.618  0.00  0.00    +0.052 HD
ENDBRANCH 144 145
ENDBRANCH  16 144
BRANCH   4 149
ATOM    149  O   UNL     1     158.220 159.090 193.287  0.00  0.00    -0.376 OA
BRANCH 149 150
ATOM    150  C   UNL     1     158.587 157.735 193.058  0.00  0.00    +0.037 C 
ATOM    151  H   UNL     1     159.302 157.707 192.229  0.00  0.00    +0.052 HD
ATOM    152  H   UNL     1     159.074 157.315 193.945  0.00  0.00    +0.052 HD
ATOM    153  H   UNL     1     157.715 157.135 192.782  0.00  0.00    +0.052 HD
ENDBRANCH 149 150
ENDBRANCH   4 149
TORSDOF 33
ENDMDL
MODEL 9
REMARK VINA RESULT:      -4.8      2.282      8.650
REMARK  Name = Sphinxolide B_conf3
REMARK  33 active torsions:
REMARK  status: ('A' for Active; 'I' for Inactive)
REMARK    1  A    between atoms: C_1  and  C_2
REMARK    2  A    between atoms: C_5  and  O_67
REMARK    3  A    between atoms: C_7  and  O_65
REMARK    4  A    between atoms: C_8  and  C_64
REMARK    5  A    between atoms: C_10  and  O_63
REMARK    6  A    between atoms: C_17  and  O_61
REMARK    7  A    between atoms: C_19  and  C_60
REMARK    8  A    between atoms: C_26  and  C_37
REMARK    9  A    between atoms: C_27  and  C_36
REMARK   10  A    between atoms: C_30  and  O_34
REMARK   11  A    between atoms: C_32  and  O_33
REMARK   12  A    between atoms: O_34  and  C_35
REMARK   13  A    between atoms: C_37  and  C_38
REMARK   14  A    between atoms: C_37  and  C_39
REMARK   15  A    between atoms: C_39  and  C_40
REMARK   16  A    between atoms: C_39  and  O_58
REMARK   17  A    between atoms: C_40  and  C_41
REMARK   18  A    between atoms: C_40  and  C_42
REMARK   19  A    between atoms: C_42  and  C_43
REMARK   20  A    between atoms: C_43  and  C_44
REMARK   21  A    between atoms: C_44  and  C_46
REMARK   22  A    between atoms: C_46  and  C_47
REMARK   23  A    between atoms: C_46  and  C_48
REMARK   24  A    between atoms: C_48  and  C_49
REMARK   25  A    between atoms: C_48  and  O_56
REMARK   26  A    between atoms: C_49  and  C_50
REMARK   27  A    between atoms: C_51  and  N_52
REMARK   28  A    between atoms: N_52  and  C_53
REMARK   29  A    between atoms: O_56  and  C_57
REMARK   30  A    between atoms: O_58  and  C_59
REMARK   31  A    between atoms: O_61  and  C_62
REMARK   32  A    between atoms: O_65  and  C_66
REMARK   33  A    between atoms: O_67  and  C_68
REMARK                            x       y       z     vdW  Elec       q    Type
REMARK                         _______ _______ _______ _____ _____    ______ ____
ROOT
ATOM      1  C   UNL     1     149.058 167.313 190.120  0.00  0.00    +0.000 C 
ATOM      2  C   UNL     1     148.093 166.331 190.745  0.00  0.00    -0.080 C 
ATOM      3  C   UNL     1     147.688 166.407 192.024  0.00  0.00    -0.059 C 
ATOM      4  C   UNL     1     146.663 165.507 192.668  0.00  0.00    +0.079 C 
ATOM      5  C   UNL     1     145.491 166.316 193.264  0.00  0.00    +0.004 C 
ATOM      6  C   UNL     1     144.308 166.639 192.320  0.00  0.00    +0.067 C 
ATOM      7  C   UNL     1     144.706 167.530 191.102  0.00  0.00    +0.022 C 
ATOM      8  C   UNL     1     143.821 168.819 191.027  0.00  0.00    +0.138 C 
ATOM      9  C   UNL     1     144.376 169.984 190.179  0.00  0.00    +0.114 C 
ATOM     10  C   UNL     1     144.151 169.729 188.713  0.00  0.00    -0.029 C 
ATOM     11  C   UNL     1     143.016 169.084 188.371  0.00  0.00    +0.024 C 
ATOM     12  C   UNL     1     142.047 168.587 189.370  0.00  0.00    +0.332 C 
ATOM     13  O   UNL     1     140.924 168.235 189.034  0.00  0.00    -0.246 OA
ATOM     14  O   UNL     1     142.456 168.530 190.664  0.00  0.00    -0.455 OA
ATOM     15  C   UNL     1     145.184 170.280 187.745  0.00  0.00    -0.002 C 
ATOM     16  C   UNL     1     145.073 170.028 186.220  0.00  0.00    +0.066 C 
ATOM     17  C   UNL     1     145.325 168.542 185.823  0.00  0.00    -0.005 C 
ATOM     18  C   UNL     1     145.687 168.339 184.351  0.00  0.00    -0.070 C 
ATOM     19  C   UNL     1     146.618 167.493 183.862  0.00  0.00    -0.062 C 
ATOM     20  C   UNL     1     147.440 166.517 184.552  0.00  0.00    -0.055 C 
ATOM     21  C   UNL     1     148.228 165.692 183.842  0.00  0.00    +0.023 C 
ATOM     22  C   UNL     1     148.968 164.510 184.322  0.00  0.00    +0.332 C 
ATOM     23  O   UNL     1     149.358 163.665 183.528  0.00  0.00    -0.246 OA
ATOM     24  O   UNL     1     149.086 164.453 185.670  0.00  0.00    -0.457 OA
ATOM     25  C   UNL     1     149.445 163.149 186.213  0.00  0.00    +0.114 C 
ATOM     26  C   UNL     1     150.962 163.074 186.574  0.00  0.00    +0.012 C 
ATOM     27  C   UNL     1     151.418 164.168 187.514  0.00  0.00    -0.079 C 
ATOM     28  C   UNL     1     151.820 163.972 188.781  0.00  0.00    -0.059 C 
ATOM     29  C   UNL     1     152.272 165.056 189.723  0.00  0.00    +0.079 C 
ATOM     30  C   UNL     1     151.089 165.757 190.414  0.00  0.00    +0.004 C 
ATOM     31  C   UNL     1     150.267 166.622 189.453  0.00  0.00    +0.064 C 
ATOM     32  H   UNL     1     149.429 168.012 190.884  0.00  0.00    +0.037 HD
ATOM     33  H   UNL     1     147.693 165.555 190.096  0.00  0.00    +0.057 HD
ATOM     34  H   UNL     1     148.105 167.179 192.670  0.00  0.00    +0.059 HD
ATOM     35  H   UNL     1     146.284 164.745 191.976  0.00  0.00    +0.064 HD
ATOM     36  H   UNL     1     145.863 167.248 193.712  0.00  0.00    +0.032 HD
ATOM     37  H   UNL     1     145.082 165.733 194.102  0.00  0.00    +0.032 HD
ATOM     38  H   UNL     1     143.579 167.175 192.945  0.00  0.00    +0.060 HD
ATOM     39  H   UNL     1     145.715 167.908 191.295  0.00  0.00    +0.036 HD
ATOM     40  H   UNL     1     143.773 169.214 192.053  0.00  0.00    +0.077 HD
ATOM     41  H   UNL     1     143.830 170.906 190.424  0.00  0.00    +0.068 HD
ATOM     42  H   UNL     1     142.718 168.906 187.347  0.00  0.00    +0.069 HD
ATOM     43  H   UNL     1     145.211 171.367 187.902  0.00  0.00    +0.034 HD
ATOM     44  H   UNL     1     146.170 169.909 188.046  0.00  0.00    +0.034 HD
ATOM     45  H   UNL     1     145.852 170.634 185.733  0.00  0.00    +0.060 HD
ATOM     46  H   UNL     1     146.127 168.143 186.453  0.00  0.00    +0.034 HD
ATOM     47  H   UNL     1     144.424 167.950 186.017  0.00  0.00    +0.034 HD
ATOM     48  H   UNL     1     146.744 167.485 182.777  0.00  0.00    +0.062 HD
ATOM     49  H   UNL     1     147.340 166.404 185.625  0.00  0.00    +0.062 HD
ATOM     50  H   UNL     1     148.285 165.783 182.761  0.00  0.00    +0.069 HD
ATOM     51  H   UNL     1     149.265 162.394 185.441  0.00  0.00    +0.074 HD
ATOM     52  H   UNL     1     151.154 162.099 187.035  0.00  0.00    +0.038 HD
ATOM     53  H   UNL     1     151.415 165.180 187.106  0.00  0.00    +0.057 HD
ATOM     54  H   UNL     1     151.841 162.964 189.187  0.00  0.00    +0.059 HD
ATOM     55  H   UNL     1     152.900 165.770 189.179  0.00  0.00    +0.064 HD
ATOM     56  H   UNL     1     151.473 166.392 191.223  0.00  0.00    +0.032 HD
ATOM     57  H   UNL     1     150.459 165.005 190.900  0.00  0.00    +0.032 HD
ATOM     58  H   UNL     1     149.886 166.016 188.626  0.00  0.00    +0.060 HD
ENDROOT
BRANCH   1  59
ATOM     59  C   UNL     1     148.302 168.153 189.081  0.00  0.00    -0.057 C 
ATOM     60  H   UNL     1     148.609 169.204 189.115  0.00  0.00    +0.024 HD
ATOM     61  H   UNL     1     148.493 167.782 188.074  0.00  0.00    +0.024 HD
ATOM     62  H   UNL     1     147.220 168.112 189.246  0.00  0.00    +0.024 HD
ENDBRANCH   1  59
BRANCH  26  63
ATOM     63  C   UNL     1     151.850 163.129 185.324  0.00  0.00    -0.056 C 
ATOM     64  H   UNL     1     151.662 162.266 184.672  0.00  0.00    +0.024 HD
ATOM     65  H   UNL     1     151.640 164.031 184.741  0.00  0.00    +0.024 HD
ATOM     66  H   UNL     1     152.916 163.124 185.576  0.00  0.00    +0.024 HD
ENDBRANCH  26  63
BRANCH  18  67
ATOM     67  C   UNL     1     144.864 169.128 183.353  0.00  0.00    -0.043 C 
ATOM     68  H   UNL     1     145.519 169.732 182.714  0.00  0.00    +0.027 HD
ATOM     69  H   UNL     1     144.268 168.456 182.727  0.00  0.00    +0.027 HD
ATOM     70  H   UNL     1     144.172 169.824 183.837  0.00  0.00    +0.027 HD
ENDBRANCH  18  67
BRANCH   7  71
ATOM     71  C   UNL     1     144.759 166.722 189.798  0.00  0.00    -0.057 C 
ATOM     72  H   UNL     1     144.760 167.375 188.920  0.00  0.00    +0.023 HD
ATOM     73  H   UNL     1     145.660 166.105 189.732  0.00  0.00    +0.023 HD
ATOM     74  H   UNL     1     143.886 166.072 189.693  0.00  0.00    +0.023 HD
ENDBRANCH   7  71
BRANCH  31  75
ATOM     75  O   UNL     1     151.127 167.618 188.884  0.00  0.00    -0.391 OA
ATOM     76  H   UNL     1     151.407 168.216 189.598  0.00  0.00    +0.210 HD
ENDBRANCH  31  75
BRANCH  25  77
ATOM     77  C   UNL     1     148.474 162.844 187.398  0.00  0.00    +0.020 C 
ATOM     78  H   UNL     1     149.080 162.598 188.276  0.00  0.00    +0.036 HD
BRANCH  77  79
ATOM     79  C   UNL     1     147.710 164.117 187.826  0.00  0.00    -0.057 C 
ATOM     80  H   UNL     1     147.199 163.975 188.784  0.00  0.00    +0.023 HD
ATOM     81  H   UNL     1     146.962 164.396 187.078  0.00  0.00    +0.023 HD
ATOM     82  H   UNL     1     148.387 164.973 187.918  0.00  0.00    +0.023 HD
ENDBRANCH  77  79
BRANCH  77  83
ATOM     83  C   UNL     1     147.426 161.704 187.136  0.00  0.00    +0.067 C 
ATOM     84  H   UNL     1     146.485 161.960 187.642  0.00  0.00    +0.060 HD
BRANCH  83  85
ATOM     85  C   UNL     1     147.845 160.318 187.707  0.00  0.00    -0.017 C 
ATOM     86  H   UNL     1     147.692 159.571 186.924  0.00  0.00    +0.032 HD
BRANCH  85  87
ATOM     87  C   UNL     1     149.331 160.275 188.078  0.00  0.00    -0.060 C 
ATOM     88  H   UNL     1     149.463 160.051 189.141  0.00  0.00    +0.023 HD
ATOM     89  H   UNL     1     149.858 159.491 187.527  0.00  0.00    +0.023 HD
ATOM     90  H   UNL     1     149.830 161.223 187.857  0.00  0.00    +0.023 HD
ENDBRANCH  85  87
BRANCH  85  91
ATOM     91  C   UNL     1     146.957 159.823 188.883  0.00  0.00    -0.041 C 
ATOM     92  H   UNL     1     145.917 160.121 188.697  0.00  0.00    +0.027 HD
ATOM     93  H   UNL     1     147.259 160.380 189.782  0.00  0.00    +0.027 HD
BRANCH  91  94
ATOM     94  C   UNL     1     147.013 158.335 189.234  0.00  0.00    +0.007 C 
ATOM     95  H   UNL     1     148.035 158.083 189.546  0.00  0.00    +0.034 HD
ATOM     96  H   UNL     1     146.796 157.728 188.352  0.00  0.00    +0.034 HD
BRANCH  94  97
ATOM     97  C   UNL     1     146.106 157.904 190.373  0.00  0.00    +0.139 C 
ATOM     98  O   UNL     1     146.273 158.310 191.524  0.00  0.00    -0.297 OA
BRANCH  97  99
ATOM     99  C   UNL     1     145.005 156.910 190.026  0.00  0.00    +0.041 C 
ATOM    100  H   UNL     1     145.357 155.918 190.336  0.00  0.00    +0.040 HD
BRANCH  99 101
ATOM    101  C   UNL     1     144.823 156.849 188.512  0.00  0.00    -0.053 C 
ATOM    102  H   UNL     1     144.701 157.858 188.104  0.00  0.00    +0.024 HD
ATOM    103  H   UNL     1     143.931 156.283 188.227  0.00  0.00    +0.024 HD
ATOM    104  H   UNL     1     145.694 156.393 188.029  0.00  0.00    +0.024 HD
ENDBRANCH  99 101
BRANCH  99 105
ATOM    105  C   UNL     1     143.720 157.227 190.822  0.00  0.00    +0.071 C 
ATOM    106  H   UNL     1     143.962 157.926 191.637  0.00  0.00    +0.061 HD
BRANCH 105 107
ATOM    107  C   UNL     1     142.586 157.843 189.972  0.00  0.00    -0.006 C 
ATOM    108  H   UNL     1     141.609 157.586 190.399  0.00  0.00    +0.033 HD
ATOM    109  H   UNL     1     142.610 157.450 188.950  0.00  0.00    +0.033 HD
BRANCH 107 110
ATOM    110  C   UNL     1     142.680 159.351 189.949  0.00  0.00    -0.067 C 
ATOM    111  C   UNL     1     142.972 160.049 188.843  0.00  0.00    -0.005 C 
ATOM    112  H   UNL     1     142.497 159.826 190.909  0.00  0.00    +0.059 HD
ATOM    113  H   UNL     1     143.148 159.502 187.916  0.00  0.00    +0.078 HD
BRANCH 111 114
ATOM    114  N   UNL     1     143.092 161.426 188.726  0.00  0.00    -0.284 N 
ATOM    115  C   UNL     1     144.222 162.165 189.056  0.00  0.00    +0.206 C 
ATOM    116  O   UNL     1     144.350 163.378 188.933  0.00  0.00    -0.279 OA
ATOM    117  H   UNL     1     145.050 161.560 189.451  0.00  0.00    +0.126 HD
BRANCH 114 118
ATOM    118  C   UNL     1     141.940 162.147 188.197  0.00  0.00    +0.007 C 
ATOM    119  H   UNL     1     141.268 161.432 187.711  0.00  0.00    +0.043 HD
ATOM    120  H   UNL     1     142.229 162.905 187.463  0.00  0.00    +0.043 HD
ATOM    121  H   UNL     1     141.416 162.644 189.018  0.00  0.00    +0.043 HD
ENDBRANCH 114 118
ENDBRANCH 111 114
ENDBRANCH 107 110
ENDBRANCH 105 107
BRANCH 105 122
ATOM    122  O   UNL     1     143.210 155.999 191.383  0.00  0.00    -0.379 OA
BRANCH 122 123
ATOM    123  C   UNL     1     142.372 155.275 190.494  0.00  0.00    +0.037 C 
ATOM    124  H   UNL     1     142.407 155.702 189.491  0.00  0.00    +0.052 HD
ATOM    125  H   UNL     1     141.347 155.337 190.863  0.00  0.00    +0.052 HD
ATOM    126  H   UNL     1     142.662 154.222 190.464  0.00  0.00    +0.052 HD
ENDBRANCH 122 123
ENDBRANCH 105 122
ENDBRANCH  99 105
ENDBRANCH  97  99
ENDBRANCH  94  97
ENDBRANCH  91  94
ENDBRANCH  85  91
ENDBRANCH  83  85
BRANCH  83 127
ATOM    127  O   UNL     1     147.154 161.531 185.739  0.00  0.00    -0.379 OA
BRANCH 127 128
ATOM    128  C   UNL     1     145.890 162.044 185.326  0.00  0.00    +0.037 C 
ATOM    129  H   UNL     1     145.858 163.133 185.401  0.00  0.00    +0.052 HD
ATOM    130  H   UNL     1     145.126 161.625 185.990  0.00  0.00    +0.052 HD
ATOM    131  H   UNL     1     145.657 161.731 184.307  0.00  0.00    +0.052 HD
ENDBRANCH 127 128
ENDBRANCH  83 127
ENDBRANCH  77  83
ENDBRANCH  25  77
BRANCH   9 132
ATOM    132  O   UNL     1     145.747 170.230 190.455  0.00  0.00    -0.384 OA
ATOM    133  H   UNL     1     146.056 169.522 191.048  0.00  0.00    +0.210 HD
ENDBRANCH   9 132
BRANCH  29 134
ATOM    134  O   UNL     1     153.063 164.393 190.723  0.00  0.00    -0.376 OA
BRANCH 134 135
ATOM    135  C   UNL     1     154.315 163.939 190.231  0.00  0.00    +0.037 C 
ATOM    136  H   UNL     1     154.167 163.192 189.444  0.00  0.00    +0.052 HD
ATOM    137  H   UNL     1     154.859 163.470 191.057  0.00  0.00    +0.052 HD
ATOM    138  H   UNL     1     154.916 164.770 189.850  0.00  0.00    +0.052 HD
ENDBRANCH 134 135
ENDBRANCH  29 134
BRANCH   6 139
ATOM    139  O   UNL     1     143.754 165.378 191.922  0.00  0.00    -0.379 OA
BRANCH 139 140
ATOM    140  C   UNL     1     142.400 165.206 192.328  0.00  0.00    +0.037 C 
ATOM    141  H   UNL     1     142.067 164.181 192.130  0.00  0.00    +0.052 HD
ATOM    142  H   UNL     1     141.781 165.892 191.741  0.00  0.00    +0.052 HD
ATOM    143  H   UNL     1     142.275 165.448 193.387  0.00  0.00    +0.052 HD
ENDBRANCH 139 140
ENDBRANCH   6 139
BRANCH  16 144
ATOM    144  O   UNL     1     143.789 170.437 185.719  0.00  0.00    -0.379 OA
BRANCH 144 145
ATOM    145  C   UNL     1     143.623 171.845 185.636  0.00  0.00    +0.037 C 
ATOM    146  H   UNL     1     143.053 172.117 184.746  0.00  0.00    +0.052 HD
ATOM    147  H   UNL     1     143.140 172.239 186.534  0.00  0.00    +0.052 HD
ATOM    148  H   UNL     1     144.615 172.296 185.550  0.00  0.00    +0.052 HD
ENDBRANCH 144 145
ENDBRANCH  16 144
BRANCH   4 149
ATOM    149  O   UNL     1     147.327 164.876 193.775  0.00  0.00    -0.376 OA
BRANCH 149 150
ATOM    150  C   UNL     1     147.523 165.763 194.870  0.00  0.00    +0.037 C 
ATOM    151  H   UNL     1     146.825 165.485 195.667  0.00  0.00    +0.052 HD
ATOM    152  H   UNL     1     148.543 165.673 195.259  0.00  0.00    +0.052 HD
ATOM    153  H   UNL     1     147.317 166.797 194.577  0.00  0.00    +0.052 HD
ENDBRANCH 149 150
ENDBRANCH   4 149
TORSDOF 33
ENDMDL
MODEL 10
REMARK VINA RESULT:      -4.8      3.066      5.532
REMARK  Name = Sphinxolide B_conf3
REMARK  33 active torsions:
REMARK  status: ('A' for Active; 'I' for Inactive)
REMARK    1  A    between atoms: C_1  and  C_2
REMARK    2  A    between atoms: C_5  and  O_67
REMARK    3  A    between atoms: C_7  and  O_65
REMARK    4  A    between atoms: C_8  and  C_64
REMARK    5  A    between atoms: C_10  and  O_63
REMARK    6  A    between atoms: C_17  and  O_61
REMARK    7  A    between atoms: C_19  and  C_60
REMARK    8  A    between atoms: C_26  and  C_37
REMARK    9  A    between atoms: C_27  and  C_36
REMARK   10  A    between atoms: C_30  and  O_34
REMARK   11  A    between atoms: C_32  and  O_33
REMARK   12  A    between atoms: O_34  and  C_35
REMARK   13  A    between atoms: C_37  and  C_38
REMARK   14  A    between atoms: C_37  and  C_39
REMARK   15  A    between atoms: C_39  and  C_40
REMARK   16  A    between atoms: C_39  and  O_58
REMARK   17  A    between atoms: C_40  and  C_41
REMARK   18  A    between atoms: C_40  and  C_42
REMARK   19  A    between atoms: C_42  and  C_43
REMARK   20  A    between atoms: C_43  and  C_44
REMARK   21  A    between atoms: C_44  and  C_46
REMARK   22  A    between atoms: C_46  and  C_47
REMARK   23  A    between atoms: C_46  and  C_48
REMARK   24  A    between atoms: C_48  and  C_49
REMARK   25  A    between atoms: C_48  and  O_56
REMARK   26  A    between atoms: C_49  and  C_50
REMARK   27  A    between atoms: C_51  and  N_52
REMARK   28  A    between atoms: N_52  and  C_53
REMARK   29  A    between atoms: O_56  and  C_57
REMARK   30  A    between atoms: O_58  and  C_59
REMARK   31  A    between atoms: O_61  and  C_62
REMARK   32  A    between atoms: O_65  and  C_66
REMARK   33  A    between atoms: O_67  and  C_68
REMARK                            x       y       z     vdW  Elec       q    Type
REMARK                         _______ _______ _______ _____ _____    ______ ____
ROOT
ATOM      1  C   UNL     1     147.849 168.483 188.149  0.00  0.00    +0.000 C 
ATOM      2  C   UNL     1     147.954 167.195 187.364  0.00  0.00    -0.080 C 
ATOM      3  C   UNL     1     148.581 167.102 186.179  0.00  0.00    -0.059 C 
ATOM      4  C   UNL     1     148.789 165.826 185.402  0.00  0.00    +0.079 C 
ATOM      5  C   UNL     1     150.285 165.570 185.118  0.00  0.00    +0.004 C 
ATOM      6  C   UNL     1     151.083 164.797 186.195  0.00  0.00    +0.067 C 
ATOM      7  C   UNL     1     151.153 165.534 187.570  0.00  0.00    +0.022 C 
ATOM      8  C   UNL     1     152.635 165.727 188.035  0.00  0.00    +0.138 C 
ATOM      9  C   UNL     1     152.881 166.807 189.111  0.00  0.00    +0.114 C 
ATOM     10  C   UNL     1     152.506 166.293 190.476  0.00  0.00    -0.029 C 
ATOM     11  C   UNL     1     152.733 164.985 190.721  0.00  0.00    +0.024 C 
ATOM     12  C   UNL     1     153.270 164.062 189.700  0.00  0.00    +0.332 C 
ATOM     13  O   UNL     1     153.696 162.958 190.015  0.00  0.00    -0.246 OA
ATOM     14  O   UNL     1     153.261 164.483 188.409  0.00  0.00    -0.455 OA
ATOM     15  C   UNL     1     151.971 167.303 191.475  0.00  0.00    -0.002 C 
ATOM     16  C   UNL     1     151.508 166.869 192.889  0.00  0.00    +0.066 C 
ATOM     17  C   UNL     1     150.201 166.021 192.873  0.00  0.00    -0.005 C 
ATOM     18  C   UNL     1     149.466 165.974 194.214  0.00  0.00    -0.070 C 
ATOM     19  C   UNL     1     148.131 166.041 194.402  0.00  0.00    -0.062 C 
ATOM     20  C   UNL     1     147.057 166.084 193.428  0.00  0.00    -0.055 C 
ATOM     21  C   UNL     1     145.781 166.032 193.845  0.00  0.00    +0.023 C 
ATOM     22  C   UNL     1     144.567 165.852 193.026  0.00  0.00    +0.332 C 
ATOM     23  O   UNL     1     143.523 165.483 193.547  0.00  0.00    -0.246 OA
ATOM     24  O   UNL     1     144.767 166.065 191.704  0.00  0.00    -0.457 OA
ATOM     25  C   UNL     1     143.738 165.531 190.820  0.00  0.00    +0.114 C 
ATOM     26  C   UNL     1     142.754 166.645 190.345  0.00  0.00    +0.012 C 
ATOM     27  C   UNL     1     143.439 167.822 189.686  0.00  0.00    -0.079 C 
ATOM     28  C   UNL     1     143.331 168.142 188.385  0.00  0.00    -0.059 C 
ATOM     29  C   UNL     1     144.013 169.310 187.723  0.00  0.00    +0.079 C 
ATOM     30  C   UNL     1     145.463 168.985 187.322  0.00  0.00    +0.004 C 
ATOM     31  C   UNL     1     146.395 168.836 188.528  0.00  0.00    +0.064 C 
ATOM     32  H   UNL     1     148.272 169.313 187.564  0.00  0.00    +0.037 HD
ATOM     33  H   UNL     1     147.524 166.306 187.819  0.00  0.00    +0.057 HD
ATOM     34  H   UNL     1     148.998 168.000 185.724  0.00  0.00    +0.059 HD
ATOM     35  H   UNL     1     148.344 164.956 185.901  0.00  0.00    +0.064 HD
ATOM     36  H   UNL     1     150.796 166.518 184.898  0.00  0.00    +0.032 HD
ATOM     37  H   UNL     1     150.348 164.984 184.191  0.00  0.00    +0.032 HD
ATOM     38  H   UNL     1     152.096 164.690 185.782  0.00  0.00    +0.060 HD
ATOM     39  H   UNL     1     150.788 166.553 187.408  0.00  0.00    +0.036 HD
ATOM     40  H   UNL     1     153.188 166.078 187.151  0.00  0.00    +0.077 HD
ATOM     41  H   UNL     1     153.954 167.045 189.150  0.00  0.00    +0.068 HD
ATOM     42  H   UNL     1     152.566 164.523 191.684  0.00  0.00    +0.069 HD
ATOM     43  H   UNL     1     152.754 168.064 191.600  0.00  0.00    +0.034 HD
ATOM     44  H   UNL     1     151.121 167.822 191.020  0.00  0.00    +0.034 HD
ATOM     45  H   UNL     1     151.296 167.786 193.458  0.00  0.00    +0.060 HD
ATOM     46  H   UNL     1     149.531 166.425 192.106  0.00  0.00    +0.034 HD
ATOM     47  H   UNL     1     150.434 164.986 192.598  0.00  0.00    +0.034 HD
ATOM     48  H   UNL     1     147.785 165.997 195.437  0.00  0.00    +0.062 HD
ATOM     49  H   UNL     1     147.299 166.066 192.372  0.00  0.00    +0.062 HD
ATOM     50  H   UNL     1     145.551 166.004 194.906  0.00  0.00    +0.069 HD
ATOM     51  H   UNL     1     143.146 164.803 191.384  0.00  0.00    +0.074 HD
ATOM     52  H   UNL     1     142.048 166.195 189.636  0.00  0.00    +0.038 HD
ATOM     53  H   UNL     1     144.055 168.441 190.338  0.00  0.00    +0.057 HD
ATOM     54  H   UNL     1     142.705 167.538 187.734  0.00  0.00    +0.059 HD
ATOM     55  H   UNL     1     143.964 170.181 188.386  0.00  0.00    +0.064 HD
ATOM     56  H   UNL     1     145.843 169.788 186.677  0.00  0.00    +0.032 HD
ATOM     57  H   UNL     1     145.472 168.080 186.705  0.00  0.00    +0.032 HD
ATOM     58  H   UNL     1     146.029 168.052 189.197  0.00  0.00    +0.060 HD
ENDROOT
BRANCH   1  59
ATOM     59  C   UNL     1     148.701 168.356 189.419  0.00  0.00    -0.057 C 
ATOM     60  H   UNL     1     149.012 167.320 189.592  0.00  0.00    +0.024 HD
ATOM     61  H   UNL     1     149.600 168.966 189.341  0.00  0.00    +0.024 HD
ATOM     62  H   UNL     1     148.150 168.694 190.304  0.00  0.00    +0.024 HD
ENDBRANCH   1  59
BRANCH  26  63
ATOM     63  C   UNL     1     141.900 167.185 191.501  0.00  0.00    -0.056 C 
ATOM     64  H   UNL     1     141.431 168.139 191.228  0.00  0.00    +0.024 HD
ATOM     65  H   UNL     1     141.097 166.485 191.746  0.00  0.00    +0.024 HD
ATOM     66  H   UNL     1     142.494 167.358 192.405  0.00  0.00    +0.024 HD
ENDBRANCH  26  63
BRANCH  18  67
ATOM     67  C   UNL     1     150.336 165.769 195.437  0.00  0.00    -0.043 C 
ATOM     68  H   UNL     1     150.777 164.765 195.426  0.00  0.00    +0.027 HD
ATOM     69  H   UNL     1     151.136 166.516 195.472  0.00  0.00    +0.027 HD
ATOM     70  H   UNL     1     149.772 165.852 196.372  0.00  0.00    +0.027 HD
ENDBRANCH  18  67
BRANCH   7  71
ATOM     71  C   UNL     1     150.242 164.878 188.616  0.00  0.00    -0.057 C 
ATOM     72  H   UNL     1     150.578 165.094 189.634  0.00  0.00    +0.023 HD
ATOM     73  H   UNL     1     149.209 165.235 188.544  0.00  0.00    +0.023 HD
ATOM     74  H   UNL     1     150.239 163.789 188.519  0.00  0.00    +0.023 HD
ENDBRANCH   7  71
BRANCH  31  75
ATOM     75  O   UNL     1     146.383 170.062 189.270  0.00  0.00    -0.391 OA
ATOM     76  H   UNL     1     146.098 170.773 188.670  0.00  0.00    +0.210 HD
ENDBRANCH  31  75
BRANCH  25  77
ATOM     77  C   UNL     1     144.456 164.756 189.669  0.00  0.00    +0.020 C 
ATOM     78  H   UNL     1     144.527 165.425 188.806  0.00  0.00    +0.036 HD
BRANCH  77  79
ATOM     79  C   UNL     1     145.929 164.468 190.033  0.00  0.00    -0.057 C 
ATOM     80  H   UNL     1     146.486 165.394 190.215  0.00  0.00    +0.023 HD
ATOM     81  H   UNL     1     146.432 163.919 189.231  0.00  0.00    +0.023 HD
ATOM     82  H   UNL     1     146.001 163.840 190.927  0.00  0.00    +0.023 HD
ENDBRANCH  77  79
BRANCH  77  83
ATOM     83  C   UNL     1     143.779 163.404 189.242  0.00  0.00    +0.067 C 
ATOM     84  H   UNL     1     143.286 162.959 190.118  0.00  0.00    +0.060 HD
BRANCH  83  85
ATOM     85  C   UNL     1     144.784 162.328 188.737  0.00  0.00    -0.017 C 
ATOM     86  H   UNL     1     145.778 162.601 189.099  0.00  0.00    +0.032 HD
BRANCH  85  87
ATOM     87  C   UNL     1     144.470 160.939 189.301  0.00  0.00    -0.060 C 
ATOM     88  H   UNL     1     145.326 160.267 189.188  0.00  0.00    +0.023 HD
ATOM     89  H   UNL     1     144.247 160.983 190.371  0.00  0.00    +0.023 HD
ATOM     90  H   UNL     1     143.604 160.488 188.805  0.00  0.00    +0.023 HD
ENDBRANCH  85  87
BRANCH  85  91
ATOM     91  C   UNL     1     144.940 162.286 187.190  0.00  0.00    -0.041 C 
ATOM     92  H   UNL     1     143.949 162.366 186.727  0.00  0.00    +0.027 HD
ATOM     93  H   UNL     1     145.302 161.283 186.922  0.00  0.00    +0.027 HD
BRANCH  91  94
ATOM     94  C   UNL     1     145.895 163.296 186.549  0.00  0.00    +0.007 C 
ATOM     95  H   UNL     1     146.476 162.789 185.769  0.00  0.00    +0.034 HD
ATOM     96  H   UNL     1     146.612 163.663 187.287  0.00  0.00    +0.034 HD
BRANCH  94  97
ATOM     97  C   UNL     1     145.224 164.479 185.872  0.00  0.00    +0.139 C 
ATOM     98  O   UNL     1     145.195 165.594 186.394  0.00  0.00    -0.297 OA
BRANCH  97  99
ATOM     99  C   UNL     1     144.552 164.203 184.532  0.00  0.00    +0.041 C 
ATOM    100  H   UNL     1     143.798 163.426 184.705  0.00  0.00    +0.040 HD
BRANCH  99 101
ATOM    101  C   UNL     1     145.567 163.612 183.558  0.00  0.00    -0.053 C 
ATOM    102  H   UNL     1     146.521 164.144 183.635  0.00  0.00    +0.024 HD
ATOM    103  H   UNL     1     145.239 163.701 182.518  0.00  0.00    +0.024 HD
ATOM    104  H   UNL     1     145.752 162.555 183.776  0.00  0.00    +0.024 HD
ENDBRANCH  99 101
BRANCH  99 105
ATOM    105  C   UNL     1     143.823 165.466 184.024  0.00  0.00    +0.071 C 
ATOM    106  H   UNL     1     143.677 166.163 184.862  0.00  0.00    +0.061 HD
BRANCH 105 107
ATOM    107  C   UNL     1     144.567 166.213 182.894  0.00  0.00    -0.006 C 
ATOM    108  H   UNL     1     143.878 166.440 182.071  0.00  0.00    +0.033 HD
ATOM    109  H   UNL     1     145.372 165.594 182.484  0.00  0.00    +0.033 HD
BRANCH 107 110
ATOM    110  C   UNL     1     145.124 167.529 183.385  0.00  0.00    -0.067 C 
ATOM    111  C   UNL     1     145.913 168.313 182.637  0.00  0.00    -0.005 C 
ATOM    112  H   UNL     1     144.840 167.785 184.401  0.00  0.00    +0.059 HD
ATOM    113  H   UNL     1     146.160 167.988 181.626  0.00  0.00    +0.078 HD
BRANCH 111 114
ATOM    114  N   UNL     1     146.480 169.526 183.002  0.00  0.00    -0.284 N 
ATOM    115  C   UNL     1     147.028 169.815 184.246  0.00  0.00    +0.206 C 
ATOM    116  O   UNL     1     147.555 170.872 184.572  0.00  0.00    -0.279 OA
ATOM    117  H   UNL     1     146.964 168.985 184.964  0.00  0.00    +0.126 HD
BRANCH 114 118
ATOM    118  C   UNL     1     146.517 170.571 181.985  0.00  0.00    +0.007 C 
ATOM    119  H   UNL     1     147.042 170.189 181.103  0.00  0.00    +0.043 HD
ATOM    120  H   UNL     1     147.034 171.469 182.334  0.00  0.00    +0.043 HD
ATOM    121  H   UNL     1     145.493 170.846 181.712  0.00  0.00    +0.043 HD
ENDBRANCH 114 118
ENDBRANCH 111 114
ENDBRANCH 107 110
ENDBRANCH 105 107
BRANCH 105 122
ATOM    122  O   UNL     1     142.536 165.076 183.499  0.00  0.00    -0.379 OA
BRANCH 122 123
ATOM    123  C   UNL     1     141.624 164.645 184.499  0.00  0.00    +0.037 C 
ATOM    124  H   UNL     1     140.620 164.533 184.088  0.00  0.00    +0.052 HD
ATOM    125  H   UNL     1     141.597 165.401 185.285  0.00  0.00    +0.052 HD
ATOM    126  H   UNL     1     141.957 163.703 184.942  0.00  0.00    +0.052 HD
ENDBRANCH 122 123
ENDBRANCH 105 122
ENDBRANCH  99 105
ENDBRANCH  97  99
ENDBRANCH  94  97
ENDBRANCH  91  94
ENDBRANCH  85  91
ENDBRANCH  83  85
BRANCH  83 127
ATOM    127  O   UNL     1     142.795 163.592 188.218  0.00  0.00    -0.379 OA
BRANCH 127 128
ATOM    128  C   UNL     1     141.540 162.977 188.498  0.00  0.00    +0.037 C 
ATOM    129  H   UNL     1     141.626 161.887 188.518  0.00  0.00    +0.052 HD
ATOM    130  H   UNL     1     140.844 163.258 187.700  0.00  0.00    +0.052 HD
ATOM    131  H   UNL     1     141.132 163.338 189.443  0.00  0.00    +0.052 HD
ENDBRANCH 127 128
ENDBRANCH  83 127
ENDBRANCH  77  83
ENDBRANCH  25  77
BRANCH   9 132
ATOM    132  O   UNL     1     152.200 168.015 188.810  0.00  0.00    -0.384 OA
ATOM    133  H   UNL     1     152.032 168.473 189.653  0.00  0.00    +0.210 HD
ENDBRANCH   9 132
BRANCH  29 134
ATOM    134  O   UNL     1     143.253 169.575 186.533  0.00  0.00    -0.376 OA
BRANCH 134 135
ATOM    135  C   UNL     1     143.760 170.666 185.779  0.00  0.00    +0.037 C 
ATOM    136  H   UNL     1     144.412 171.288 186.401  0.00  0.00    +0.052 HD
ATOM    137  H   UNL     1     142.915 171.274 185.442  0.00  0.00    +0.052 HD
ATOM    138  H   UNL     1     144.307 170.317 184.897  0.00  0.00    +0.052 HD
ENDBRANCH 134 135
ENDBRANCH  29 134
BRANCH   6 139
ATOM    139  O   UNL     1     150.473 163.503 186.296  0.00  0.00    -0.379 OA
BRANCH 139 140
ATOM    140  C   UNL     1     151.379 162.434 186.042  0.00  0.00    +0.037 C 
ATOM    141  H   UNL     1     152.202 162.771 185.401  0.00  0.00    +0.052 HD
ATOM    142  H   UNL     1     150.831 161.643 185.519  0.00  0.00    +0.052 HD
ATOM    143  H   UNL     1     151.770 162.022 186.977  0.00  0.00    +0.052 HD
ENDBRANCH 139 140
ENDBRANCH   6 139
BRANCH  16 144
ATOM    144  O   UNL     1     152.538 166.132 193.569  0.00  0.00    -0.379 OA
BRANCH 144 145
ATOM    145  C   UNL     1     153.725 166.876 193.799  0.00  0.00    +0.037 C 
ATOM    146  H   UNL     1     153.760 167.244 194.826  0.00  0.00    +0.052 HD
ATOM    147  H   UNL     1     154.614 166.281 193.576  0.00  0.00    +0.052 HD
ATOM    148  H   UNL     1     153.713 167.743 193.132  0.00  0.00    +0.052 HD
ENDBRANCH 144 145
ENDBRANCH  16 144
BRANCH   4 149
ATOM    149  O   UNL     1     148.162 166.032 184.125  0.00  0.00    -0.376 OA
BRANCH 149 150
ATOM    150  C   UNL     1     148.829 165.346 183.073  0.00  0.00    +0.037 C 
ATOM    151  H   UNL     1     148.549 164.288 183.120  0.00  0.00    +0.052 HD
ATOM    152  H   UNL     1     148.519 165.741 182.100  0.00  0.00    +0.052 HD
ATOM    153  H   UNL     1     149.915 165.420 183.185  0.00  0.00    +0.052 HD
ENDBRANCH 149 150
ENDBRANCH   4 149
TORSDOF 33
ENDMDL
