MODEL 1
REMARK VINA RESULT:      -5.3      0.000      0.000
REMARK  Name = Sphinxolide B_conf1
REMARK  33 active torsions:
REMARK  status: ('A' for Active; 'I' for Inactive)
REMARK    1  A    between atoms: C_1  and  C_2
REMARK    2  A    between atoms: C_5  and  O_67
REMARK    3  A    between atoms: C_7  and  O_65
REMARK    4  A    between atoms: C_8  and  C_64
REMARK    5  A    between atoms: C_10  and  O_63
REMARK    6  A    between atoms: C_17  and  O_61
REMARK    7  A    between atoms: C_19  and  C_60
REMARK    8  A    between atoms: C_26  and  C_37
REMARK    9  A    between atoms: C_27  and  C_36
REMARK   10  A    between atoms: C_30  and  O_34
REMARK   11  A    between atoms: C_32  and  O_33
REMARK   12  A    between atoms: O_34  and  C_35
REMARK   13  A    between atoms: C_37  and  C_38
REMARK   14  A    between atoms: C_37  and  C_39
REMARK   15  A    between atoms: C_39  and  C_40
REMARK   16  A    between atoms: C_39  and  O_58
REMARK   17  A    between atoms: C_40  and  C_41
REMARK   18  A    between atoms: C_40  and  C_42
REMARK   19  A    between atoms: C_42  and  C_43
REMARK   20  A    between atoms: C_43  and  C_44
REMARK   21  A    between atoms: C_44  and  C_46
REMARK   22  A    between atoms: C_46  and  C_47
REMARK   23  A    between atoms: C_46  and  C_48
REMARK   24  A    between atoms: C_48  and  C_49
REMARK   25  A    between atoms: C_48  and  O_56
REMARK   26  A    between atoms: C_49  and  C_50
REMARK   27  A    between atoms: C_51  and  N_52
REMARK   28  A    between atoms: N_52  and  C_53
REMARK   29  A    between atoms: O_56  and  C_57
REMARK   30  A    between atoms: O_58  and  C_59
REMARK   31  A    between atoms: O_61  and  C_62
REMARK   32  A    between atoms: O_65  and  C_66
REMARK   33  A    between atoms: O_67  and  C_68
REMARK                            x       y       z     vdW  Elec       q    Type
REMARK                         _______ _______ _______ _____ _____    ______ ____
ROOT
ATOM      1  C   UNL     1     147.228 160.973 187.464  0.00  0.00    +0.000 C 
ATOM      2  C   UNL     1     148.737 160.997 187.613  0.00  0.00    -0.080 C 
ATOM      3  C   UNL     1     149.597 159.966 187.524  0.00  0.00    -0.059 C 
ATOM      4  C   UNL     1     151.109 160.010 187.705  0.00  0.00    +0.079 C 
ATOM      5  C   UNL     1     151.623 161.352 188.254  0.00  0.00    +0.004 C 
ATOM      6  C   UNL     1     153.145 161.433 188.447  0.00  0.00    +0.067 C 
ATOM      7  C   UNL     1     153.596 162.812 189.051  0.00  0.00    +0.022 C 
ATOM      8  C   UNL     1     153.181 164.021 188.142  0.00  0.00    +0.138 C 
ATOM      9  C   UNL     1     152.034 164.899 188.706  0.00  0.00    +0.114 C 
ATOM     10  C   UNL     1     152.556 165.764 189.827  0.00  0.00    -0.029 C 
ATOM     11  C   UNL     1     153.820 166.212 189.723  0.00  0.00    +0.024 C 
ATOM     12  C   UNL     1     154.684 165.900 188.569  0.00  0.00    +0.332 C 
ATOM     13  O   UNL     1     155.700 166.553 188.360  0.00  0.00    -0.246 OA
ATOM     14  O   UNL     1     154.305 164.866 187.780  0.00  0.00    -0.455 OA
ATOM     15  C   UNL     1     151.628 166.065 190.995  0.00  0.00    -0.002 C 
ATOM     16  C   UNL     1     152.126 167.009 192.115  0.00  0.00    +0.066 C 
ATOM     17  C   UNL     1     150.987 167.343 193.116  0.00  0.00    -0.005 C 
ATOM     18  C   UNL     1     150.313 166.155 193.788  0.00  0.00    -0.070 C 
ATOM     19  C   UNL     1     149.068 165.707 193.535  0.00  0.00    -0.062 C 
ATOM     20  C   UNL     1     148.132 166.219 192.557  0.00  0.00    -0.055 C 
ATOM     21  C   UNL     1     146.934 165.651 192.357  0.00  0.00    +0.023 C 
ATOM     22  C   UNL     1     146.019 166.185 191.329  0.00  0.00    +0.332 C 
ATOM     23  O   UNL     1     146.185 167.219 190.701  0.00  0.00    -0.246 OA
ATOM     24  O   UNL     1     144.999 165.304 191.209  0.00  0.00    -0.457 OA
ATOM     25  C   UNL     1     143.949 165.580 190.236  0.00  0.00    +0.114 C 
ATOM     26  C   UNL     1     143.918 164.368 189.253  0.00  0.00    +0.012 C 
ATOM     27  C   UNL     1     145.311 164.159 188.662  0.00  0.00    -0.079 C 
ATOM     28  C   UNL     1     145.716 164.326 187.391  0.00  0.00    -0.059 C 
ATOM     29  C   UNL     1     147.134 164.098 186.940  0.00  0.00    +0.079 C 
ATOM     30  C   UNL     1     147.268 163.036 185.832  0.00  0.00    +0.004 C 
ATOM     31  C   UNL     1     146.759 161.615 186.128  0.00  0.00    +0.064 C 
ATOM     32  H   UNL     1     146.821 161.562 188.295  0.00  0.00    +0.037 HD
ATOM     33  H   UNL     1     149.139 161.984 187.832  0.00  0.00    +0.057 HD
ATOM     34  H   UNL     1     149.209 158.973 187.310  0.00  0.00    +0.059 HD
ATOM     35  H   UNL     1     151.397 159.210 188.399  0.00  0.00    +0.064 HD
ATOM     36  H   UNL     1     151.326 162.138 187.553  0.00  0.00    +0.032 HD
ATOM     37  H   UNL     1     151.137 161.532 189.221  0.00  0.00    +0.032 HD
ATOM     38  H   UNL     1     153.646 161.292 187.479  0.00  0.00    +0.060 HD
ATOM     39  H   UNL     1     153.093 162.906 190.024  0.00  0.00    +0.036 HD
ATOM     40  H   UNL     1     152.834 163.622 187.181  0.00  0.00    +0.077 HD
ATOM     41  H   UNL     1     151.670 165.561 187.910  0.00  0.00    +0.068 HD
ATOM     42  H   UNL     1     154.287 166.858 190.459  0.00  0.00    +0.069 HD
ATOM     43  H   UNL     1     150.707 166.491 190.576  0.00  0.00    +0.034 HD
ATOM     44  H   UNL     1     151.377 165.098 191.450  0.00  0.00    +0.034 HD
ATOM     45  H   UNL     1     152.457 167.950 191.653  0.00  0.00    +0.060 HD
ATOM     46  H   UNL     1     150.248 167.956 192.588  0.00  0.00    +0.034 HD
ATOM     47  H   UNL     1     151.368 167.998 193.908  0.00  0.00    +0.034 HD
ATOM     48  H   UNL     1     148.710 164.847 194.106  0.00  0.00    +0.062 HD
ATOM     49  H   UNL     1     148.414 167.084 191.961  0.00  0.00    +0.062 HD
ATOM     50  H   UNL     1     146.597 164.786 192.917  0.00  0.00    +0.069 HD
ATOM     51  H   UNL     1     144.232 166.464 189.647  0.00  0.00    +0.074 HD
ATOM     52  H   UNL     1     143.732 163.451 189.824  0.00  0.00    +0.038 HD
ATOM     53  H   UNL     1     146.055 163.828 189.387  0.00  0.00    +0.057 HD
ATOM     54  H   UNL     1     145.026 164.650 186.617  0.00  0.00    +0.059 HD
ATOM     55  H   UNL     1     147.771 163.813 187.784  0.00  0.00    +0.064 HD
ATOM     56  H   UNL     1     148.328 162.983 185.547  0.00  0.00    +0.032 HD
ATOM     57  H   UNL     1     146.752 163.411 184.934  0.00  0.00    +0.032 HD
ATOM     58  H   UNL     1     147.095 160.981 185.297  0.00  0.00    +0.060 HD
ENDROOT
BRANCH   1  59
ATOM     59  C   UNL     1     146.621 159.569 187.635  0.00  0.00    -0.057 C 
ATOM     60  H   UNL     1     147.190 158.819 187.074  0.00  0.00    +0.024 HD
ATOM     61  H   UNL     1     146.642 159.260 188.687  0.00  0.00    +0.024 HD
ATOM     62  H   UNL     1     145.581 159.535 187.295  0.00  0.00    +0.024 HD
ENDBRANCH   1  59
BRANCH  26  63
ATOM     63  C   UNL     1     142.844 164.470 188.168  0.00  0.00    -0.056 C 
ATOM     64  H   UNL     1     143.266 164.327 187.168  0.00  0.00    +0.024 HD
ATOM     65  H   UNL     1     142.056 163.721 188.315  0.00  0.00    +0.024 HD
ATOM     66  H   UNL     1     142.336 165.434 188.196  0.00  0.00    +0.024 HD
ENDBRANCH  26  63
BRANCH  18  67
ATOM     67  C   UNL     1     151.141 165.464 194.846  0.00  0.00    -0.043 C 
ATOM     68  H   UNL     1     151.911 166.136 195.235  0.00  0.00    +0.027 HD
ATOM     69  H   UNL     1     151.650 164.576 194.460  0.00  0.00    +0.027 HD
ATOM     70  H   UNL     1     150.507 165.134 195.677  0.00  0.00    +0.027 HD
ENDBRANCH  18  67
BRANCH   7  71
ATOM     71  C   UNL     1     155.100 162.780 189.366  0.00  0.00    -0.057 C 
ATOM     72  H   UNL     1     155.313 163.235 190.339  0.00  0.00    +0.023 HD
ATOM     73  H   UNL     1     155.489 161.759 189.363  0.00  0.00    +0.023 HD
ATOM     74  H   UNL     1     155.677 163.317 188.606  0.00  0.00    +0.023 HD
ENDBRANCH   7  71
BRANCH  31  75
ATOM     75  O   UNL     1     145.328 161.632 186.057  0.00  0.00    -0.391 OA
ATOM     76  H   UNL     1     145.067 162.415 185.546  0.00  0.00    +0.210 HD
ENDBRANCH  31  75
BRANCH  25  77
ATOM     77  C   UNL     1     142.680 165.970 191.066  0.00  0.00    +0.020 C 
ATOM     78  H   UNL     1     141.825 165.730 190.420  0.00  0.00    +0.036 HD
BRANCH  77  79
ATOM     79  C   UNL     1     142.503 165.058 192.291  0.00  0.00    -0.057 C 
ATOM     80  H   UNL     1     141.498 165.093 192.708  0.00  0.00    +0.023 HD
ATOM     81  H   UNL     1     143.213 165.323 193.082  0.00  0.00    +0.023 HD
ATOM     82  H   UNL     1     142.701 164.015 192.016  0.00  0.00    +0.023 HD
ENDBRANCH  77  79
BRANCH  77  83
ATOM     83  C   UNL     1     142.504 167.474 191.467  0.00  0.00    +0.067 C 
ATOM     84  H   UNL     1     141.458 167.603 191.785  0.00  0.00    +0.060 HD
BRANCH  83  85
ATOM     85  C   UNL     1     142.732 168.473 190.286  0.00  0.00    -0.017 C 
ATOM     86  H   UNL     1     143.751 168.384 189.913  0.00  0.00    +0.032 HD
BRANCH  85  87
ATOM     87  C   UNL     1     141.809 168.109 189.112  0.00  0.00    -0.060 C 
ATOM     88  H   UNL     1     140.787 167.946 189.461  0.00  0.00    +0.023 HD
ATOM     89  H   UNL     1     141.772 168.910 188.367  0.00  0.00    +0.023 HD
ATOM     90  H   UNL     1     142.147 167.197 188.610  0.00  0.00    +0.023 HD
ENDBRANCH  85  87
BRANCH  85  91
ATOM     91  C   UNL     1     142.527 169.962 190.652  0.00  0.00    -0.041 C 
ATOM     92  H   UNL     1     142.238 170.047 191.707  0.00  0.00    +0.027 HD
ATOM     93  H   UNL     1     141.687 170.377 190.080  0.00  0.00    +0.027 HD
BRANCH  91  94
ATOM     94  C   UNL     1     143.769 170.826 190.391  0.00  0.00    +0.007 C 
ATOM     95  H   UNL     1     143.687 171.738 190.993  0.00  0.00    +0.034 HD
ATOM     96  H   UNL     1     144.671 170.300 190.700  0.00  0.00    +0.034 HD
BRANCH  94  97
ATOM     97  C   UNL     1     143.922 171.249 188.932  0.00  0.00    +0.139 C 
ATOM     98  O   UNL     1     142.944 171.377 188.190  0.00  0.00    -0.297 OA
BRANCH  97  99
ATOM     99  C   UNL     1     145.312 171.592 188.392  0.00  0.00    +0.041 C 
ATOM    100  H   UNL     1     145.819 172.072 189.240  0.00  0.00    +0.040 HD
BRANCH  99 101
ATOM    101  C   UNL     1     145.320 172.653 187.294  0.00  0.00    -0.053 C 
ATOM    102  H   UNL     1     144.789 172.329 186.393  0.00  0.00    +0.024 HD
ATOM    103  H   UNL     1     146.345 172.909 187.009  0.00  0.00    +0.024 HD
ATOM    104  H   UNL     1     144.837 173.571 187.646  0.00  0.00    +0.024 HD
ENDBRANCH  99 101
BRANCH  99 105
ATOM    105  C   UNL     1     146.095 170.309 188.036  0.00  0.00    +0.071 C 
ATOM    106  H   UNL     1     146.630 170.448 187.086  0.00  0.00    +0.061 HD
BRANCH 105 107
ATOM    107  C   UNL     1     147.119 169.899 189.117  0.00  0.00    -0.006 C 
ATOM    108  H   UNL     1     146.720 169.087 189.730  0.00  0.00    +0.033 HD
ATOM    109  H   UNL     1     148.038 169.535 188.642  0.00  0.00    +0.033 HD
BRANCH 107 110
ATOM    110  C   UNL     1     147.460 171.026 190.063  0.00  0.00    -0.067 C 
ATOM    111  C   UNL     1     147.852 170.821 191.330  0.00  0.00    -0.005 C 
ATOM    112  H   UNL     1     147.346 172.029 189.663  0.00  0.00    +0.059 HD
ATOM    113  H   UNL     1     147.960 169.798 191.687  0.00  0.00    +0.078 HD
BRANCH 111 114
ATOM    114  N   UNL     1     148.145 171.808 192.259  0.00  0.00    -0.284 N 
ATOM    115  C   UNL     1     149.321 171.754 193.001  0.00  0.00    +0.206 C 
ATOM    116  O   UNL     1     149.689 172.561 193.847  0.00  0.00    -0.279 OA
ATOM    117  H   UNL     1     149.937 170.870 192.759  0.00  0.00    +0.126 HD
BRANCH 114 118
ATOM    118  C   UNL     1     147.246 172.930 192.488  0.00  0.00    +0.007 C 
ATOM    119  H   UNL     1     146.228 172.559 192.650  0.00  0.00    +0.043 HD
ATOM    120  H   UNL     1     147.536 173.511 193.367  0.00  0.00    +0.043 HD
ATOM    121  H   UNL     1     147.270 173.591 191.615  0.00  0.00    +0.043 HD
ENDBRANCH 114 118
ENDBRANCH 111 114
ENDBRANCH 107 110
ENDBRANCH 105 107
BRANCH 105 122
ATOM    122  O   UNL     1     145.167 169.213 187.910  0.00  0.00    -0.379 OA
BRANCH 122 123
ATOM    123  C   UNL     1     145.307 168.495 186.690  0.00  0.00    +0.037 C 
ATOM    124  H   UNL     1     144.360 167.991 186.480  0.00  0.00    +0.052 HD
ATOM    125  H   UNL     1     146.089 167.736 186.781  0.00  0.00    +0.052 HD
ATOM    126  H   UNL     1     145.532 169.170 185.859  0.00  0.00    +0.052 HD
ENDBRANCH 122 123
ENDBRANCH 105 122
ENDBRANCH  99 105
ENDBRANCH  97  99
ENDBRANCH  94  97
ENDBRANCH  91  94
ENDBRANCH  85  91
ENDBRANCH  83  85
BRANCH  83 127
ATOM    127  O   UNL     1     143.359 167.778 192.567  0.00  0.00    -0.379 OA
BRANCH 127 128
ATOM    128  C   UNL     1     142.665 168.015 193.788  0.00  0.00    +0.037 C 
ATOM    129  H   UNL     1     143.125 168.841 194.340  0.00  0.00    +0.052 HD
ATOM    130  H   UNL     1     142.734 167.107 194.393  0.00  0.00    +0.052 HD
ATOM    131  H   UNL     1     141.610 168.230 193.597  0.00  0.00    +0.052 HD
ENDBRANCH 127 128
ENDBRANCH  83 127
ENDBRANCH  77  83
ENDBRANCH  25  77
BRANCH   9 132
ATOM    132  O   UNL     1     150.939 164.106 189.135  0.00  0.00    -0.384 OA
ATOM    133  H   UNL     1     150.424 164.637 189.766  0.00  0.00    +0.210 HD
ENDBRANCH   9 132
BRANCH  29 134
ATOM    134  O   UNL     1     147.657 165.320 186.391  0.00  0.00    -0.376 OA
BRANCH 134 135
ATOM    135  C   UNL     1     148.236 166.186 187.359  0.00  0.00    +0.037 C 
ATOM    136  H   UNL     1     149.238 166.456 187.016  0.00  0.00    +0.052 HD
ATOM    137  H   UNL     1     147.654 167.107 187.462  0.00  0.00    +0.052 HD
ATOM    138  H   UNL     1     148.329 165.683 188.327  0.00  0.00    +0.052 HD
ENDBRANCH 134 135
ENDBRANCH  29 134
BRANCH   6 139
ATOM    139  O   UNL     1     153.514 160.386 189.365  0.00  0.00    -0.379 OA
BRANCH 139 140
ATOM    140  C   UNL     1     154.402 159.434 188.791  0.00  0.00    +0.037 C 
ATOM    141  H   UNL     1     155.345 159.467 189.344  0.00  0.00    +0.052 HD
ATOM    142  H   UNL     1     153.988 158.426 188.870  0.00  0.00    +0.052 HD
ATOM    143  H   UNL     1     154.605 159.670 187.742  0.00  0.00    +0.052 HD
ENDBRANCH 139 140
ENDBRANCH   6 139
BRANCH  16 144
ATOM    144  O   UNL     1     153.246 166.396 192.770  0.00  0.00    -0.379 OA
BRANCH 144 145
ATOM    145  C   UNL     1     154.013 167.289 193.566  0.00  0.00    +0.037 C 
ATOM    146  H   UNL     1     153.373 167.814 194.283  0.00  0.00    +0.052 HD
ATOM    147  H   UNL     1     154.468 168.031 192.902  0.00  0.00    +0.052 HD
ATOM    148  H   UNL     1     154.815 166.762 194.088  0.00  0.00    +0.052 HD
ENDBRANCH 144 145
ENDBRANCH  16 144
BRANCH   4 149
ATOM    149  O   UNL     1     151.723 159.796 186.426  0.00  0.00    -0.376 OA
BRANCH 149 150
ATOM    150  C   UNL     1     151.935 158.425 186.118  0.00  0.00    +0.037 C 
ATOM    151  H   UNL     1     151.266 157.785 186.701  0.00  0.00    +0.052 HD
ATOM    152  H   UNL     1     152.965 158.174 186.377  0.00  0.00    +0.052 HD
ATOM    153  H   UNL     1     151.797 158.238 185.050  0.00  0.00    +0.052 HD
ENDBRANCH 149 150
ENDBRANCH   4 149
TORSDOF 33
ENDMDL
MODEL 2
REMARK VINA RESULT:      -5.1      3.866     12.508
REMARK  Name = Sphinxolide B_conf1
REMARK  33 active torsions:
REMARK  status: ('A' for Active; 'I' for Inactive)
REMARK    1  A    between atoms: C_1  and  C_2
REMARK    2  A    between atoms: C_5  and  O_67
REMARK    3  A    between atoms: C_7  and  O_65
REMARK    4  A    between atoms: C_8  and  C_64
REMARK    5  A    between atoms: C_10  and  O_63
REMARK    6  A    between atoms: C_17  and  O_61
REMARK    7  A    between atoms: C_19  and  C_60
REMARK    8  A    between atoms: C_26  and  C_37
REMARK    9  A    between atoms: C_27  and  C_36
REMARK   10  A    between atoms: C_30  and  O_34
REMARK   11  A    between atoms: C_32  and  O_33
REMARK   12  A    between atoms: O_34  and  C_35
REMARK   13  A    between atoms: C_37  and  C_38
REMARK   14  A    between atoms: C_37  and  C_39
REMARK   15  A    between atoms: C_39  and  C_40
REMARK   16  A    between atoms: C_39  and  O_58
REMARK   17  A    between atoms: C_40  and  C_41
REMARK   18  A    between atoms: C_40  and  C_42
REMARK   19  A    between atoms: C_42  and  C_43
REMARK   20  A    between atoms: C_43  and  C_44
REMARK   21  A    between atoms: C_44  and  C_46
REMARK   22  A    between atoms: C_46  and  C_47
REMARK   23  A    between atoms: C_46  and  C_48
REMARK   24  A    between atoms: C_48  and  C_49
REMARK   25  A    between atoms: C_48  and  O_56
REMARK   26  A    between atoms: C_49  and  C_50
REMARK   27  A    between atoms: C_51  and  N_52
REMARK   28  A    between atoms: N_52  and  C_53
REMARK   29  A    between atoms: O_56  and  C_57
REMARK   30  A    between atoms: O_58  and  C_59
REMARK   31  A    between atoms: O_61  and  C_62
REMARK   32  A    between atoms: O_65  and  C_66
REMARK   33  A    between atoms: O_67  and  C_68
REMARK                            x       y       z     vdW  Elec       q    Type
REMARK                         _______ _______ _______ _____ _____    ______ ____
ROOT
ATOM      1  C   UNL     1     147.631 165.847 193.212  0.00  0.00    +0.000 C 
ATOM      2  C   UNL     1     146.337 166.287 192.554  0.00  0.00    -0.080 C 
ATOM      3  C   UNL     1     145.076 166.048 192.957  0.00  0.00    -0.059 C 
ATOM      4  C   UNL     1     143.790 166.477 192.263  0.00  0.00    +0.079 C 
ATOM      5  C   UNL     1     144.016 167.052 190.854  0.00  0.00    +0.004 C 
ATOM      6  C   UNL     1     142.739 167.498 190.124  0.00  0.00    +0.067 C 
ATOM      7  C   UNL     1     143.037 168.033 188.677  0.00  0.00    +0.022 C 
ATOM      8  C   UNL     1     144.015 169.259 188.687  0.00  0.00    +0.138 C 
ATOM      9  C   UNL     1     145.442 168.962 188.156  0.00  0.00    +0.114 C 
ATOM     10  C   UNL     1     145.412 168.843 186.652  0.00  0.00    -0.029 C 
ATOM     11  C   UNL     1     144.548 169.630 185.988  0.00  0.00    +0.024 C 
ATOM     12  C   UNL     1     143.657 170.589 186.668  0.00  0.00    +0.332 C 
ATOM     13  O   UNL     1     143.111 171.485 186.036  0.00  0.00    -0.246 OA
ATOM     14  O   UNL     1     143.473 170.418 188.000  0.00  0.00    -0.455 OA
ATOM     15  C   UNL     1     146.352 167.844 185.992  0.00  0.00    -0.002 C 
ATOM     16  C   UNL     1     146.383 167.764 184.447  0.00  0.00    +0.066 C 
ATOM     17  C   UNL     1     147.524 166.831 183.956  0.00  0.00    -0.005 C 
ATOM     18  C   UNL     1     147.500 165.405 184.486  0.00  0.00    -0.070 C 
ATOM     19  C   UNL     1     148.353 164.883 185.389  0.00  0.00    -0.062 C 
ATOM     20  C   UNL     1     149.431 165.565 186.074  0.00  0.00    -0.055 C 
ATOM     21  C   UNL     1     150.182 164.951 187.000  0.00  0.00    +0.023 C 
ATOM     22  C   UNL     1     151.254 165.688 187.698  0.00  0.00    +0.332 C 
ATOM     23  O   UNL     1     151.639 166.812 187.417  0.00  0.00    -0.246 OA
ATOM     24  O   UNL     1     151.692 164.895 188.702  0.00  0.00    -0.457 OA
ATOM     25  C   UNL     1     152.750 165.392 189.573  0.00  0.00    +0.114 C 
ATOM     26  C   UNL     1     152.178 165.380 191.026  0.00  0.00    +0.012 C 
ATOM     27  C   UNL     1     150.877 166.179 191.064  0.00  0.00    -0.079 C 
ATOM     28  C   UNL     1     150.626 167.343 191.688  0.00  0.00    -0.059 C 
ATOM     29  C   UNL     1     149.291 168.037 191.634  0.00  0.00    +0.079 C 
ATOM     30  C   UNL     1     148.654 168.263 193.018  0.00  0.00    +0.004 C 
ATOM     31  C   UNL     1     148.374 167.029 193.894  0.00  0.00    +0.064 C 
ATOM     32  H   UNL     1     148.268 165.447 192.415  0.00  0.00    +0.037 HD
ATOM     33  H   UNL     1     146.484 166.853 191.635  0.00  0.00    +0.057 HD
ATOM     34  H   UNL     1     144.914 165.480 193.870  0.00  0.00    +0.059 HD
ATOM     35  H   UNL     1     143.131 165.603 192.187  0.00  0.00    +0.064 HD
ATOM     36  H   UNL     1     144.676 167.920 190.946  0.00  0.00    +0.032 HD
ATOM     37  H   UNL     1     144.514 166.285 190.250  0.00  0.00    +0.032 HD
ATOM     38  H   UNL     1     142.247 168.295 190.699  0.00  0.00    +0.060 HD
ATOM     39  H   UNL     1     143.507 167.204 188.128  0.00  0.00    +0.036 HD
ATOM     40  H   UNL     1     144.125 169.598 189.724  0.00  0.00    +0.077 HD
ATOM     41  H   UNL     1     146.099 169.800 188.417  0.00  0.00    +0.068 HD
ATOM     42  H   UNL     1     144.460 169.642 184.907  0.00  0.00    +0.069 HD
ATOM     43  H   UNL     1     147.367 168.074 186.341  0.00  0.00    +0.034 HD
ATOM     44  H   UNL     1     146.076 166.855 186.379  0.00  0.00    +0.034 HD
ATOM     45  H   UNL     1     146.577 168.772 184.053  0.00  0.00    +0.060 HD
ATOM     46  H   UNL     1     148.478 167.314 184.197  0.00  0.00    +0.034 HD
ATOM     47  H   UNL     1     147.516 166.778 182.862  0.00  0.00    +0.034 HD
ATOM     48  H   UNL     1     148.222 163.835 185.667  0.00  0.00    +0.062 HD
ATOM     49  H   UNL     1     149.630 166.606 185.837  0.00  0.00    +0.062 HD
ATOM     50  H   UNL     1     150.031 163.915 187.282  0.00  0.00    +0.069 HD
ATOM     51  H   UNL     1     152.958 166.441 189.319  0.00  0.00    +0.074 HD
ATOM     52  H   UNL     1     151.871 164.359 191.278  0.00  0.00    +0.038 HD
ATOM     53  H   UNL     1     150.058 165.720 190.508  0.00  0.00    +0.057 HD
ATOM     54  H   UNL     1     151.395 167.851 192.263  0.00  0.00    +0.059 HD
ATOM     55  H   UNL     1     148.588 167.483 191.004  0.00  0.00    +0.064 HD
ATOM     56  H   UNL     1     147.716 168.814 192.867  0.00  0.00    +0.032 HD
ATOM     57  H   UNL     1     149.299 168.953 193.584  0.00  0.00    +0.032 HD
ATOM     58  H   UNL     1     147.775 167.378 194.745  0.00  0.00    +0.060 HD
ENDROOT
BRANCH   1  59
ATOM     59  C   UNL     1     147.446 164.680 194.198  0.00  0.00    -0.057 C 
ATOM     60  H   UNL     1     146.408 164.614 194.546  0.00  0.00    +0.024 HD
ATOM     61  H   UNL     1     147.681 163.723 193.719  0.00  0.00    +0.024 HD
ATOM     62  H   UNL     1     148.094 164.786 195.075  0.00  0.00    +0.024 HD
ENDBRANCH   1  59
BRANCH  26  63
ATOM     63  C   UNL     1     153.170 165.848 192.092  0.00  0.00    -0.056 C 
ATOM     64  H   UNL     1     153.917 166.532 191.677  0.00  0.00    +0.024 HD
ATOM     65  H   UNL     1     152.658 166.361 192.916  0.00  0.00    +0.024 HD
ATOM     66  H   UNL     1     153.689 165.007 192.554  0.00  0.00    +0.024 HD
ENDBRANCH  26  63
BRANCH  18  67
ATOM     67  C   UNL     1     146.425 164.522 183.897  0.00  0.00    -0.043 C 
ATOM     68  H   UNL     1     145.439 164.980 184.016  0.00  0.00    +0.027 HD
ATOM     69  H   UNL     1     146.386 163.540 184.379  0.00  0.00    +0.027 HD
ATOM     70  H   UNL     1     146.608 164.349 182.831  0.00  0.00    +0.027 HD
ENDBRANCH  18  67
BRANCH   7  71
ATOM     71  C   UNL     1     141.718 168.318 187.941  0.00  0.00    -0.057 C 
ATOM     72  H   UNL     1     140.858 168.220 188.612  0.00  0.00    +0.023 HD
ATOM     73  H   UNL     1     141.710 169.320 187.504  0.00  0.00    +0.023 HD
ATOM     74  H   UNL     1     141.574 167.630 187.101  0.00  0.00    +0.023 HD
ENDBRANCH   7  71
BRANCH  31  75
ATOM     75  O   UNL     1     149.620 166.585 194.445  0.00  0.00    -0.391 OA
ATOM     76  H   UNL     1     149.592 166.741 195.403  0.00  0.00    +0.210 HD
ENDBRANCH  31  75
BRANCH  25  77
ATOM     77  C   UNL     1     154.033 164.571 189.211  0.00  0.00    +0.020 C 
ATOM     78  H   UNL     1     154.456 164.253 190.173  0.00  0.00    +0.036 HD
BRANCH  77  79
ATOM     79  C   UNL     1     153.680 163.256 188.495  0.00  0.00    -0.057 C 
ATOM     80  H   UNL     1     154.432 162.481 188.631  0.00  0.00    +0.023 HD
ATOM     81  H   UNL     1     153.546 163.420 187.421  0.00  0.00    +0.023 HD
ATOM     82  H   UNL     1     152.734 162.859 188.881  0.00  0.00    +0.023 HD
ENDBRANCH  77  79
BRANCH  77  83
ATOM     83  C   UNL     1     155.189 165.315 188.461  0.00  0.00    +0.067 C 
ATOM     84  H   UNL     1     155.373 164.766 187.525  0.00  0.00    +0.060 HD
BRANCH  83  85
ATOM     85  C   UNL     1     156.544 165.325 189.241  0.00  0.00    -0.017 C 
ATOM     86  H   UNL     1     157.324 165.772 188.627  0.00  0.00    +0.032 HD
BRANCH  85  87
ATOM     87  C   UNL     1     156.417 166.212 190.490  0.00  0.00    -0.060 C 
ATOM     88  H   UNL     1     157.207 165.981 191.209  0.00  0.00    +0.023 HD
ATOM     89  H   UNL     1     156.510 167.274 190.240  0.00  0.00    +0.023 HD
ATOM     90  H   UNL     1     155.453 166.065 190.985  0.00  0.00    +0.023 HD
ENDBRANCH  85  87
BRANCH  85  91
ATOM     91  C   UNL     1     157.059 163.927 189.659  0.00  0.00    -0.041 C 
ATOM     92  H   UNL     1     156.223 163.217 189.680  0.00  0.00    +0.027 HD
ATOM     93  H   UNL     1     157.445 163.962 190.686  0.00  0.00    +0.027 HD
BRANCH  91  94
ATOM     94  C   UNL     1     158.165 163.390 188.739  0.00  0.00    +0.007 C 
ATOM     95  H   UNL     1     157.737 162.598 188.114  0.00  0.00    +0.034 HD
ATOM     96  H   UNL     1     158.529 164.178 188.081  0.00  0.00    +0.034 HD
BRANCH  94  97
ATOM     97  C   UNL     1     159.350 162.792 189.495  0.00  0.00    +0.139 C 
ATOM     98  O   UNL     1     160.479 162.753 188.999  0.00  0.00    -0.297 OA
BRANCH  97  99
ATOM     99  C   UNL     1     159.151 162.295 190.927  0.00  0.00    +0.041 C 
ATOM    100  H   UNL     1     158.116 162.575 191.168  0.00  0.00    +0.040 HD
BRANCH  99 101
ATOM    101  C   UNL     1     159.995 163.022 191.972  0.00  0.00    -0.053 C 
ATOM    102  H   UNL     1     159.909 162.573 192.967  0.00  0.00    +0.024 HD
ATOM    103  H   UNL     1     159.697 164.072 192.048  0.00  0.00    +0.024 HD
ATOM    104  H   UNL     1     161.053 162.999 191.693  0.00  0.00    +0.024 HD
ENDBRANCH  99 101
BRANCH  99 105
ATOM    105  C   UNL     1     159.253 160.755 190.994  0.00  0.00    +0.071 C 
ATOM    106  H   UNL     1     160.047 160.402 190.321  0.00  0.00    +0.061 HD
BRANCH 105 107
ATOM    107  C   UNL     1     159.546 160.223 192.414  0.00  0.00    -0.006 C 
ATOM    108  H   UNL     1     160.609 159.994 192.523  0.00  0.00    +0.033 HD
ATOM    109  H   UNL     1     159.294 160.988 193.158  0.00  0.00    +0.033 HD
BRANCH 107 110
ATOM    110  C   UNL     1     158.795 158.952 192.734  0.00  0.00    -0.067 C 
ATOM    111  C   UNL     1     159.388 157.749 192.784  0.00  0.00    -0.005 C 
ATOM    112  H   UNL     1     157.728 159.063 192.899  0.00  0.00    +0.059 HD
ATOM    113  H   UNL     1     160.461 157.685 192.619  0.00  0.00    +0.078 HD
BRANCH 111 114
ATOM    114  N   UNL     1     158.753 156.541 193.035  0.00  0.00    -0.284 N 
ATOM    115  C   UNL     1     157.652 156.151 192.279  0.00  0.00    +0.206 C 
ATOM    116  O   UNL     1     157.009 155.115 192.404  0.00  0.00    -0.279 OA
ATOM    117  H   UNL     1     157.378 156.895 191.509  0.00  0.00    +0.126 HD
BRANCH 114 118
ATOM    118  C   UNL     1     159.212 155.643 194.084  0.00  0.00    +0.007 C 
ATOM    119  H   UNL     1     158.626 154.717 194.058  0.00  0.00    +0.043 HD
ATOM    120  H   UNL     1     160.266 155.379 193.961  0.00  0.00    +0.043 HD
ATOM    121  H   UNL     1     159.092 156.136 195.055  0.00  0.00    +0.043 HD
ENDBRANCH 114 118
ENDBRANCH 111 114
ENDBRANCH 107 110
ENDBRANCH 105 107
BRANCH 105 122
ATOM    122  O   UNL     1     157.992 160.185 190.591  0.00  0.00    -0.379 OA
BRANCH 122 123
ATOM    123  C   UNL     1     158.052 159.516 189.337  0.00  0.00    +0.037 C 
ATOM    124  H   UNL     1     158.981 158.941 189.301  0.00  0.00    +0.052 HD
ATOM    125  H   UNL     1     158.063 160.241 188.518  0.00  0.00    +0.052 HD
ATOM    126  H   UNL     1     157.212 158.826 189.218  0.00  0.00    +0.052 HD
ENDBRANCH 122 123
ENDBRANCH 105 122
ENDBRANCH  99 105
ENDBRANCH  97  99
ENDBRANCH  94  97
ENDBRANCH  91  94
ENDBRANCH  85  91
ENDBRANCH  83  85
BRANCH  83 127
ATOM    127  O   UNL     1     154.773 166.641 188.141  0.00  0.00    -0.379 OA
BRANCH 127 128
ATOM    128  C   UNL     1     154.928 166.978 186.765  0.00  0.00    +0.037 C 
ATOM    129  H   UNL     1     155.849 167.547 186.608  0.00  0.00    +0.052 HD
ATOM    130  H   UNL     1     154.078 167.600 186.475  0.00  0.00    +0.052 HD
ATOM    131  H   UNL     1     154.931 166.077 186.145  0.00  0.00    +0.052 HD
ENDBRANCH 127 128
ENDBRANCH  83 127
ENDBRANCH  77  83
ENDBRANCH  25  77
BRANCH   9 132
ATOM    132  O   UNL     1     145.982 167.795 188.755  0.00  0.00    -0.384 OA
ATOM    133  H   UNL     1     145.674 167.032 188.237  0.00  0.00    +0.210 HD
ENDBRANCH   9 132
BRANCH  29 134
ATOM    134  O   UNL     1     149.462 169.342 191.052  0.00  0.00    -0.376 OA
BRANCH 134 135
ATOM    135  C   UNL     1     150.167 170.256 191.881  0.00  0.00    +0.037 C 
ATOM    136  H   UNL     1     151.023 169.730 192.314  0.00  0.00    +0.052 HD
ATOM    137  H   UNL     1     150.548 171.102 191.302  0.00  0.00    +0.052 HD
ATOM    138  H   UNL     1     149.532 170.610 192.701  0.00  0.00    +0.052 HD
ENDBRANCH 134 135
ENDBRANCH  29 134
BRANCH   6 139
ATOM    139  O   UNL     1     141.883 166.346 190.022  0.00  0.00    -0.379 OA
BRANCH 139 140
ATOM    140  C   UNL     1     142.491 165.264 189.324  0.00  0.00    +0.037 C 
ATOM    141  H   UNL     1     143.462 165.061 189.785  0.00  0.00    +0.052 HD
ATOM    142  H   UNL     1     141.875 164.365 189.400  0.00  0.00    +0.052 HD
ATOM    143  H   UNL     1     142.649 165.517 188.272  0.00  0.00    +0.052 HD
ENDBRANCH 139 140
ENDBRANCH   6 139
BRANCH  16 144
ATOM    144  O   UNL     1     145.100 167.323 183.982  0.00  0.00    -0.379 OA
BRANCH 144 145
ATOM    145  C   UNL     1     144.774 167.765 182.672  0.00  0.00    +0.037 C 
ATOM    146  H   UNL     1     143.952 167.173 182.256  0.00  0.00    +0.052 HD
ATOM    147  H   UNL     1     145.655 167.626 182.037  0.00  0.00    +0.052 HD
ATOM    148  H   UNL     1     144.516 168.828 182.667  0.00  0.00    +0.052 HD
ENDBRANCH 144 145
ENDBRANCH  16 144
BRANCH   4 149
ATOM    149  O   UNL     1     143.167 167.497 193.058  0.00  0.00    -0.376 OA
BRANCH 149 150
ATOM    150  C   UNL     1     142.227 166.993 193.997  0.00  0.00    +0.037 C 
ATOM    151  H   UNL     1     142.184 165.900 193.960  0.00  0.00    +0.052 HD
ATOM    152  H   UNL     1     141.243 167.385 193.735  0.00  0.00    +0.052 HD
ATOM    153  H   UNL     1     142.468 167.325 195.009  0.00  0.00    +0.052 HD
ENDBRANCH 149 150
ENDBRANCH   4 149
TORSDOF 33
ENDMDL
MODEL 3
REMARK VINA RESULT:      -5.1     25.702     30.690
REMARK  Name = Sphinxolide B_conf1
REMARK  33 active torsions:
REMARK  status: ('A' for Active; 'I' for Inactive)
REMARK    1  A    between atoms: C_1  and  C_2
REMARK    2  A    between atoms: C_5  and  O_67
REMARK    3  A    between atoms: C_7  and  O_65
REMARK    4  A    between atoms: C_8  and  C_64
REMARK    5  A    between atoms: C_10  and  O_63
REMARK    6  A    between atoms: C_17  and  O_61
REMARK    7  A    between atoms: C_19  and  C_60
REMARK    8  A    between atoms: C_26  and  C_37
REMARK    9  A    between atoms: C_27  and  C_36
REMARK   10  A    between atoms: C_30  and  O_34
REMARK   11  A    between atoms: C_32  and  O_33
REMARK   12  A    between atoms: O_34  and  C_35
REMARK   13  A    between atoms: C_37  and  C_38
REMARK   14  A    between atoms: C_37  and  C_39
REMARK   15  A    between atoms: C_39  and  C_40
REMARK   16  A    between atoms: C_39  and  O_58
REMARK   17  A    between atoms: C_40  and  C_41
REMARK   18  A    between atoms: C_40  and  C_42
REMARK   19  A    between atoms: C_42  and  C_43
REMARK   20  A    between atoms: C_43  and  C_44
REMARK   21  A    between atoms: C_44  and  C_46
REMARK   22  A    between atoms: C_46  and  C_47
REMARK   23  A    between atoms: C_46  and  C_48
REMARK   24  A    between atoms: C_48  and  C_49
REMARK   25  A    between atoms: C_48  and  O_56
REMARK   26  A    between atoms: C_49  and  C_50
REMARK   27  A    between atoms: C_51  and  N_52
REMARK   28  A    between atoms: N_52  and  C_53
REMARK   29  A    between atoms: O_56  and  C_57
REMARK   30  A    between atoms: O_58  and  C_59
REMARK   31  A    between atoms: O_61  and  C_62
REMARK   32  A    between atoms: O_65  and  C_66
REMARK   33  A    between atoms: O_67  and  C_68
REMARK                            x       y       z     vdW  Elec       q    Type
REMARK                         _______ _______ _______ _____ _____    ______ ____
ROOT
ATOM      1  C   UNL     1     146.500 184.763 215.979  0.00  0.00    +0.000 C 
ATOM      2  C   UNL     1     147.805 185.472 215.674  0.00  0.00    -0.080 C 
ATOM      3  C   UNL     1     148.751 185.881 216.540  0.00  0.00    -0.059 C 
ATOM      4  C   UNL     1     150.043 186.617 216.212  0.00  0.00    +0.079 C 
ATOM      5  C   UNL     1     150.119 187.105 214.755  0.00  0.00    +0.004 C 
ATOM      6  C   UNL     1     151.412 187.851 214.388  0.00  0.00    +0.067 C 
ATOM      7  C   UNL     1     151.403 188.359 212.901  0.00  0.00    +0.022 C 
ATOM      8  C   UNL     1     151.241 187.184 211.874  0.00  0.00    +0.138 C 
ATOM      9  C   UNL     1     149.863 187.122 211.165  0.00  0.00    +0.114 C 
ATOM     10  C   UNL     1     149.777 188.209 210.121  0.00  0.00    -0.029 C 
ATOM     11  C   UNL     1     150.908 188.527 209.467  0.00  0.00    +0.024 C 
ATOM     12  C   UNL     1     152.195 187.856 209.727  0.00  0.00    +0.332 C 
ATOM     13  O   UNL     1     153.118 187.953 208.927  0.00  0.00    -0.246 OA
ATOM     14  O   UNL     1     152.300 187.153 210.880  0.00  0.00    -0.455 OA
ATOM     15  C   UNL     1     148.427 188.871 209.883  0.00  0.00    -0.002 C 
ATOM     16  C   UNL     1     148.309 189.935 208.765  0.00  0.00    +0.066 C 
ATOM     17  C   UNL     1     146.831 190.359 208.547  0.00  0.00    -0.005 C 
ATOM     18  C   UNL     1     146.100 190.897 209.769  0.00  0.00    -0.070 C 
ATOM     19  C   UNL     1     145.129 190.260 210.452  0.00  0.00    -0.062 C 
ATOM     20  C   UNL     1     144.609 188.932 210.206  0.00  0.00    -0.055 C 
ATOM     21  C   UNL     1     143.675 188.380 210.994  0.00  0.00    +0.023 C 
ATOM     22  C   UNL     1     143.191 187.010 210.729  0.00  0.00    +0.332 C 
ATOM     23  O   UNL     1     143.464 186.342 209.744  0.00  0.00    -0.246 OA
ATOM     24  O   UNL     1     142.426 186.648 211.783  0.00  0.00    -0.457 OA
ATOM     25  C   UNL     1     141.831 185.318 211.789  0.00  0.00    +0.114 C 
ATOM     26  C   UNL     1     142.351 184.598 213.074  0.00  0.00    +0.012 C 
ATOM     27  C   UNL     1     143.878 184.625 213.086  0.00  0.00    -0.079 C 
ATOM     28  C   UNL     1     144.735 183.597 212.969  0.00  0.00    -0.059 C 
ATOM     29  C   UNL     1     146.232 183.764 212.983  0.00  0.00    +0.079 C 
ATOM     30  C   UNL     1     146.933 182.971 214.102  0.00  0.00    +0.004 C 
ATOM     31  C   UNL     1     146.531 183.267 215.557  0.00  0.00    +0.064 C 
ATOM     32  H   UNL     1     145.723 185.273 215.397  0.00  0.00    +0.037 HD
ATOM     33  H   UNL     1     147.957 185.672 214.615  0.00  0.00    +0.057 HD
ATOM     34  H   UNL     1     148.610 185.691 217.602  0.00  0.00    +0.059 HD
ATOM     35  H   UNL     1     150.126 187.483 216.880  0.00  0.00    +0.064 HD
ATOM     36  H   UNL     1     150.033 186.231 214.102  0.00  0.00    +0.032 HD
ATOM     37  H   UNL     1     149.267 187.771 214.575  0.00  0.00    +0.032 HD
ATOM     38  H   UNL     1     152.273 187.182 214.527  0.00  0.00    +0.060 HD
ATOM     39  H   UNL     1     150.544 189.038 212.808  0.00  0.00    +0.036 HD
ATOM     40  H   UNL     1     151.363 186.239 212.416  0.00  0.00    +0.077 HD
ATOM     41  H   UNL     1     149.769 186.156 210.655  0.00  0.00    +0.068 HD
ATOM     42  H   UNL     1     150.954 189.276 208.684  0.00  0.00    +0.069 HD
ATOM     43  H   UNL     1     147.706 188.070 209.667  0.00  0.00    +0.034 HD
ATOM     44  H   UNL     1     148.139 189.339 210.832  0.00  0.00    +0.034 HD
ATOM     45  H   UNL     1     148.676 189.494 207.828  0.00  0.00    +0.060 HD
ATOM     46  H   UNL     1     146.296 189.500 208.127  0.00  0.00    +0.034 HD
ATOM     47  H   UNL     1     146.775 191.124 207.765  0.00  0.00    +0.034 HD
ATOM     48  H   UNL     1     144.682 190.777 211.305  0.00  0.00    +0.062 HD
ATOM     49  H   UNL     1     144.995 188.363 209.365  0.00  0.00    +0.062 HD
ATOM     50  H   UNL     1     143.253 188.895 211.850  0.00  0.00    +0.069 HD
ATOM     51  H   UNL     1     142.212 184.752 210.928  0.00  0.00    +0.074 HD
ATOM     52  H   UNL     1     142.068 185.190 213.952  0.00  0.00    +0.038 HD
ATOM     53  H   UNL     1     144.303 185.623 213.212  0.00  0.00    +0.057 HD
ATOM     54  H   UNL     1     144.380 182.578 212.845  0.00  0.00    +0.059 HD
ATOM     55  H   UNL     1     146.506 184.821 213.070  0.00  0.00    +0.064 HD
ATOM     56  H   UNL     1     148.015 183.125 213.992  0.00  0.00    +0.032 HD
ATOM     57  H   UNL     1     146.779 181.897 213.910  0.00  0.00    +0.032 HD
ATOM     58  H   UNL     1     147.250 182.737 216.196  0.00  0.00    +0.060 HD
ENDROOT
BRANCH   1  59
ATOM     59  C   UNL     1     146.058 184.905 217.446  0.00  0.00    -0.057 C 
ATOM     60  H   UNL     1     145.432 184.060 217.756  0.00  0.00    +0.024 HD
ATOM     61  H   UNL     1     146.925 184.918 218.116  0.00  0.00    +0.024 HD
ATOM     62  H   UNL     1     145.492 185.828 217.610  0.00  0.00    +0.024 HD
ENDBRANCH   1  59
BRANCH  26  63
ATOM     63  C   UNL     1     141.801 183.184 213.265  0.00  0.00    -0.056 C 
ATOM     64  H   UNL     1     141.565 182.709 212.307  0.00  0.00    +0.024 HD
ATOM     65  H   UNL     1     142.519 182.544 213.794  0.00  0.00    +0.024 HD
ATOM     66  H   UNL     1     140.902 183.182 213.883  0.00  0.00    +0.024 HD
ENDBRANCH  26  63
BRANCH  18  67
ATOM     67  C   UNL     1     146.511 192.285 210.201  0.00  0.00    -0.043 C 
ATOM     68  H   UNL     1     147.226 192.715 209.493  0.00  0.00    +0.027 HD
ATOM     69  H   UNL     1     146.988 192.288 211.185  0.00  0.00    +0.027 HD
ATOM     70  H   UNL     1     145.638 192.944 210.265  0.00  0.00    +0.027 HD
ENDBRANCH  18  67
BRANCH   7  71
ATOM     71  C   UNL     1     152.645 189.226 212.636  0.00  0.00    -0.057 C 
ATOM     72  H   UNL     1     152.938 189.190 211.582  0.00  0.00    +0.023 HD
ATOM     73  H   UNL     1     152.474 190.268 212.918  0.00  0.00    +0.023 HD
ATOM     74  H   UNL     1     153.497 188.895 213.238  0.00  0.00    +0.023 HD
ENDBRANCH   7  71
BRANCH  31  75
ATOM     75  O   UNL     1     145.260 182.652 215.801  0.00  0.00    -0.391 OA
ATOM     76  H   UNL     1     145.214 181.846 215.262  0.00  0.00    +0.210 HD
ENDBRANCH  31  75
BRANCH  25  77
ATOM     77  C   UNL     1     140.297 185.527 211.555  0.00  0.00    +0.020 C 
ATOM     78  H   UNL     1     139.801 184.968 212.360  0.00  0.00    +0.036 HD
BRANCH  77  79
ATOM     79  C   UNL     1     139.882 186.989 211.793  0.00  0.00    -0.057 C 
ATOM     80  H   UNL     1     140.454 187.698 211.196  0.00  0.00    +0.023 HD
ATOM     81  H   UNL     1     139.994 187.260 212.849  0.00  0.00    +0.023 HD
ATOM     82  H   UNL     1     138.826 187.128 211.535  0.00  0.00    +0.023 HD
ENDBRANCH  77  79
BRANCH  77  83
ATOM     83  C   UNL     1     139.682 184.989 210.219  0.00  0.00    +0.067 C 
ATOM     84  H   UNL     1     138.612 185.246 210.229  0.00  0.00    +0.060 HD
BRANCH  83  85
ATOM     85  C   UNL     1     139.762 183.435 210.068  0.00  0.00    -0.017 C 
ATOM     86  H   UNL     1     139.895 182.971 211.044  0.00  0.00    +0.032 HD
BRANCH  85  87
ATOM     87  C   UNL     1     138.433 182.899 209.513  0.00  0.00    -0.060 C 
ATOM     88  H   UNL     1     138.485 181.817 209.366  0.00  0.00    +0.023 HD
ATOM     89  H   UNL     1     137.603 183.091 210.200  0.00  0.00    +0.023 HD
ATOM     90  H   UNL     1     138.189 183.361 208.551  0.00  0.00    +0.023 HD
ENDBRANCH  85  87
BRANCH  85  91
ATOM     91  C   UNL     1     140.925 182.932 209.179  0.00  0.00    -0.041 C 
ATOM     92  H   UNL     1     141.850 182.893 209.768  0.00  0.00    +0.027 HD
ATOM     93  H   UNL     1     141.117 183.649 208.371  0.00  0.00    +0.027 HD
BRANCH  91  94
ATOM     94  C   UNL     1     140.657 181.555 208.555  0.00  0.00    +0.007 C 
ATOM     95  H   UNL     1     139.599 181.311 208.702  0.00  0.00    +0.034 HD
ATOM     96  H   UNL     1     140.851 181.578 207.484  0.00  0.00    +0.034 HD
BRANCH  94  97
ATOM     97  C   UNL     1     141.480 180.431 209.181  0.00  0.00    +0.139 C 
ATOM     98  O   UNL     1     141.949 179.515 208.498  0.00  0.00    -0.297 OA
BRANCH  97  99
ATOM     99  C   UNL     1     141.795 180.475 210.677  0.00  0.00    +0.041 C 
ATOM    100  H   UNL     1     141.365 181.429 211.014  0.00  0.00    +0.040 HD
BRANCH  99 101
ATOM    101  C   UNL     1     143.280 180.590 211.008  0.00  0.00    -0.053 C 
ATOM    102  H   UNL     1     143.726 181.513 210.622  0.00  0.00    +0.024 HD
ATOM    103  H   UNL     1     143.837 179.745 210.591  0.00  0.00    +0.024 HD
ATOM    104  H   UNL     1     143.433 180.582 212.092  0.00  0.00    +0.024 HD
ENDBRANCH  99 101
BRANCH  99 105
ATOM    105  C   UNL     1     141.067 179.336 211.426  0.00  0.00    +0.071 C 
ATOM    106  H   UNL     1     140.335 178.858 210.761  0.00  0.00    +0.061 HD
BRANCH 105 107
ATOM    107  C   UNL     1     142.024 178.248 211.960  0.00  0.00    -0.006 C 
ATOM    108  H   UNL     1     141.661 177.254 211.686  0.00  0.00    +0.033 HD
ATOM    109  H   UNL     1     143.018 178.373 211.513  0.00  0.00    +0.033 HD
BRANCH 107 110
ATOM    110  C   UNL     1     142.150 178.262 213.466  0.00  0.00    -0.067 C 
ATOM    111  C   UNL     1     142.156 177.144 214.207  0.00  0.00    -0.005 C 
ATOM    112  H   UNL     1     142.212 179.244 213.925  0.00  0.00    +0.059 HD
ATOM    113  H   UNL     1     142.099 176.180 213.704  0.00  0.00    +0.078 HD
BRANCH 111 114
ATOM    114  N   UNL     1     142.232 177.087 215.591  0.00  0.00    -0.284 N 
ATOM    115  C   UNL     1     142.679 178.186 216.319  0.00  0.00    +0.206 C 
ATOM    116  O   UNL     1     142.790 178.258 217.538  0.00  0.00    -0.279 OA
ATOM    117  H   UNL     1     142.948 179.043 215.677  0.00  0.00    +0.126 HD
BRANCH 114 118
ATOM    118  C   UNL     1     141.846 175.893 216.327  0.00  0.00    +0.007 C 
ATOM    119  H   UNL     1     142.642 175.145 216.259  0.00  0.00    +0.043 HD
ATOM    120  H   UNL     1     141.673 176.106 217.386  0.00  0.00    +0.043 HD
ATOM    121  H   UNL     1     140.918 175.495 215.901  0.00  0.00    +0.043 HD
ENDBRANCH 114 118
ENDBRANCH 111 114
ENDBRANCH 107 110
ENDBRANCH 105 107
BRANCH 105 122
ATOM    122  O   UNL     1     140.388 179.888 212.571  0.00  0.00    -0.379 OA
BRANCH 122 123
ATOM    123  C   UNL     1     139.076 180.352 212.278  0.00  0.00    +0.037 C 
ATOM    124  H   UNL     1     138.400 179.973 213.049  0.00  0.00    +0.052 HD
ATOM    125  H   UNL     1     138.743 179.968 211.309  0.00  0.00    +0.052 HD
ATOM    126  H   UNL     1     139.033 181.444 212.285  0.00  0.00    +0.052 HD
ENDBRANCH 122 123
ENDBRANCH 105 122
ENDBRANCH  99 105
ENDBRANCH  97  99
ENDBRANCH  94  97
ENDBRANCH  91  94
ENDBRANCH  85  91
ENDBRANCH  83  85
BRANCH  83 127
ATOM    127  O   UNL     1     140.300 185.643 209.113  0.00  0.00    -0.379 OA
BRANCH 127 128
ATOM    128  C   UNL     1     139.376 186.246 208.210  0.00  0.00    +0.037 C 
ATOM    129  H   UNL     1     139.222 185.611 207.333  0.00  0.00    +0.052 HD
ATOM    130  H   UNL     1     139.802 187.198 207.884  0.00  0.00    +0.052 HD
ATOM    131  H   UNL     1     138.422 186.441 208.708  0.00  0.00    +0.052 HD
ENDBRANCH 127 128
ENDBRANCH  83 127
ENDBRANCH  77  83
ENDBRANCH  25  77
BRANCH   9 132
ATOM    132  O   UNL     1     148.798 187.218 212.097  0.00  0.00    -0.384 OA
ATOM    133  H   UNL     1     148.570 188.159 212.184  0.00  0.00    +0.210 HD
ENDBRANCH   9 132
BRANCH  29 134
ATOM    134  O   UNL     1     146.773 183.274 211.743  0.00  0.00    -0.376 OA
BRANCH 134 135
ATOM    135  C   UNL     1     147.057 181.881 211.748  0.00  0.00    +0.037 C 
ATOM    136  H   UNL     1     147.569 181.636 210.813  0.00  0.00    +0.052 HD
ATOM    137  H   UNL     1     147.721 181.616 212.576  0.00  0.00    +0.052 HD
ATOM    138  H   UNL     1     146.133 181.294 211.797  0.00  0.00    +0.052 HD
ENDBRANCH 134 135
ENDBRANCH  29 134
BRANCH   6 139
ATOM    139  O   UNL     1     151.509 188.990 215.263  0.00  0.00    -0.379 OA
BRANCH 139 140
ATOM    140  C   UNL     1     152.661 188.951 216.098  0.00  0.00    +0.037 C 
ATOM    141  H   UNL     1     153.455 188.422 215.563  0.00  0.00    +0.052 HD
ATOM    142  H   UNL     1     153.007 189.963 216.320  0.00  0.00    +0.052 HD
ATOM    143  H   UNL     1     152.452 188.417 217.028  0.00  0.00    +0.052 HD
ENDBRANCH 139 140
ENDBRANCH   6 139
BRANCH  16 144
ATOM    144  O   UNL     1     149.138 191.055 209.107  0.00  0.00    -0.379 OA
BRANCH 144 145
ATOM    145  C   UNL     1     149.629 191.776 207.985  0.00  0.00    +0.037 C 
ATOM    146  H   UNL     1     150.352 191.175 207.425  0.00  0.00    +0.052 HD
ATOM    147  H   UNL     1     150.137 192.673 208.354  0.00  0.00    +0.052 HD
ATOM    148  H   UNL     1     148.811 192.093 207.332  0.00  0.00    +0.052 HD
ENDBRANCH 144 145
ENDBRANCH  16 144
BRANCH   4 149
ATOM    149  O   UNL     1     151.142 185.720 216.432  0.00  0.00    -0.376 OA
BRANCH 149 150
ATOM    150  C   UNL     1     151.633 185.736 217.765  0.00  0.00    +0.037 C 
ATOM    151  H   UNL     1     150.812 185.667 218.486  0.00  0.00    +0.052 HD
ATOM    152  H   UNL     1     152.153 186.683 217.923  0.00  0.00    +0.052 HD
ATOM    153  H   UNL     1     152.346 184.925 217.930  0.00  0.00    +0.052 HD
ENDBRANCH 149 150
ENDBRANCH   4 149
TORSDOF 33
ENDMDL
MODEL 4
REMARK VINA RESULT:      -5.0      4.525     12.747
REMARK  Name = Sphinxolide B_conf1
REMARK  33 active torsions:
REMARK  status: ('A' for Active; 'I' for Inactive)
REMARK    1  A    between atoms: C_1  and  C_2
REMARK    2  A    between atoms: C_5  and  O_67
REMARK    3  A    between atoms: C_7  and  O_65
REMARK    4  A    between atoms: C_8  and  C_64
REMARK    5  A    between atoms: C_10  and  O_63
REMARK    6  A    between atoms: C_17  and  O_61
REMARK    7  A    between atoms: C_19  and  C_60
REMARK    8  A    between atoms: C_26  and  C_37
REMARK    9  A    between atoms: C_27  and  C_36
REMARK   10  A    between atoms: C_30  and  O_34
REMARK   11  A    between atoms: C_32  and  O_33
REMARK   12  A    between atoms: O_34  and  C_35
REMARK   13  A    between atoms: C_37  and  C_38
REMARK   14  A    between atoms: C_37  and  C_39
REMARK   15  A    between atoms: C_39  and  C_40
REMARK   16  A    between atoms: C_39  and  O_58
REMARK   17  A    between atoms: C_40  and  C_41
REMARK   18  A    between atoms: C_40  and  C_42
REMARK   19  A    between atoms: C_42  and  C_43
REMARK   20  A    between atoms: C_43  and  C_44
REMARK   21  A    between atoms: C_44  and  C_46
REMARK   22  A    between atoms: C_46  and  C_47
REMARK   23  A    between atoms: C_46  and  C_48
REMARK   24  A    between atoms: C_48  and  C_49
REMARK   25  A    between atoms: C_48  and  O_56
REMARK   26  A    between atoms: C_49  and  C_50
REMARK   27  A    between atoms: C_51  and  N_52
REMARK   28  A    between atoms: N_52  and  C_53
REMARK   29  A    between atoms: O_56  and  C_57
REMARK   30  A    between atoms: O_58  and  C_59
REMARK   31  A    between atoms: O_61  and  C_62
REMARK   32  A    between atoms: O_65  and  C_66
REMARK   33  A    between atoms: O_67  and  C_68
REMARK                            x       y       z     vdW  Elec       q    Type
REMARK                         _______ _______ _______ _____ _____    ______ ____
ROOT
ATOM      1  C   UNL     1     151.701 166.140 192.940  0.00  0.00    +0.000 C 
ATOM      2  C   UNL     1     150.227 166.330 192.643  0.00  0.00    -0.080 C 
ATOM      3  C   UNL     1     149.220 166.521 193.516  0.00  0.00    -0.059 C 
ATOM      4  C   UNL     1     147.740 166.681 193.194  0.00  0.00    +0.079 C 
ATOM      5  C   UNL     1     147.394 166.370 191.728  0.00  0.00    +0.004 C 
ATOM      6  C   UNL     1     145.908 166.523 191.367  0.00  0.00    +0.067 C 
ATOM      7  C   UNL     1     145.618 166.148 189.869  0.00  0.00    +0.022 C 
ATOM      8  C   UNL     1     146.430 167.039 188.866  0.00  0.00    +0.138 C 
ATOM      9  C   UNL     1     147.588 166.310 188.134  0.00  0.00    +0.114 C 
ATOM     10  C   UNL     1     147.026 165.406 187.065  0.00  0.00    -0.029 C 
ATOM     11  C   UNL     1     145.919 165.822 186.424  0.00  0.00    +0.024 C 
ATOM     12  C   UNL     1     145.261 167.107 186.721  0.00  0.00    +0.332 C 
ATOM     13  O   UNL     1     144.453 167.587 185.936  0.00  0.00    -0.246 OA
ATOM     14  O   UNL     1     145.586 167.707 187.892  0.00  0.00    -0.455 OA
ATOM     15  C   UNL     1     147.741 164.091 186.788  0.00  0.00    -0.002 C 
ATOM     16  C   UNL     1     147.217 163.189 185.644  0.00  0.00    +0.066 C 
ATOM     17  C   UNL     1     148.174 161.992 185.391  0.00  0.00    -0.005 C 
ATOM     18  C   UNL     1     148.459 161.094 186.586  0.00  0.00    -0.070 C 
ATOM     19  C   UNL     1     149.620 161.030 187.267  0.00  0.00    -0.062 C 
ATOM     20  C   UNL     1     150.814 161.817 187.042  0.00  0.00    -0.055 C 
ATOM     21  C   UNL     1     151.896 161.701 187.826  0.00  0.00    +0.023 C 
ATOM     22  C   UNL     1     153.084 162.543 187.583  0.00  0.00    +0.332 C 
ATOM     23  O   UNL     1     153.250 163.274 186.619  0.00  0.00    -0.246 OA
ATOM     24  O   UNL     1     153.919 162.363 188.632  0.00  0.00    -0.457 OA
ATOM     25  C   UNL     1     155.176 163.100 188.658  0.00  0.00    +0.114 C 
ATOM     26  C   UNL     1     155.172 163.951 189.967  0.00  0.00    +0.012 C 
ATOM     27  C   UNL     1     153.913 164.814 190.006  0.00  0.00    -0.079 C 
ATOM     28  C   UNL     1     153.811 166.152 189.927  0.00  0.00    -0.059 C 
ATOM     29  C   UNL     1     152.496 166.884 189.964  0.00  0.00    +0.079 C 
ATOM     30  C   UNL     1     152.387 167.904 191.113  0.00  0.00    +0.004 C 
ATOM     31  C   UNL     1     152.543 167.388 192.554  0.00  0.00    +0.064 C 
ATOM     32  H   UNL     1     152.038 165.291 192.334  0.00  0.00    +0.037 HD
ATOM     33  H   UNL     1     149.985 166.285 191.583  0.00  0.00    +0.057 HD
ATOM     34  H   UNL     1     149.446 166.563 194.579  0.00  0.00    +0.059 HD
ATOM     35  H   UNL     1     147.171 166.004 193.844  0.00  0.00    +0.064 HD
ATOM     36  H   UNL     1     147.970 167.050 191.094  0.00  0.00    +0.032 HD
ATOM     37  H   UNL     1     147.700 165.338 191.518  0.00  0.00    +0.032 HD
ATOM     38  H   UNL     1     145.595 167.563 191.536  0.00  0.00    +0.060 HD
ATOM     39  H   UNL     1     145.923 165.099 189.745  0.00  0.00    +0.036 HD
ATOM     40  H   UNL     1     146.881 167.864 189.431  0.00  0.00    +0.077 HD
ATOM     41  H   UNL     1     148.224 167.057 187.645  0.00  0.00    +0.068 HD
ATOM     42  H   UNL     1     145.446 165.261 185.625  0.00  0.00    +0.069 HD
ATOM     43  H   UNL     1     148.792 164.330 186.578  0.00  0.00    +0.034 HD
ATOM     44  H   UNL     1     147.704 163.515 187.721  0.00  0.00    +0.034 HD
ATOM     45  H   UNL     1     147.173 163.787 184.724  0.00  0.00    +0.060 HD
ATOM     46  H   UNL     1     149.108 162.392 184.980  0.00  0.00    +0.034 HD
ATOM     47  H   UNL     1     147.775 161.360 184.590  0.00  0.00    +0.034 HD
ATOM     48  H   UNL     1     149.684 160.325 188.100  0.00  0.00    +0.062 HD
ATOM     49  H   UNL     1     150.829 162.528 186.221  0.00  0.00    +0.062 HD
ATOM     50  H   UNL     1     151.942 161.012 188.662  0.00  0.00    +0.069 HD
ATOM     51  H   UNL     1     155.193 163.807 187.816  0.00  0.00    +0.074 HD
ATOM     52  H   UNL     1     155.060 163.280 190.826  0.00  0.00    +0.038 HD
ATOM     53  H   UNL     1     152.988 164.246 190.116  0.00  0.00    +0.057 HD
ATOM     54  H   UNL     1     154.692 166.779 189.821  0.00  0.00    +0.059 HD
ATOM     55  H   UNL     1     151.660 166.181 190.032  0.00  0.00    +0.064 HD
ATOM     56  H   UNL     1     151.416 168.410 191.019  0.00  0.00    +0.032 HD
ATOM     57  H   UNL     1     153.135 168.695 190.942  0.00  0.00    +0.032 HD
ATOM     58  H   UNL     1     152.267 168.219 193.217  0.00  0.00    +0.060 HD
ENDROOT
BRANCH   1  59
ATOM     59  C   UNL     1     151.981 165.726 194.396  0.00  0.00    -0.057 C 
ATOM     60  H   UNL     1     152.651 164.860 194.442  0.00  0.00    +0.024 HD
ATOM     61  H   UNL     1     152.474 166.537 194.945  0.00  0.00    +0.024 HD
ATOM     62  H   UNL     1     151.058 165.473 194.929  0.00  0.00    +0.024 HD
ENDBRANCH   1  59
BRANCH  26  63
ATOM     63  C   UNL     1     156.441 164.778 190.181  0.00  0.00    -0.056 C 
ATOM     64  H   UNL     1     156.711 165.342 189.283  0.00  0.00    +0.024 HD
ATOM     65  H   UNL     1     156.320 165.489 191.007  0.00  0.00    +0.024 HD
ATOM     66  H   UNL     1     157.287 164.149 190.462  0.00  0.00    +0.024 HD
ENDBRANCH  26  63
BRANCH  18  67
ATOM     67  C   UNL     1     147.319 160.191 186.994  0.00  0.00    -0.043 C 
ATOM     68  H   UNL     1     147.532 159.152 186.725  0.00  0.00    +0.027 HD
ATOM     69  H   UNL     1     146.378 160.466 186.506  0.00  0.00    +0.027 HD
ATOM     70  H   UNL     1     147.148 160.249 188.075  0.00  0.00    +0.027 HD
ENDBRANCH  18  67
BRANCH   7  71
ATOM     71  C   UNL     1     144.103 166.170 189.606  0.00  0.00    -0.057 C 
ATOM     72  H   UNL     1     143.623 165.253 189.964  0.00  0.00    +0.023 HD
ATOM     73  H   UNL     1     143.625 167.027 190.087  0.00  0.00    +0.023 HD
ATOM     74  H   UNL     1     143.886 166.274 188.538  0.00  0.00    +0.023 HD
ENDBRANCH   7  71
BRANCH  31  75
ATOM     75  O   UNL     1     153.936 167.144 192.789  0.00  0.00    -0.391 OA
ATOM     76  H   UNL     1     154.167 166.308 192.353  0.00  0.00    +0.210 HD
ENDBRANCH  31  75
BRANCH  25  77
ATOM     77  C   UNL     1     156.303 162.046 188.392  0.00  0.00    +0.020 C 
ATOM     78  H   UNL     1     157.001 162.149 189.233  0.00  0.00    +0.036 HD
BRANCH  77  79
ATOM     79  C   UNL     1     155.772 160.608 188.509  0.00  0.00    -0.057 C 
ATOM     80  H   UNL     1     156.212 159.930 187.780  0.00  0.00    +0.023 HD
ATOM     81  H   UNL     1     154.683 160.583 188.390  0.00  0.00    +0.023 HD
ATOM     82  H   UNL     1     155.997 160.203 189.503  0.00  0.00    +0.023 HD
ENDBRANCH  77  79
BRANCH  77  83
ATOM     83  C   UNL     1     157.167 162.213 187.097  0.00  0.00    +0.067 C 
ATOM     84  H   UNL     1     157.385 161.201 186.721  0.00  0.00    +0.060 HD
BRANCH  83  85
ATOM     85  C   UNL     1     158.550 162.899 187.343  0.00  0.00    -0.017 C 
ATOM     86  H   UNL     1     159.307 162.457 186.698  0.00  0.00    +0.032 HD
BRANCH  85  87
ATOM     87  C   UNL     1     158.469 164.385 186.957  0.00  0.00    -0.060 C 
ATOM     88  H   UNL     1     158.415 164.499 185.872  0.00  0.00    +0.023 HD
ATOM     89  H   UNL     1     157.576 164.861 187.376  0.00  0.00    +0.023 HD
ATOM     90  H   UNL     1     159.344 164.936 187.314  0.00  0.00    +0.023 HD
ENDBRANCH  85  87
BRANCH  85  91
ATOM     91  C   UNL     1     159.082 162.778 188.791  0.00  0.00    -0.041 C 
ATOM     92  H   UNL     1     158.248 162.861 189.500  0.00  0.00    +0.027 HD
ATOM     93  H   UNL     1     159.749 163.620 189.018  0.00  0.00    +0.027 HD
BRANCH  91  94
ATOM     94  C   UNL     1     159.844 161.469 189.048  0.00  0.00    +0.007 C 
ATOM     95  H   UNL     1     159.112 160.678 189.243  0.00  0.00    +0.034 HD
ATOM     96  H   UNL     1     160.421 161.186 188.169  0.00  0.00    +0.034 HD
BRANCH  94  97
ATOM     97  C   UNL     1     160.782 161.536 190.251  0.00  0.00    +0.139 C 
ATOM     98  O   UNL     1     162.009 161.557 190.115  0.00  0.00    -0.297 OA
BRANCH  97  99
ATOM     99  C   UNL     1     160.191 161.652 191.657  0.00  0.00    +0.041 C 
ATOM    100  H   UNL     1     159.128 161.409 191.523  0.00  0.00    +0.040 HD
BRANCH  99 101
ATOM    101  C   UNL     1     160.188 163.068 192.228  0.00  0.00    -0.053 C 
ATOM    102  H   UNL     1     161.192 163.416 192.492  0.00  0.00    +0.024 HD
ATOM    103  H   UNL     1     159.564 163.123 193.125  0.00  0.00    +0.024 HD
ATOM    104  H   UNL     1     159.779 163.774 191.498  0.00  0.00    +0.024 HD
ENDBRANCH  99 101
BRANCH  99 105
ATOM    105  C   UNL     1     160.804 160.592 192.601  0.00  0.00    +0.071 C 
ATOM    106  H   UNL     1     161.262 159.786 192.011  0.00  0.00    +0.061 HD
BRANCH 105 107
ATOM    107  C   UNL     1     161.873 161.169 193.554  0.00  0.00    -0.006 C 
ATOM    108  H   UNL     1     162.848 160.722 193.347  0.00  0.00    +0.033 HD
ATOM    109  H   UNL     1     161.966 162.251 193.400  0.00  0.00    +0.033 HD
BRANCH 107 110
ATOM    110  C   UNL     1     161.573 160.897 195.009  0.00  0.00    -0.067 C 
ATOM    111  C   UNL     1     161.511 161.868 195.934  0.00  0.00    -0.005 C 
ATOM    112  H   UNL     1     161.432 159.855 195.275  0.00  0.00    +0.059 HD
ATOM    113  H   UNL     1     161.652 162.901 195.622  0.00  0.00    +0.078 HD
BRANCH 111 114
ATOM    114  N   UNL     1     161.277 161.684 197.289  0.00  0.00    -0.284 N 
ATOM    115  C   UNL     1     160.036 161.990 197.840  0.00  0.00    +0.206 C 
ATOM    116  O   UNL     1     159.709 161.872 199.015  0.00  0.00    -0.279 OA
ATOM    117  H   UNL     1     159.321 162.376 197.092  0.00  0.00    +0.126 HD
BRANCH 114 118
ATOM    118  C   UNL     1     162.307 161.165 198.177  0.00  0.00    +0.007 C 
ATOM    119  H   UNL     1     161.988 161.281 199.218  0.00  0.00    +0.043 HD
ATOM    120  H   UNL     1     162.499 160.103 198.000  0.00  0.00    +0.043 HD
ATOM    121  H   UNL     1     163.237 161.716 198.005  0.00  0.00    +0.043 HD
ENDBRANCH 114 118
ENDBRANCH 111 114
ENDBRANCH 107 110
ENDBRANCH 105 107
BRANCH 105 122
ATOM    122  O   UNL     1     159.760 160.047 193.432  0.00  0.00    -0.379 OA
BRANCH 122 123
ATOM    123  C   UNL     1     158.742 159.382 192.694  0.00  0.00    +0.037 C 
ATOM    124  H   UNL     1     158.840 159.669 191.644  0.00  0.00    +0.052 HD
ATOM    125  H   UNL     1     157.753 159.689 193.045  0.00  0.00    +0.052 HD
ATOM    126  H   UNL     1     158.848 158.296 192.768  0.00  0.00    +0.052 HD
ENDBRANCH 122 123
ENDBRANCH 105 122
ENDBRANCH  99 105
ENDBRANCH  97  99
ENDBRANCH  94  97
ENDBRANCH  91  94
ENDBRANCH  85  91
ENDBRANCH  83  85
BRANCH  83 127
ATOM    127  O   UNL     1     156.416 162.917 186.109  0.00  0.00    -0.379 OA
BRANCH 127 128
ATOM    128  C   UNL     1     156.174 162.164 184.924  0.00  0.00    +0.037 C 
ATOM    129  H   UNL     1     156.779 162.543 184.095  0.00  0.00    +0.052 HD
ATOM    130  H   UNL     1     155.118 162.276 184.667  0.00  0.00    +0.052 HD
ATOM    131  H   UNL     1     156.384 161.103 185.090  0.00  0.00    +0.052 HD
ENDBRANCH 127 128
ENDBRANCH  83 127
ENDBRANCH  77  83
ENDBRANCH  25  77
BRANCH   9 132
ATOM    132  O   UNL     1     148.401 165.588 189.045  0.00  0.00    -0.384 OA
ATOM    133  H   UNL     1     148.993 165.021 188.521  0.00  0.00    +0.210 HD
ENDBRANCH   9 132
BRANCH  29 134
ATOM    134  O   UNL     1     152.339 167.632 188.746  0.00  0.00    -0.376 OA
BRANCH 134 135
ATOM    135  C   UNL     1     151.804 166.874 187.668  0.00  0.00    +0.037 C 
ATOM    136  H   UNL     1     152.450 167.020 186.797  0.00  0.00    +0.052 HD
ATOM    137  H   UNL     1     151.792 165.806 187.904  0.00  0.00    +0.052 HD
ATOM    138  H   UNL     1     150.797 167.219 187.409  0.00  0.00    +0.052 HD
ENDBRANCH 134 135
ENDBRANCH  29 134
BRANCH   6 139
ATOM    139  O   UNL     1     145.168 165.627 192.217  0.00  0.00    -0.379 OA
BRANCH 139 140
ATOM    140  C   UNL     1     144.271 166.306 193.090  0.00  0.00    +0.037 C 
ATOM    141  H   UNL     1     144.480 165.985 194.115  0.00  0.00    +0.052 HD
ATOM    142  H   UNL     1     144.418 167.386 193.027  0.00  0.00    +0.052 HD
ATOM    143  H   UNL     1     143.233 166.058 192.852  0.00  0.00    +0.052 HD
ENDBRANCH 139 140
ENDBRANCH   6 139
BRANCH  16 144
ATOM    144  O   UNL     1     145.893 162.748 185.975  0.00  0.00    -0.379 OA
BRANCH 144 145
ATOM    145  C   UNL     1     145.093 162.420 184.847  0.00  0.00    +0.037 C 
ATOM    146  H   UNL     1     144.296 161.723 185.128  0.00  0.00    +0.052 HD
ATOM    147  H   UNL     1     145.733 161.931 184.106  0.00  0.00    +0.052 HD
ATOM    148  H   UNL     1     144.668 163.317 184.390  0.00  0.00    +0.052 HD
ENDBRANCH 144 145
ENDBRANCH  16 144
BRANCH   4 149
ATOM    149  O   UNL     1     147.366 168.043 193.453  0.00  0.00    -0.376 OA
BRANCH 149 150
ATOM    150  C   UNL     1     148.085 168.988 192.673  0.00  0.00    +0.037 C 
ATOM    151  H   UNL     1     147.434 169.807 192.352  0.00  0.00    +0.052 HD
ATOM    152  H   UNL     1     148.461 168.478 191.784  0.00  0.00    +0.052 HD
ATOM    153  H   UNL     1     148.940 169.384 193.226  0.00  0.00    +0.052 HD
ENDBRANCH 149 150
ENDBRANCH   4 149
TORSDOF 33
ENDMDL
MODEL 5
REMARK VINA RESULT:      -5.0      3.983     12.190
REMARK  Name = Sphinxolide B_conf1
REMARK  33 active torsions:
REMARK  status: ('A' for Active; 'I' for Inactive)
REMARK    1  A    between atoms: C_1  and  C_2
REMARK    2  A    between atoms: C_5  and  O_67
REMARK    3  A    between atoms: C_7  and  O_65
REMARK    4  A    between atoms: C_8  and  C_64
REMARK    5  A    between atoms: C_10  and  O_63
REMARK    6  A    between atoms: C_17  and  O_61
REMARK    7  A    between atoms: C_19  and  C_60
REMARK    8  A    between atoms: C_26  and  C_37
REMARK    9  A    between atoms: C_27  and  C_36
REMARK   10  A    between atoms: C_30  and  O_34
REMARK   11  A    between atoms: C_32  and  O_33
REMARK   12  A    between atoms: O_34  and  C_35
REMARK   13  A    between atoms: C_37  and  C_38
REMARK   14  A    between atoms: C_37  and  C_39
REMARK   15  A    between atoms: C_39  and  C_40
REMARK   16  A    between atoms: C_39  and  O_58
REMARK   17  A    between atoms: C_40  and  C_41
REMARK   18  A    between atoms: C_40  and  C_42
REMARK   19  A    between atoms: C_42  and  C_43
REMARK   20  A    between atoms: C_43  and  C_44
REMARK   21  A    between atoms: C_44  and  C_46
REMARK   22  A    between atoms: C_46  and  C_47
REMARK   23  A    between atoms: C_46  and  C_48
REMARK   24  A    between atoms: C_48  and  C_49
REMARK   25  A    between atoms: C_48  and  O_56
REMARK   26  A    between atoms: C_49  and  C_50
REMARK   27  A    between atoms: C_51  and  N_52
REMARK   28  A    between atoms: N_52  and  C_53
REMARK   29  A    between atoms: O_56  and  C_57
REMARK   30  A    between atoms: O_58  and  C_59
REMARK   31  A    between atoms: O_61  and  C_62
REMARK   32  A    between atoms: O_65  and  C_66
REMARK   33  A    between atoms: O_67  and  C_68
REMARK                            x       y       z     vdW  Elec       q    Type
REMARK                         _______ _______ _______ _____ _____    ______ ____
ROOT
ATOM      1  C   UNL     1     147.363 165.853 193.217  0.00  0.00    +0.000 C 
ATOM      2  C   UNL     1     146.109 166.173 192.428  0.00  0.00    -0.080 C 
ATOM      3  C   UNL     1     144.831 165.902 192.752  0.00  0.00    -0.059 C 
ATOM      4  C   UNL     1     143.587 166.209 191.928  0.00  0.00    +0.079 C 
ATOM      5  C   UNL     1     143.900 166.682 190.498  0.00  0.00    +0.004 C 
ATOM      6  C   UNL     1     142.667 167.003 189.638  0.00  0.00    +0.067 C 
ATOM      7  C   UNL     1     143.056 167.437 188.179  0.00  0.00    +0.022 C 
ATOM      8  C   UNL     1     143.974 168.708 188.163  0.00  0.00    +0.138 C 
ATOM      9  C   UNL     1     145.451 168.444 187.770  0.00  0.00    +0.114 C 
ATOM     10  C   UNL     1     145.548 168.205 186.283  0.00  0.00    -0.029 C 
ATOM     11  C   UNL     1     144.706 168.893 185.491  0.00  0.00    +0.024 C 
ATOM     12  C   UNL     1     143.721 169.856 186.020  0.00  0.00    +0.332 C 
ATOM     13  O   UNL     1     143.188 170.670 185.276  0.00  0.00    -0.246 OA
ATOM     14  O   UNL     1     143.439 169.781 187.343  0.00  0.00    -0.455 OA
ATOM     15  C   UNL     1     146.582 167.207 185.781  0.00  0.00    -0.002 C 
ATOM     16  C   UNL     1     146.741 167.008 184.255  0.00  0.00    +0.066 C 
ATOM     17  C   UNL     1     147.958 166.099 183.931  0.00  0.00    -0.005 C 
ATOM     18  C   UNL     1     147.956 164.719 184.573  0.00  0.00    -0.070 C 
ATOM     19  C   UNL     1     148.756 164.315 185.579  0.00  0.00    -0.062 C 
ATOM     20  C   UNL     1     149.743 165.102 186.286  0.00  0.00    -0.055 C 
ATOM     21  C   UNL     1     150.444 164.602 187.314  0.00  0.00    +0.023 C 
ATOM     22  C   UNL     1     151.422 165.446 188.029  0.00  0.00    +0.332 C 
ATOM     23  O   UNL     1     151.778 166.563 187.687  0.00  0.00    -0.246 OA
ATOM     24  O   UNL     1     151.814 164.758 189.126  0.00  0.00    -0.457 OA
ATOM     25  C   UNL     1     152.775 165.376 190.031  0.00  0.00    +0.114 C 
ATOM     26  C   UNL     1     152.089 165.449 191.432  0.00  0.00    +0.012 C 
ATOM     27  C   UNL     1     150.754 166.180 191.305  0.00  0.00    -0.079 C 
ATOM     28  C   UNL     1     150.402 167.375 191.809  0.00  0.00    -0.059 C 
ATOM     29  C   UNL     1     149.046 167.994 191.596  0.00  0.00    +0.079 C 
ATOM     30  C   UNL     1     148.290 168.295 192.904  0.00  0.00    +0.004 C 
ATOM     31  C   UNL     1     147.996 167.122 193.854  0.00  0.00    +0.064 C 
ATOM     32  H   UNL     1     148.081 165.425 192.507  0.00  0.00    +0.037 HD
ATOM     33  H   UNL     1     146.304 166.671 191.480  0.00  0.00    +0.057 HD
ATOM     34  H   UNL     1     144.622 165.400 193.694  0.00  0.00    +0.059 HD
ATOM     35  H   UNL     1     142.976 165.299 191.875  0.00  0.00    +0.064 HD
ATOM     36  H   UNL     1     144.511 167.586 190.568  0.00  0.00    +0.032 HD
ATOM     37  H   UNL     1     144.479 165.896 189.999  0.00  0.00    +0.032 HD
ATOM     38  H   UNL     1     142.095 167.817 190.106  0.00  0.00    +0.060 HD
ATOM     39  H   UNL     1     143.606 166.592 187.739  0.00  0.00    +0.036 HD
ATOM     40  H   UNL     1     143.985 169.133 189.174  0.00  0.00    +0.077 HD
ATOM     41  H   UNL     1     146.047 169.333 188.009  0.00  0.00    +0.068 HD
ATOM     42  H   UNL     1     144.705 168.815 184.409  0.00  0.00    +0.069 HD
ATOM     43  H   UNL     1     147.555 167.515 186.187  0.00  0.00    +0.034 HD
ATOM     44  H   UNL     1     146.320 166.239 186.226  0.00  0.00    +0.034 HD
ATOM     45  H   UNL     1     146.921 167.990 183.795  0.00  0.00    +0.060 HD
ATOM     46  H   UNL     1     148.867 166.648 184.204  0.00  0.00    +0.034 HD
ATOM     47  H   UNL     1     148.040 165.959 182.847  0.00  0.00    +0.034 HD
ATOM     48  H   UNL     1     148.650 163.286 185.932  0.00  0.00    +0.062 HD
ATOM     49  H   UNL     1     149.914 166.131 185.980  0.00  0.00    +0.062 HD
ATOM     50  H   UNL     1     150.318 163.585 187.668  0.00  0.00    +0.069 HD
ATOM     51  H   UNL     1     152.955 166.411 189.708  0.00  0.00    +0.074 HD
ATOM     52  H   UNL     1     151.808 164.436 191.744  0.00  0.00    +0.038 HD
ATOM     53  H   UNL     1     150.004 165.638 190.727  0.00  0.00    +0.057 HD
ATOM     54  H   UNL     1     151.098 167.966 192.398  0.00  0.00    +0.059 HD
ATOM     55  H   UNL     1     148.421 167.356 190.962  0.00  0.00    +0.064 HD
ATOM     56  H   UNL     1     147.343 168.783 192.637  0.00  0.00    +0.032 HD
ATOM     57  H   UNL     1     148.856 169.060 193.459  0.00  0.00    +0.032 HD
ATOM     58  H   UNL     1     147.315 167.505 194.626  0.00  0.00    +0.060 HD
ENDROOT
BRANCH   1  59
ATOM     59  C   UNL     1     147.152 164.759 194.280  0.00  0.00    -0.057 C 
ATOM     60  H   UNL     1     147.607 165.041 195.237  0.00  0.00    +0.024 HD
ATOM     61  H   UNL     1     146.084 164.601 194.471  0.00  0.00    +0.024 HD
ATOM     62  H   UNL     1     147.583 163.803 193.966  0.00  0.00    +0.024 HD
ENDBRANCH   1  59
BRANCH  26  63
ATOM     63  C   UNL     1     152.969 166.049 192.529  0.00  0.00    -0.056 C 
ATOM     64  H   UNL     1     152.577 165.830 193.527  0.00  0.00    +0.024 HD
ATOM     65  H   UNL     1     153.995 165.663 192.474  0.00  0.00    +0.024 HD
ATOM     66  H   UNL     1     153.062 167.130 192.423  0.00  0.00    +0.024 HD
ENDBRANCH  26  63
BRANCH  18  67
ATOM     67  C   UNL     1     146.972 163.739 183.979  0.00  0.00    -0.043 C 
ATOM     68  H   UNL     1     146.228 164.258 183.368  0.00  0.00    +0.027 HD
ATOM     69  H   UNL     1     146.428 163.180 184.747  0.00  0.00    +0.027 HD
ATOM     70  H   UNL     1     147.490 163.002 183.355  0.00  0.00    +0.027 HD
ENDBRANCH  18  67
BRANCH   7  71
ATOM     71  C   UNL     1     141.789 167.595 187.323  0.00  0.00    -0.057 C 
ATOM     72  H   UNL     1     141.103 166.754 187.467  0.00  0.00    +0.023 HD
ATOM     73  H   UNL     1     141.260 168.523 187.557  0.00  0.00    +0.023 HD
ATOM     74  H   UNL     1     142.034 167.656 186.258  0.00  0.00    +0.023 HD
ENDBRANCH   7  71
BRANCH  31  75
ATOM     75  O   UNL     1     149.212 166.786 194.535  0.00  0.00    -0.391 OA
ATOM     76  H   UNL     1     149.220 165.825 194.670  0.00  0.00    +0.210 HD
ENDBRANCH  31  75
BRANCH  25  77
ATOM     77  C   UNL     1     154.118 164.595 189.838  0.00  0.00    +0.020 C 
ATOM     78  H   UNL     1     154.577 164.555 190.834  0.00  0.00    +0.036 HD
BRANCH  77  79
ATOM     79  C   UNL     1     153.869 163.122 189.472  0.00  0.00    -0.057 C 
ATOM     80  H   UNL     1     152.818 162.894 189.309  0.00  0.00    +0.023 HD
ATOM     81  H   UNL     1     154.249 162.456 190.254  0.00  0.00    +0.023 HD
ATOM     82  H   UNL     1     154.401 162.869 188.547  0.00  0.00    +0.023 HD
ENDBRANCH  77  79
BRANCH  77  83
ATOM     83  C   UNL     1     155.198 165.224 188.894  0.00  0.00    +0.067 C 
ATOM     84  H   UNL     1     155.341 164.526 188.055  0.00  0.00    +0.060 HD
BRANCH  83  85
ATOM     85  C   UNL     1     156.599 165.399 189.566  0.00  0.00    -0.017 C 
ATOM     86  H   UNL     1     157.273 165.924 188.892  0.00  0.00    +0.032 HD
BRANCH  85  87
ATOM     87  C   UNL     1     156.467 166.281 190.818  0.00  0.00    -0.060 C 
ATOM     88  H   UNL     1     156.177 167.298 190.545  0.00  0.00    +0.023 HD
ATOM     89  H   UNL     1     155.702 165.899 191.501  0.00  0.00    +0.023 HD
ATOM     90  H   UNL     1     157.413 166.334 191.367  0.00  0.00    +0.023 HD
ENDBRANCH  85  87
BRANCH  85  91
ATOM     91  C   UNL     1     157.302 164.075 189.948  0.00  0.00    -0.041 C 
ATOM     92  H   UNL     1     156.703 163.541 190.696  0.00  0.00    +0.027 HD
ATOM     93  H   UNL     1     158.263 164.287 190.434  0.00  0.00    +0.027 HD
BRANCH  91  94
ATOM     94  C   UNL     1     157.556 163.156 188.744  0.00  0.00    +0.007 C 
ATOM     95  H   UNL     1     156.848 162.320 188.795  0.00  0.00    +0.034 HD
ATOM     96  H   UNL     1     157.378 163.691 187.812  0.00  0.00    +0.034 HD
BRANCH  94  97
ATOM     97  C   UNL     1     158.964 162.567 188.713  0.00  0.00    +0.139 C 
ATOM     98  O   UNL     1     159.924 163.208 188.275  0.00  0.00    -0.297 OA
BRANCH  97  99
ATOM     99  C   UNL     1     159.209 161.177 189.303  0.00  0.00    +0.041 C 
ATOM    100  H   UNL     1     159.651 160.607 188.474  0.00  0.00    +0.040 HD
BRANCH  99 101
ATOM    101  C   UNL     1     157.940 160.408 189.660  0.00  0.00    -0.053 C 
ATOM    102  H   UNL     1     157.032 160.911 189.310  0.00  0.00    +0.024 HD
ATOM    103  H   UNL     1     157.857 160.277 190.743  0.00  0.00    +0.024 HD
ATOM    104  H   UNL     1     157.956 159.411 189.208  0.00  0.00    +0.024 HD
ENDBRANCH  99 101
BRANCH  99 105
ATOM    105  C   UNL     1     160.251 161.240 190.443  0.00  0.00    +0.071 C 
ATOM    106  H   UNL     1     161.140 161.793 190.109  0.00  0.00    +0.061 HD
BRANCH 105 107
ATOM    107  C   UNL     1     159.713 161.910 191.726  0.00  0.00    -0.006 C 
ATOM    108  H   UNL     1     158.695 162.274 191.566  0.00  0.00    +0.033 HD
ATOM    109  H   UNL     1     159.678 161.178 192.542  0.00  0.00    +0.033 HD
BRANCH 107 110
ATOM    110  C   UNL     1     160.535 163.100 192.158  0.00  0.00    -0.067 C 
ATOM    111  C   UNL     1     161.200 163.143 193.324  0.00  0.00    -0.005 C 
ATOM    112  H   UNL     1     160.540 163.944 191.475  0.00  0.00    +0.059 HD
ATOM    113  H   UNL     1     161.173 162.271 193.975  0.00  0.00    +0.078 HD
BRANCH 111 114
ATOM    114  N   UNL     1     161.942 164.215 193.797  0.00  0.00    -0.284 N 
ATOM    115  C   UNL     1     163.301 164.314 193.513  0.00  0.00    +0.206 C 
ATOM    116  O   UNL     1     164.059 165.208 193.872  0.00  0.00    -0.279 OA
ATOM    117  H   UNL     1     163.672 163.471 192.904  0.00  0.00    +0.126 HD
BRANCH 114 118
ATOM    118  C   UNL     1     161.334 165.269 194.594  0.00  0.00    +0.007 C 
ATOM    119  H   UNL     1     162.058 165.641 195.327  0.00  0.00    +0.043 HD
ATOM    120  H   UNL     1     161.015 166.114 193.977  0.00  0.00    +0.043 HD
ATOM    121  H   UNL     1     160.453 164.867 195.107  0.00  0.00    +0.043 HD
ENDBRANCH 114 118
ENDBRANCH 111 114
ENDBRANCH 107 110
ENDBRANCH 105 107
BRANCH 105 122
ATOM    122  O   UNL     1     160.629 159.896 190.806  0.00  0.00    -0.379 OA
BRANCH 122 123
ATOM    123  C   UNL     1     161.666 159.364 189.991  0.00  0.00    +0.037 C 
ATOM    124  H   UNL     1     161.238 158.576 189.367  0.00  0.00    +0.052 HD
ATOM    125  H   UNL     1     162.452 158.925 190.612  0.00  0.00    +0.052 HD
ATOM    126  H   UNL     1     162.087 160.133 189.338  0.00  0.00    +0.052 HD
ENDBRANCH 122 123
ENDBRANCH 105 122
ENDBRANCH  99 105
ENDBRANCH  97  99
ENDBRANCH  94  97
ENDBRANCH  91  94
ENDBRANCH  85  91
ENDBRANCH  83  85
BRANCH  83 127
ATOM    127  O   UNL     1     154.718 166.465 188.381  0.00  0.00    -0.379 OA
BRANCH 127 128
ATOM    128  C   UNL     1     155.017 166.673 187.003  0.00  0.00    +0.037 C 
ATOM    129  H   UNL     1     155.315 165.734 186.526  0.00  0.00    +0.052 HD
ATOM    130  H   UNL     1     155.852 167.376 186.945  0.00  0.00    +0.052 HD
ATOM    131  H   UNL     1     154.157 167.105 186.482  0.00  0.00    +0.052 HD
ENDBRANCH 127 128
ENDBRANCH  83 127
ENDBRANCH  77  83
ENDBRANCH  25  77
BRANCH   9 132
ATOM    132  O   UNL     1     145.994 167.357 188.502  0.00  0.00    -0.384 OA
ATOM    133  H   UNL     1     145.643 166.538 188.111  0.00  0.00    +0.210 HD
ENDBRANCH   9 132
BRANCH  29 134
ATOM    134  O   UNL     1     149.204 169.256 190.923  0.00  0.00    -0.376 OA
BRANCH 134 135
ATOM    135  C   UNL     1     149.377 170.361 191.802  0.00  0.00    +0.037 C 
ATOM    136  H   UNL     1     149.994 170.031 192.643  0.00  0.00    +0.052 HD
ATOM    137  H   UNL     1     149.898 171.183 191.303  0.00  0.00    +0.052 HD
ATOM    138  H   UNL     1     148.414 170.702 192.195  0.00  0.00    +0.052 HD
ENDBRANCH 134 135
ENDBRANCH  29 134
BRANCH   6 139
ATOM    139  O   UNL     1     141.874 165.804 189.566  0.00  0.00    -0.379 OA
BRANCH 139 140
ATOM    140  C   UNL     1     142.586 164.702 189.013  0.00  0.00    +0.037 C 
ATOM    141  H   UNL     1     141.862 163.929 188.737  0.00  0.00    +0.052 HD
ATOM    142  H   UNL     1     143.127 165.007 188.115  0.00  0.00    +0.052 HD
ATOM    143  H   UNL     1     143.283 164.281 189.742  0.00  0.00    +0.052 HD
ENDBRANCH 139 140
ENDBRANCH   6 139
BRANCH  16 144
ATOM    144  O   UNL     1     145.520 166.467 183.731  0.00  0.00    -0.379 OA
BRANCH 144 145
ATOM    145  C   UNL     1     145.298 166.759 182.358  0.00  0.00    +0.037 C 
ATOM    146  H   UNL     1     146.049 167.464 181.986  0.00  0.00    +0.052 HD
ATOM    147  H   UNL     1     144.311 167.224 182.264  0.00  0.00    +0.052 HD
ATOM    148  H   UNL     1     145.303 165.847 181.755  0.00  0.00    +0.052 HD
ENDBRANCH 144 145
ENDBRANCH  16 144
BRANCH   4 149
ATOM    149  O   UNL     1     142.857 167.255 192.586  0.00  0.00    -0.376 OA
BRANCH 149 150
ATOM    150  C   UNL     1     142.311 166.867 193.840  0.00  0.00    +0.037 C 
ATOM    151  H   UNL     1     141.338 166.383 193.710  0.00  0.00    +0.052 HD
ATOM    152  H   UNL     1     142.171 167.767 194.441  0.00  0.00    +0.052 HD
ATOM    153  H   UNL     1     142.993 166.202 194.375  0.00  0.00    +0.052 HD
ENDBRANCH 149 150
ENDBRANCH   4 149
TORSDOF 33
ENDMDL
MODEL 6
REMARK VINA RESULT:      -5.0      3.864     11.554
REMARK  Name = Sphinxolide B_conf1
REMARK  33 active torsions:
REMARK  status: ('A' for Active; 'I' for Inactive)
REMARK    1  A    between atoms: C_1  and  C_2
REMARK    2  A    between atoms: C_5  and  O_67
REMARK    3  A    between atoms: C_7  and  O_65
REMARK    4  A    between atoms: C_8  and  C_64
REMARK    5  A    between atoms: C_10  and  O_63
REMARK    6  A    between atoms: C_17  and  O_61
REMARK    7  A    between atoms: C_19  and  C_60
REMARK    8  A    between atoms: C_26  and  C_37
REMARK    9  A    between atoms: C_27  and  C_36
REMARK   10  A    between atoms: C_30  and  O_34
REMARK   11  A    between atoms: C_32  and  O_33
REMARK   12  A    between atoms: O_34  and  C_35
REMARK   13  A    between atoms: C_37  and  C_38
REMARK   14  A    between atoms: C_37  and  C_39
REMARK   15  A    between atoms: C_39  and  C_40
REMARK   16  A    between atoms: C_39  and  O_58
REMARK   17  A    between atoms: C_40  and  C_41
REMARK   18  A    between atoms: C_40  and  C_42
REMARK   19  A    between atoms: C_42  and  C_43
REMARK   20  A    between atoms: C_43  and  C_44
REMARK   21  A    between atoms: C_44  and  C_46
REMARK   22  A    between atoms: C_46  and  C_47
REMARK   23  A    between atoms: C_46  and  C_48
REMARK   24  A    between atoms: C_48  and  C_49
REMARK   25  A    between atoms: C_48  and  O_56
REMARK   26  A    between atoms: C_49  and  C_50
REMARK   27  A    between atoms: C_51  and  N_52
REMARK   28  A    between atoms: N_52  and  C_53
REMARK   29  A    between atoms: O_56  and  C_57
REMARK   30  A    between atoms: O_58  and  C_59
REMARK   31  A    between atoms: O_61  and  C_62
REMARK   32  A    between atoms: O_65  and  C_66
REMARK   33  A    between atoms: O_67  and  C_68
REMARK                            x       y       z     vdW  Elec       q    Type
REMARK                         _______ _______ _______ _____ _____    ______ ____
ROOT
ATOM      1  C   UNL     1     147.784 165.881 193.148  0.00  0.00    +0.000 C 
ATOM      2  C   UNL     1     146.455 166.309 192.556  0.00  0.00    -0.080 C 
ATOM      3  C   UNL     1     145.217 166.027 193.001  0.00  0.00    -0.059 C 
ATOM      4  C   UNL     1     143.895 166.446 192.371  0.00  0.00    +0.079 C 
ATOM      5  C   UNL     1     144.051 167.069 190.973  0.00  0.00    +0.004 C 
ATOM      6  C   UNL     1     142.736 167.506 190.308  0.00  0.00    +0.067 C 
ATOM      7  C   UNL     1     142.964 168.091 188.868  0.00  0.00    +0.022 C 
ATOM      8  C   UNL     1     143.912 169.340 188.878  0.00  0.00    +0.138 C 
ATOM      9  C   UNL     1     145.324 169.094 188.283  0.00  0.00    +0.114 C 
ATOM     10  C   UNL     1     145.237 169.020 186.778  0.00  0.00    -0.029 C 
ATOM     11  C   UNL     1     144.329 169.806 186.173  0.00  0.00    +0.024 C 
ATOM     12  C   UNL     1     143.445 170.722 186.917  0.00  0.00    +0.332 C 
ATOM     13  O   UNL     1     142.853 171.623 186.336  0.00  0.00    -0.246 OA
ATOM     14  O   UNL     1     143.318 170.506 188.249  0.00  0.00    -0.455 OA
ATOM     15  C   UNL     1     146.172 168.065 186.051  0.00  0.00    -0.002 C 
ATOM     16  C   UNL     1     146.144 168.033 184.504  0.00  0.00    +0.066 C 
ATOM     17  C   UNL     1     147.285 167.143 183.940  0.00  0.00    -0.005 C 
ATOM     18  C   UNL     1     147.315 165.701 184.425  0.00  0.00    -0.070 C 
ATOM     19  C   UNL     1     148.215 165.173 185.277  0.00  0.00    -0.062 C 
ATOM     20  C   UNL     1     149.304 165.859 185.940  0.00  0.00    -0.055 C 
ATOM     21  C   UNL     1     150.105 165.236 186.816  0.00  0.00    +0.023 C 
ATOM     22  C   UNL     1     151.187 165.977 187.495  0.00  0.00    +0.332 C 
ATOM     23  O   UNL     1     151.534 167.119 187.234  0.00  0.00    -0.246 OA
ATOM     24  O   UNL     1     151.683 165.165 188.455  0.00  0.00    -0.457 OA
ATOM     25  C   UNL     1     152.763 165.661 189.299  0.00  0.00    +0.114 C 
ATOM     26  C   UNL     1     152.250 165.591 190.772  0.00  0.00    +0.012 C 
ATOM     27  C   UNL     1     150.933 166.356 190.887  0.00  0.00    -0.079 C 
ATOM     28  C   UNL     1     150.681 167.494 191.556  0.00  0.00    -0.059 C 
ATOM     29  C   UNL     1     149.329 168.157 191.576  0.00  0.00    +0.079 C 
ATOM     30  C   UNL     1     148.743 168.325 192.990  0.00  0.00    +0.004 C 
ATOM     31  C   UNL     1     148.527 167.059 193.838  0.00  0.00    +0.064 C 
ATOM     32  H   UNL     1     148.398 165.521 192.315  0.00  0.00    +0.037 HD
ATOM     33  H   UNL     1     146.553 166.905 191.651  0.00  0.00    +0.057 HD
ATOM     34  H   UNL     1     145.105 165.428 193.901  0.00  0.00    +0.059 HD
ATOM     35  H   UNL     1     143.253 165.559 192.294  0.00  0.00    +0.064 HD
ATOM     36  H   UNL     1     144.694 167.949 191.066  0.00  0.00    +0.032 HD
ATOM     37  H   UNL     1     144.542 166.333 190.326  0.00  0.00    +0.032 HD
ATOM     38  H   UNL     1     142.249 168.273 190.927  0.00  0.00    +0.060 HD
ATOM     39  H   UNL     1     143.431 167.291 188.276  0.00  0.00    +0.036 HD
ATOM     40  H   UNL     1     144.056 169.650 189.921  0.00  0.00    +0.077 HD
ATOM     41  H   UNL     1     145.971 169.940 188.543  0.00  0.00    +0.068 HD
ATOM     42  H   UNL     1     144.198 169.848 185.097  0.00  0.00    +0.069 HD
ATOM     43  H   UNL     1     147.195 168.308 186.367  0.00  0.00    +0.034 HD
ATOM     44  H   UNL     1     145.935 167.058 186.417  0.00  0.00    +0.034 HD
ATOM     45  H   UNL     1     146.299 169.056 184.134  0.00  0.00    +0.060 HD
ATOM     46  H   UNL     1     148.236 167.642 184.158  0.00  0.00    +0.034 HD
ATOM     47  H   UNL     1     147.235 167.123 182.845  0.00  0.00    +0.034 HD
ATOM     48  H   UNL     1     148.120 164.114 185.527  0.00  0.00    +0.062 HD
ATOM     49  H   UNL     1     149.469 166.912 185.728  0.00  0.00    +0.062 HD
ATOM     50  H   UNL     1     149.990 164.188 187.071  0.00  0.00    +0.069 HD
ATOM     51  H   UNL     1     152.937 166.722 189.070  0.00  0.00    +0.074 HD
ATOM     52  H   UNL     1     151.976 164.555 191.004  0.00  0.00    +0.038 HD
ATOM     53  H   UNL     1     150.104 165.894 190.349  0.00  0.00    +0.057 HD
ATOM     54  H   UNL     1     151.460 168.003 192.116  0.00  0.00    +0.059 HD
ATOM     55  H   UNL     1     148.614 167.605 190.958  0.00  0.00    +0.064 HD
ATOM     56  H   UNL     1     147.787 168.857 192.894  0.00  0.00    +0.032 HD
ATOM     57  H   UNL     1     149.394 169.013 193.552  0.00  0.00    +0.032 HD
ATOM     58  H   UNL     1     147.954 167.367 194.722  0.00  0.00    +0.060 HD
ENDROOT
BRANCH   1  59
ATOM     59  C   UNL     1     147.665 164.680 194.104  0.00  0.00    -0.057 C 
ATOM     60  H   UNL     1     148.577 164.071 194.092  0.00  0.00    +0.024 HD
ATOM     61  H   UNL     1     147.523 165.016 195.138  0.00  0.00    +0.024 HD
ATOM     62  H   UNL     1     146.820 164.036 193.841  0.00  0.00    +0.024 HD
ENDBRANCH   1  59
BRANCH  26  63
ATOM     63  C   UNL     1     153.273 166.049 191.813  0.00  0.00    -0.056 C 
ATOM     64  H   UNL     1     154.032 166.703 191.373  0.00  0.00    +0.024 HD
ATOM     65  H   UNL     1     152.790 166.594 192.634  0.00  0.00    +0.024 HD
ATOM     66  H   UNL     1     153.774 165.203 192.284  0.00  0.00    +0.024 HD
ENDBRANCH  26  63
BRANCH  18  67
ATOM     67  C   UNL     1     146.238 164.811 183.851  0.00  0.00    -0.043 C 
ATOM     68  H   UNL     1     146.355 163.783 184.207  0.00  0.00    +0.027 HD
ATOM     69  H   UNL     1     146.264 164.780 182.758  0.00  0.00    +0.027 HD
ATOM     70  H   UNL     1     145.244 165.174 184.138  0.00  0.00    +0.027 HD
ENDBRANCH  18  67
BRANCH   7  71
ATOM     71  C   UNL     1     141.610 168.367 188.193  0.00  0.00    -0.057 C 
ATOM     72  H   UNL     1     141.674 169.213 187.501  0.00  0.00    +0.023 HD
ATOM     73  H   UNL     1     141.249 167.492 187.646  0.00  0.00    +0.023 HD
ATOM     74  H   UNL     1     140.835 168.590 188.934  0.00  0.00    +0.023 HD
ENDBRANCH   7  71
BRANCH  31  75
ATOM     75  O   UNL     1     149.804 166.628 194.326  0.00  0.00    -0.391 OA
ATOM     76  H   UNL     1     150.334 166.353 193.561  0.00  0.00    +0.210 HD
ENDBRANCH  31  75
BRANCH  25  77
ATOM     77  C   UNL     1     154.049 164.882 188.862  0.00  0.00    +0.020 C 
ATOM     78  H   UNL     1     154.567 164.628 189.796  0.00  0.00    +0.036 HD
BRANCH  77  79
ATOM     79  C   UNL     1     153.701 163.522 188.235  0.00  0.00    -0.057 C 
ATOM     80  H   UNL     1     154.564 163.015 187.807  0.00  0.00    +0.023 HD
ATOM     81  H   UNL     1     152.945 163.635 187.450  0.00  0.00    +0.023 HD
ATOM     82  H   UNL     1     153.279 162.853 188.995  0.00  0.00    +0.023 HD
ENDBRANCH  77  79
BRANCH  77  83
ATOM     83  C   UNL     1     155.099 165.643 187.984  0.00  0.00    +0.067 C 
ATOM     84  H   UNL     1     155.156 165.116 187.019  0.00  0.00    +0.060 HD
BRANCH  83  85
ATOM     85  C   UNL     1     156.545 165.631 188.578  0.00  0.00    -0.017 C 
ATOM     86  H   UNL     1     156.992 166.620 188.491  0.00  0.00    +0.032 HD
BRANCH  85  87
ATOM     87  C   UNL     1     156.487 165.315 190.081  0.00  0.00    -0.060 C 
ATOM     88  H   UNL     1     155.452 165.205 190.412  0.00  0.00    +0.023 HD
ATOM     89  H   UNL     1     157.001 164.378 190.315  0.00  0.00    +0.023 HD
ATOM     90  H   UNL     1     156.950 166.111 190.673  0.00  0.00    +0.023 HD
ENDBRANCH  85  87
BRANCH  85  91
ATOM     91  C   UNL     1     157.519 164.647 187.888  0.00  0.00    -0.041 C 
ATOM     92  H   UNL     1     157.120 163.627 187.951  0.00  0.00    +0.027 HD
ATOM     93  H   UNL     1     158.475 164.625 188.427  0.00  0.00    +0.027 HD
BRANCH  91  94
ATOM     94  C   UNL     1     157.796 164.999 186.419  0.00  0.00    +0.007 C 
ATOM     95  H   UNL     1     157.505 164.143 185.800  0.00  0.00    +0.034 HD
ATOM     96  H   UNL     1     157.195 165.854 186.113  0.00  0.00    +0.034 HD
BRANCH  94  97
ATOM     97  C   UNL     1     159.265 165.299 186.130  0.00  0.00    +0.139 C 
ATOM     98  O   UNL     1     160.173 164.658 186.666  0.00  0.00    -0.297 OA
BRANCH  97  99
ATOM     99  C   UNL     1     159.622 166.370 185.099  0.00  0.00    +0.041 C 
ATOM    100  H   UNL     1     159.596 165.838 184.138  0.00  0.00    +0.040 HD
BRANCH  99 101
ATOM    101  C   UNL     1     161.052 166.896 185.202  0.00  0.00    -0.053 C 
ATOM    102  H   UNL     1     161.408 166.943 186.236  0.00  0.00    +0.024 HD
ATOM    103  H   UNL     1     161.128 167.900 184.772  0.00  0.00    +0.024 HD
ATOM    104  H   UNL     1     161.739 166.248 184.648  0.00  0.00    +0.024 HD
ENDBRANCH  99 101
BRANCH  99 105
ATOM    105  C   UNL     1     158.544 167.477 185.058  0.00  0.00    +0.071 C 
ATOM    106  H   UNL     1     157.675 167.175 185.659  0.00  0.00    +0.061 HD
BRANCH 105 107
ATOM    107  C   UNL     1     159.048 168.840 185.579  0.00  0.00    -0.006 C 
ATOM    108  H   UNL     1     159.038 168.857 186.671  0.00  0.00    +0.033 HD
ATOM    109  H   UNL     1     160.083 169.004 185.254  0.00  0.00    +0.033 HD
BRANCH 107 110
ATOM    110  C   UNL     1     158.194 169.998 185.121  0.00  0.00    -0.067 C 
ATOM    111  C   UNL     1     158.687 171.041 184.433  0.00  0.00    -0.005 C 
ATOM    112  H   UNL     1     157.147 169.953 185.403  0.00  0.00    +0.059 HD
ATOM    113  H   UNL     1     159.742 171.041 184.166  0.00  0.00    +0.078 HD
BRANCH 111 114
ATOM    114  N   UNL     1     157.967 172.150 184.015  0.00  0.00    -0.284 N 
ATOM    115  C   UNL     1     156.587 172.202 184.185  0.00  0.00    +0.206 C 
ATOM    116  O   UNL     1     155.845 173.122 183.858  0.00  0.00    -0.279 OA
ATOM    117  H   UNL     1     156.181 171.293 184.663  0.00  0.00    +0.126 HD
BRANCH 114 118
ATOM    118  C   UNL     1     158.621 173.293 183.395  0.00  0.00    +0.007 C 
ATOM    119  H   UNL     1     157.873 174.051 183.139  0.00  0.00    +0.043 HD
ATOM    120  H   UNL     1     159.354 173.755 184.063  0.00  0.00    +0.043 HD
ATOM    121  H   UNL     1     159.142 172.959 182.492  0.00  0.00    +0.043 HD
ENDBRANCH 114 118
ENDBRANCH 111 114
ENDBRANCH 107 110
ENDBRANCH 105 107
BRANCH 105 122
ATOM    122  O   UNL     1     158.136 167.682 183.691  0.00  0.00    -0.379 OA
BRANCH 122 123
ATOM    123  C   UNL     1     157.028 166.876 183.307  0.00  0.00    +0.037 C 
ATOM    124  H   UNL     1     156.427 167.441 182.590  0.00  0.00    +0.052 HD
ATOM    125  H   UNL     1     156.404 166.646 184.176  0.00  0.00    +0.052 HD
ATOM    126  H   UNL     1     157.361 165.951 182.828  0.00  0.00    +0.052 HD
ENDBRANCH 122 123
ENDBRANCH 105 122
ENDBRANCH  99 105
ENDBRANCH  97  99
ENDBRANCH  94  97
ENDBRANCH  91  94
ENDBRANCH  85  91
ENDBRANCH  83  85
BRANCH  83 127
ATOM    127  O   UNL     1     154.652 166.977 187.753  0.00  0.00    -0.379 OA
BRANCH 127 128
ATOM    128  C   UNL     1     154.881 167.440 186.426  0.00  0.00    +0.037 C 
ATOM    129  H   UNL     1     154.177 168.237 186.167  0.00  0.00    +0.052 HD
ATOM    130  H   UNL     1     154.723 166.599 185.747  0.00  0.00    +0.052 HD
ATOM    131  H   UNL     1     155.910 167.794 186.312  0.00  0.00    +0.052 HD
ENDBRANCH 127 128
ENDBRANCH  83 127
ENDBRANCH  77  83
ENDBRANCH  25  77
BRANCH   9 132
ATOM    132  O   UNL     1     145.914 167.923 188.823  0.00  0.00    -0.384 OA
ATOM    133  H   UNL     1     145.350 167.171 188.576  0.00  0.00    +0.210 HD
ENDBRANCH   9 132
BRANCH  29 134
ATOM    134  O   UNL     1     149.446 169.482 191.029  0.00  0.00    -0.376 OA
BRANCH 134 135
ATOM    135  C   UNL     1     150.047 170.421 191.913  0.00  0.00    +0.037 C 
ATOM    136  H   UNL     1     150.042 171.399 191.424  0.00  0.00    +0.052 HD
ATOM    137  H   UNL     1     149.479 170.506 192.844  0.00  0.00    +0.052 HD
ATOM    138  H   UNL     1     151.087 170.148 192.124  0.00  0.00    +0.052 HD
ENDBRANCH 134 135
ENDBRANCH  29 134
BRANCH   6 139
ATOM    139  O   UNL     1     141.903 166.336 190.203  0.00  0.00    -0.379 OA
BRANCH 139 140
ATOM    140  C   UNL     1     142.505 165.294 189.443  0.00  0.00    +0.037 C 
ATOM    141  H   UNL     1     141.711 164.640 189.069  0.00  0.00    +0.052 HD
ATOM    142  H   UNL     1     143.047 165.705 188.589  0.00  0.00    +0.052 HD
ATOM    143  H   UNL     1     143.183 164.700 190.063  0.00  0.00    +0.052 HD
ENDBRANCH 139 140
ENDBRANCH   6 139
BRANCH  16 144
ATOM    144  O   UNL     1     144.854 167.575 184.076  0.00  0.00    -0.379 OA
BRANCH 144 145
ATOM    145  C   UNL     1     144.473 168.036 182.787  0.00  0.00    +0.037 C 
ATOM    146  H   UNL     1     145.205 168.752 182.400  0.00  0.00    +0.052 HD
ATOM    147  H   UNL     1     143.507 168.544 182.878  0.00  0.00    +0.052 HD
ATOM    148  H   UNL     1     144.354 167.202 182.090  0.00  0.00    +0.052 HD
ENDBRANCH 144 145
ENDBRANCH  16 144
BRANCH   4 149
ATOM    149  O   UNL     1     143.280 167.426 193.221  0.00  0.00    -0.376 OA
BRANCH 149 150
ATOM    150  C   UNL     1     142.214 166.910 194.006  0.00  0.00    +0.037 C 
ATOM    151  H   UNL     1     141.251 167.300 193.663  0.00  0.00    +0.052 HD
ATOM    152  H   UNL     1     142.368 167.230 195.038  0.00  0.00    +0.052 HD
ATOM    153  H   UNL     1     142.206 165.818 193.986  0.00  0.00    +0.052 HD
ENDBRANCH 149 150
ENDBRANCH   4 149
TORSDOF 33
ENDMDL
MODEL 7
REMARK VINA RESULT:      -5.0      3.638     11.326
REMARK  Name = Sphinxolide B_conf1
REMARK  33 active torsions:
REMARK  status: ('A' for Active; 'I' for Inactive)
REMARK    1  A    between atoms: C_1  and  C_2
REMARK    2  A    between atoms: C_5  and  O_67
REMARK    3  A    between atoms: C_7  and  O_65
REMARK    4  A    between atoms: C_8  and  C_64
REMARK    5  A    between atoms: C_10  and  O_63
REMARK    6  A    between atoms: C_17  and  O_61
REMARK    7  A    between atoms: C_19  and  C_60
REMARK    8  A    between atoms: C_26  and  C_37
REMARK    9  A    between atoms: C_27  and  C_36
REMARK   10  A    between atoms: C_30  and  O_34
REMARK   11  A    between atoms: C_32  and  O_33
REMARK   12  A    between atoms: O_34  and  C_35
REMARK   13  A    between atoms: C_37  and  C_38
REMARK   14  A    between atoms: C_37  and  C_39
REMARK   15  A    between atoms: C_39  and  C_40
REMARK   16  A    between atoms: C_39  and  O_58
REMARK   17  A    between atoms: C_40  and  C_41
REMARK   18  A    between atoms: C_40  and  C_42
REMARK   19  A    between atoms: C_42  and  C_43
REMARK   20  A    between atoms: C_43  and  C_44
REMARK   21  A    between atoms: C_44  and  C_46
REMARK   22  A    between atoms: C_46  and  C_47
REMARK   23  A    between atoms: C_46  and  C_48
REMARK   24  A    between atoms: C_48  and  C_49
REMARK   25  A    between atoms: C_48  and  O_56
REMARK   26  A    between atoms: C_49  and  C_50
REMARK   27  A    between atoms: C_51  and  N_52
REMARK   28  A    between atoms: N_52  and  C_53
REMARK   29  A    between atoms: O_56  and  C_57
REMARK   30  A    between atoms: O_58  and  C_59
REMARK   31  A    between atoms: O_61  and  C_62
REMARK   32  A    between atoms: O_65  and  C_66
REMARK   33  A    between atoms: O_67  and  C_68
REMARK                            x       y       z     vdW  Elec       q    Type
REMARK                         _______ _______ _______ _____ _____    ______ ____
ROOT
ATOM      1  C   UNL     1     151.764 166.161 192.975  0.00  0.00    +0.000 C 
ATOM      2  C   UNL     1     150.292 166.344 192.661  0.00  0.00    -0.080 C 
ATOM      3  C   UNL     1     149.272 166.510 193.524  0.00  0.00    -0.059 C 
ATOM      4  C   UNL     1     147.796 166.664 193.185  0.00  0.00    +0.079 C 
ATOM      5  C   UNL     1     147.472 166.379 191.708  0.00  0.00    +0.004 C 
ATOM      6  C   UNL     1     145.990 166.527 191.329  0.00  0.00    +0.067 C 
ATOM      7  C   UNL     1     145.724 166.179 189.820  0.00  0.00    +0.022 C 
ATOM      8  C   UNL     1     146.542 167.096 188.847  0.00  0.00    +0.138 C 
ATOM      9  C   UNL     1     147.716 166.391 188.117  0.00  0.00    +0.114 C 
ATOM     10  C   UNL     1     147.176 165.504 187.022  0.00  0.00    -0.029 C 
ATOM     11  C   UNL     1     146.075 165.923 186.374  0.00  0.00    +0.024 C 
ATOM     12  C   UNL     1     145.402 167.197 186.687  0.00  0.00    +0.332 C 
ATOM     13  O   UNL     1     144.601 167.685 185.900  0.00  0.00    -0.246 OA
ATOM     14  O   UNL     1     145.705 167.776 187.874  0.00  0.00    -0.455 OA
ATOM     15  C   UNL     1     147.906 164.200 186.729  0.00  0.00    -0.002 C 
ATOM     16  C   UNL     1     147.406 163.316 185.561  0.00  0.00    +0.066 C 
ATOM     17  C   UNL     1     148.377 162.133 185.298  0.00  0.00    -0.005 C 
ATOM     18  C   UNL     1     148.653 161.214 186.479  0.00  0.00    -0.070 C 
ATOM     19  C   UNL     1     149.805 161.146 187.174  0.00  0.00    -0.062 C 
ATOM     20  C   UNL     1     150.995 161.947 186.982  0.00  0.00    -0.055 C 
ATOM     21  C   UNL     1     152.067 161.825 187.778  0.00  0.00    +0.023 C 
ATOM     22  C   UNL     1     153.251 162.681 187.569  0.00  0.00    +0.332 C 
ATOM     23  O   UNL     1     153.424 163.432 186.621  0.00  0.00    -0.246 OA
ATOM     24  O   UNL     1     154.073 162.488 188.625  0.00  0.00    -0.457 OA
ATOM     25  C   UNL     1     155.323 163.235 188.683  0.00  0.00    +0.114 C 
ATOM     26  C   UNL     1     155.294 164.059 190.009  0.00  0.00    +0.012 C 
ATOM     27  C   UNL     1     154.027 164.911 190.046  0.00  0.00    -0.079 C 
ATOM     28  C   UNL     1     153.915 166.250 189.992  0.00  0.00    -0.059 C 
ATOM     29  C   UNL     1     152.593 166.970 190.025  0.00  0.00    +0.079 C 
ATOM     30  C   UNL     1     152.459 167.966 191.192  0.00  0.00    +0.004 C 
ATOM     31  C   UNL     1     152.601 167.423 192.625  0.00  0.00    +0.064 C 
ATOM     32  H   UNL     1     152.116 165.327 192.357  0.00  0.00    +0.037 HD
ATOM     33  H   UNL     1     150.066 166.319 191.597  0.00  0.00    +0.057 HD
ATOM     34  H   UNL     1     149.484 166.532 194.590  0.00  0.00    +0.059 HD
ATOM     35  H   UNL     1     147.223 165.970 193.813  0.00  0.00    +0.064 HD
ATOM     36  H   UNL     1     148.051 167.076 191.095  0.00  0.00    +0.032 HD
ATOM     37  H   UNL     1     147.790 165.354 191.482  0.00  0.00    +0.032 HD
ATOM     38  H   UNL     1     145.665 167.561 191.514  0.00  0.00    +0.060 HD
ATOM     39  H   UNL     1     146.040 165.135 189.680  0.00  0.00    +0.036 HD
ATOM     40  H   UNL     1     146.978 167.914 189.434  0.00  0.00    +0.077 HD
ATOM     41  H   UNL     1     148.353 167.153 187.651  0.00  0.00    +0.068 HD
ATOM     42  H   UNL     1     145.618 165.375 185.558  0.00  0.00    +0.069 HD
ATOM     43  H   UNL     1     148.958 164.453 186.539  0.00  0.00    +0.034 HD
ATOM     44  H   UNL     1     147.862 163.606 187.650  0.00  0.00    +0.034 HD
ATOM     45  H   UNL     1     147.370 163.933 184.652  0.00  0.00    +0.060 HD
ATOM     46  H   UNL     1     149.313 162.549 184.908  0.00  0.00    +0.034 HD
ATOM     47  H   UNL     1     147.994 161.513 184.479  0.00  0.00    +0.034 HD
ATOM     48  H   UNL     1     149.863 160.426 187.994  0.00  0.00    +0.062 HD
ATOM     49  H   UNL     1     151.015 162.674 186.175  0.00  0.00    +0.062 HD
ATOM     50  H   UNL     1     152.107 161.120 188.601  0.00  0.00    +0.069 HD
ATOM     51  H   UNL     1     155.346 163.958 187.856  0.00  0.00    +0.074 HD
ATOM     52  H   UNL     1     155.176 163.371 190.853  0.00  0.00    +0.038 HD
ATOM     53  H   UNL     1     153.106 164.333 190.133  0.00  0.00    +0.057 HD
ATOM     54  H   UNL     1     154.792 166.886 189.911  0.00  0.00    +0.059 HD
ATOM     55  H   UNL     1     151.762 166.258 190.068  0.00  0.00    +0.064 HD
ATOM     56  H   UNL     1     151.486 168.466 191.095  0.00  0.00    +0.032 HD
ATOM     57  H   UNL     1     153.203 168.766 191.048  0.00  0.00    +0.032 HD
ATOM     58  H   UNL     1     152.308 168.238 193.300  0.00  0.00    +0.060 HD
ENDROOT
BRANCH   1  59
ATOM     59  C   UNL     1     152.027 165.721 194.427  0.00  0.00    -0.057 C 
ATOM     60  H   UNL     1     151.406 164.860 194.700  0.00  0.00    +0.024 HD
ATOM     61  H   UNL     1     153.071 165.412 194.558  0.00  0.00    +0.024 HD
ATOM     62  H   UNL     1     151.824 166.529 195.137  0.00  0.00    +0.024 HD
ENDBRANCH   1  59
BRANCH  26  63
ATOM     63  C   UNL     1     156.553 164.892 190.256  0.00  0.00    -0.056 C 
ATOM     64  H   UNL     1     156.795 164.951 191.321  0.00  0.00    +0.024 HD
ATOM     65  H   UNL     1     157.420 164.470 189.732  0.00  0.00    +0.024 HD
ATOM     66  H   UNL     1     156.446 165.906 189.868  0.00  0.00    +0.024 HD
ENDBRANCH  26  63
BRANCH  18  67
ATOM     67  C   UNL     1     147.514 160.294 186.853  0.00  0.00    -0.043 C 
ATOM     68  H   UNL     1     147.878 159.275 187.019  0.00  0.00    +0.027 HD
ATOM     69  H   UNL     1     146.750 160.242 186.072  0.00  0.00    +0.027 HD
ATOM     70  H   UNL     1     147.018 160.645 187.765  0.00  0.00    +0.027 HD
ENDBRANCH  18  67
BRANCH   7  71
ATOM     71  C   UNL     1     144.213 166.194 189.537  0.00  0.00    -0.057 C 
ATOM     72  H   UNL     1     143.991 166.679 188.581  0.00  0.00    +0.023 HD
ATOM     73  H   UNL     1     143.797 165.183 189.522  0.00  0.00    +0.023 HD
ATOM     74  H   UNL     1     143.666 166.724 190.323  0.00  0.00    +0.023 HD
ENDBRANCH   7  71
BRANCH  31  75
ATOM     75  O   UNL     1     153.992 167.186 192.875  0.00  0.00    -0.391 OA
ATOM     76  H   UNL     1     154.059 166.624 193.663  0.00  0.00    +0.210 HD
ENDBRANCH  31  75
BRANCH  25  77
ATOM     77  C   UNL     1     156.463 162.196 188.412  0.00  0.00    +0.020 C 
ATOM     78  H   UNL     1     157.169 162.315 189.245  0.00  0.00    +0.036 HD
BRANCH  77  79
ATOM     79  C   UNL     1     155.954 160.750 188.546  0.00  0.00    -0.057 C 
ATOM     80  H   UNL     1     156.735 160.007 188.395  0.00  0.00    +0.023 HD
ATOM     81  H   UNL     1     155.148 160.553 187.831  0.00  0.00    +0.023 HD
ATOM     82  H   UNL     1     155.543 160.587 189.549  0.00  0.00    +0.023 HD
ENDBRANCH  77  79
BRANCH  77  83
ATOM     83  C   UNL     1     157.310 162.365 187.106  0.00  0.00    +0.067 C 
ATOM     84  H   UNL     1     157.652 161.361 186.810  0.00  0.00    +0.060 HD
BRANCH  83  85
ATOM     85  C   UNL     1     158.597 163.232 187.296  0.00  0.00    -0.017 C 
ATOM     86  H   UNL     1     158.987 163.106 188.304  0.00  0.00    +0.032 HD
BRANCH  85  87
ATOM     87  C   UNL     1     159.699 162.741 186.343  0.00  0.00    -0.060 C 
ATOM     88  H   UNL     1     160.518 163.462 186.297  0.00  0.00    +0.023 HD
ATOM     89  H   UNL     1     160.124 161.789 186.677  0.00  0.00    +0.023 HD
ATOM     90  H   UNL     1     159.312 162.601 185.328  0.00  0.00    +0.023 HD
ENDBRANCH  85  87
BRANCH  85  91
ATOM     91  C   UNL     1     158.388 164.752 187.092  0.00  0.00    -0.041 C 
ATOM     92  H   UNL     1     158.563 165.279 188.038  0.00  0.00    +0.027 HD
ATOM     93  H   UNL     1     157.342 164.954 186.828  0.00  0.00    +0.027 HD
BRANCH  91  94
ATOM     94  C   UNL     1     159.290 165.345 186.000  0.00  0.00    +0.007 C 
ATOM     95  H   UNL     1     160.171 165.783 186.483  0.00  0.00    +0.034 HD
ATOM     96  H   UNL     1     159.631 164.564 185.322  0.00  0.00    +0.034 HD
BRANCH  94  97
ATOM     97  C   UNL     1     158.616 166.446 185.184  0.00  0.00    +0.139 C 
ATOM     98  O   UNL     1     159.249 167.419 184.764  0.00  0.00    -0.297 OA
BRANCH  97  99
ATOM     99  C   UNL     1     157.138 166.309 184.816  0.00  0.00    +0.041 C 
ATOM    100  H   UNL     1     156.722 165.670 185.607  0.00  0.00    +0.040 HD
BRANCH  99 101
ATOM    101  C   UNL     1     156.877 165.534 183.526  0.00  0.00    -0.053 C 
ATOM    102  H   UNL     1     156.182 166.054 182.858  0.00  0.00    +0.024 HD
ATOM    103  H   UNL     1     156.461 164.546 183.745  0.00  0.00    +0.024 HD
ATOM    104  H   UNL     1     157.810 165.384 182.974  0.00  0.00    +0.024 HD
ENDBRANCH  99 101
BRANCH  99 105
ATOM    105  C   UNL     1     156.424 167.677 184.886  0.00  0.00    +0.071 C 
ATOM    106  H   UNL     1     157.078 168.417 185.369  0.00  0.00    +0.061 HD
BRANCH 105 107
ATOM    107  C   UNL     1     156.010 168.221 183.502  0.00  0.00    -0.006 C 
ATOM    108  H   UNL     1     156.580 167.726 182.712  0.00  0.00    +0.033 HD
ATOM    109  H   UNL     1     154.948 168.016 183.322  0.00  0.00    +0.033 HD
BRANCH 107 110
ATOM    110  C   UNL     1     156.262 169.703 183.352  0.00  0.00    -0.067 C 
ATOM    111  C   UNL     1     157.147 170.372 184.108  0.00  0.00    -0.005 C 
ATOM    112  H   UNL     1     155.663 170.210 182.603  0.00  0.00    +0.059 HD
ATOM    113  H   UNL     1     157.732 169.822 184.842  0.00  0.00    +0.078 HD
BRANCH 111 114
ATOM    114  N   UNL     1     157.400 171.734 184.047  0.00  0.00    -0.284 N 
ATOM    115  C   UNL     1     156.364 172.653 184.186  0.00  0.00    +0.206 C 
ATOM    116  O   UNL     1     156.461 173.874 184.150  0.00  0.00    -0.279 OA
ATOM    117  H   UNL     1     155.383 172.169 184.337  0.00  0.00    +0.126 HD
BRANCH 114 118
ATOM    118  C   UNL     1     158.746 172.251 183.842  0.00  0.00    +0.007 C 
ATOM    119  H   UNL     1     159.311 172.185 184.778  0.00  0.00    +0.043 HD
ATOM    120  H   UNL     1     159.288 171.685 183.080  0.00  0.00    +0.043 HD
ATOM    121  H   UNL     1     158.681 173.294 183.514  0.00  0.00    +0.043 HD
ENDBRANCH 114 118
ENDBRANCH 111 114
ENDBRANCH 107 110
ENDBRANCH 105 107
BRANCH 105 122
ATOM    122  O   UNL     1     155.212 167.533 185.653  0.00  0.00    -0.379 OA
BRANCH 122 123
ATOM    123  C   UNL     1     155.278 166.492 186.620  0.00  0.00    +0.037 C 
ATOM    124  H   UNL     1     154.470 166.643 187.339  0.00  0.00    +0.052 HD
ATOM    125  H   UNL     1     156.231 166.529 187.156  0.00  0.00    +0.052 HD
ATOM    126  H   UNL     1     155.148 165.512 186.152  0.00  0.00    +0.052 HD
ENDBRANCH 122 123
ENDBRANCH 105 122
ENDBRANCH  99 105
ENDBRANCH  97  99
ENDBRANCH  94  97
ENDBRANCH  91  94
ENDBRANCH  85  91
ENDBRANCH  83  85
BRANCH  83 127
ATOM    127  O   UNL     1     156.486 162.893 186.069  0.00  0.00    -0.379 OA
BRANCH 127 128
ATOM    128  C   UNL     1     156.271 161.990 184.988  0.00  0.00    +0.037 C 
ATOM    129  H   UNL     1     156.279 162.522 184.032  0.00  0.00    +0.052 HD
ATOM    130  H   UNL     1     155.288 161.532 185.126  0.00  0.00    +0.052 HD
ATOM    131  H   UNL     1     157.028 161.200 184.987  0.00  0.00    +0.052 HD
ENDBRANCH 127 128
ENDBRANCH  83 127
ENDBRANCH  77  83
ENDBRANCH  25  77
BRANCH   9 132
ATOM    132  O   UNL     1     148.522 165.658 189.024  0.00  0.00    -0.384 OA
ATOM    133  H   UNL     1     148.008 164.884 189.311  0.00  0.00    +0.210 HD
ENDBRANCH   9 132
BRANCH  29 134
ATOM    134  O   UNL     1     152.446 167.740 188.820  0.00  0.00    -0.376 OA
BRANCH 134 135
ATOM    135  C   UNL     1     151.817 167.036 187.757  0.00  0.00    +0.037 C 
ATOM    136  H   UNL     1     151.235 167.754 187.172  0.00  0.00    +0.052 HD
ATOM    137  H   UNL     1     152.556 166.578 187.094  0.00  0.00    +0.052 HD
ATOM    138  H   UNL     1     151.131 166.275 188.146  0.00  0.00    +0.052 HD
ENDBRANCH 134 135
ENDBRANCH  29 134
BRANCH   6 139
ATOM    139  O   UNL     1     145.247 165.609 192.152  0.00  0.00    -0.379 OA
BRANCH 139 140
ATOM    140  C   UNL     1     144.342 166.263 193.035  0.00  0.00    +0.037 C 
ATOM    141  H   UNL     1     144.891 166.554 193.935  0.00  0.00    +0.052 HD
ATOM    142  H   UNL     1     143.935 167.163 192.569  0.00  0.00    +0.052 HD
ATOM    143  H   UNL     1     143.527 165.594 193.325  0.00  0.00    +0.052 HD
ENDBRANCH 139 140
ENDBRANCH   6 139
BRANCH  16 144
ATOM    144  O   UNL     1     146.081 162.859 185.865  0.00  0.00    -0.379 OA
BRANCH 144 145
ATOM    145  C   UNL     1     145.294 162.560 184.720  0.00  0.00    +0.037 C 
ATOM    146  H   UNL     1     145.328 163.385 184.000  0.00  0.00    +0.052 HD
ATOM    147  H   UNL     1     144.257 162.428 185.044  0.00  0.00    +0.052 HD
ATOM    148  H   UNL     1     145.623 161.631 184.247  0.00  0.00    +0.052 HD
ENDBRANCH 144 145
ENDBRANCH  16 144
BRANCH   4 149
ATOM    149  O   UNL     1     147.407 168.017 193.465  0.00  0.00    -0.376 OA
BRANCH 149 150
ATOM    150  C   UNL     1     148.098 168.982 192.682  0.00  0.00    +0.037 C 
ATOM    151  H   UNL     1     149.134 168.675 192.508  0.00  0.00    +0.052 HD
ATOM    152  H   UNL     1     148.104 169.923 193.234  0.00  0.00    +0.052 HD
ATOM    153  H   UNL     1     147.590 169.149 191.729  0.00  0.00    +0.052 HD
ENDBRANCH 149 150
ENDBRANCH   4 149
TORSDOF 33
ENDMDL
MODEL 8
REMARK VINA RESULT:      -5.0      7.178     12.072
REMARK  Name = Sphinxolide B_conf1
REMARK  33 active torsions:
REMARK  status: ('A' for Active; 'I' for Inactive)
REMARK    1  A    between atoms: C_1  and  C_2
REMARK    2  A    between atoms: C_5  and  O_67
REMARK    3  A    between atoms: C_7  and  O_65
REMARK    4  A    between atoms: C_8  and  C_64
REMARK    5  A    between atoms: C_10  and  O_63
REMARK    6  A    between atoms: C_17  and  O_61
REMARK    7  A    between atoms: C_19  and  C_60
REMARK    8  A    between atoms: C_26  and  C_37
REMARK    9  A    between atoms: C_27  and  C_36
REMARK   10  A    between atoms: C_30  and  O_34
REMARK   11  A    between atoms: C_32  and  O_33
REMARK   12  A    between atoms: O_34  and  C_35
REMARK   13  A    between atoms: C_37  and  C_38
REMARK   14  A    between atoms: C_37  and  C_39
REMARK   15  A    between atoms: C_39  and  C_40
REMARK   16  A    between atoms: C_39  and  O_58
REMARK   17  A    between atoms: C_40  and  C_41
REMARK   18  A    between atoms: C_40  and  C_42
REMARK   19  A    between atoms: C_42  and  C_43
REMARK   20  A    between atoms: C_43  and  C_44
REMARK   21  A    between atoms: C_44  and  C_46
REMARK   22  A    between atoms: C_46  and  C_47
REMARK   23  A    between atoms: C_46  and  C_48
REMARK   24  A    between atoms: C_48  and  C_49
REMARK   25  A    between atoms: C_48  and  O_56
REMARK   26  A    between atoms: C_49  and  C_50
REMARK   27  A    between atoms: C_51  and  N_52
REMARK   28  A    between atoms: N_52  and  C_53
REMARK   29  A    between atoms: O_56  and  C_57
REMARK   30  A    between atoms: O_58  and  C_59
REMARK   31  A    between atoms: O_61  and  C_62
REMARK   32  A    between atoms: O_65  and  C_66
REMARK   33  A    between atoms: O_67  and  C_68
REMARK                            x       y       z     vdW  Elec       q    Type
REMARK                         _______ _______ _______ _____ _____    ______ ____
ROOT
ATOM      1  C   UNL     1     155.725 163.528 179.915  0.00  0.00    +0.000 C 
ATOM      2  C   UNL     1     155.457 164.843 179.208  0.00  0.00    -0.080 C 
ATOM      3  C   UNL     1     155.549 165.113 177.893  0.00  0.00    -0.059 C 
ATOM      4  C   UNL     1     155.301 166.451 177.209  0.00  0.00    +0.079 C 
ATOM      5  C   UNL     1     155.141 167.623 178.192  0.00  0.00    +0.004 C 
ATOM      6  C   UNL     1     154.887 168.990 177.536  0.00  0.00    +0.067 C 
ATOM      7  C   UNL     1     154.779 170.147 178.594  0.00  0.00    +0.022 C 
ATOM      8  C   UNL     1     153.619 169.905 179.621  0.00  0.00    +0.138 C 
ATOM      9  C   UNL     1     154.081 169.532 181.054  0.00  0.00    +0.114 C 
ATOM     10  C   UNL     1     154.609 170.759 181.755  0.00  0.00    -0.029 C 
ATOM     11  C   UNL     1     154.018 171.933 181.474  0.00  0.00    +0.024 C 
ATOM     12  C   UNL     1     152.890 172.053 180.531  0.00  0.00    +0.332 C 
ATOM     13  O   UNL     1     152.192 173.059 180.523  0.00  0.00    -0.246 OA
ATOM     14  O   UNL     1     152.683 171.014 179.686  0.00  0.00    -0.455 OA
ATOM     15  C   UNL     1     155.771 170.589 182.724  0.00  0.00    -0.002 C 
ATOM     16  C   UNL     1     156.274 171.827 183.504  0.00  0.00    +0.066 C 
ATOM     17  C   UNL     1     157.330 171.427 184.571  0.00  0.00    -0.005 C 
ATOM     18  C   UNL     1     158.554 170.682 184.058  0.00  0.00    -0.070 C 
ATOM     19  C   UNL     1     158.824 169.377 184.254  0.00  0.00    -0.062 C 
ATOM     20  C   UNL     1     158.003 168.405 184.944  0.00  0.00    -0.055 C 
ATOM     21  C   UNL     1     158.354 167.113 185.027  0.00  0.00    +0.023 C 
ATOM     22  C   UNL     1     157.475 166.146 185.714  0.00  0.00    +0.332 C 
ATOM     23  O   UNL     1     156.480 166.430 186.363  0.00  0.00    -0.246 OA
ATOM     24  O   UNL     1     157.970 164.912 185.463  0.00  0.00    -0.457 OA
ATOM     25  C   UNL     1     157.274 163.756 186.014  0.00  0.00    +0.114 C 
ATOM     26  C   UNL     1     156.873 162.855 184.804  0.00  0.00    +0.012 C 
ATOM     27  C   UNL     1     156.067 163.680 183.803  0.00  0.00    -0.079 C 
ATOM     28  C   UNL     1     154.771 163.559 183.467  0.00  0.00    -0.059 C 
ATOM     29  C   UNL     1     154.090 164.455 182.467  0.00  0.00    +0.079 C 
ATOM     30  C   UNL     1     153.478 163.698 181.273  0.00  0.00    +0.004 C 
ATOM     31  C   UNL     1     154.417 162.845 180.401  0.00  0.00    +0.064 C 
ATOM     32  H   UNL     1     156.343 163.762 180.789  0.00  0.00    +0.037 HD
ATOM     33  H   UNL     1     155.170 165.649 179.880  0.00  0.00    +0.057 HD
ATOM     34  H   UNL     1     155.839 164.318 177.211  0.00  0.00    +0.059 HD
ATOM     35  H   UNL     1     156.147 166.661 176.543  0.00  0.00    +0.064 HD
ATOM     36  H   UNL     1     154.297 167.399 178.850  0.00  0.00    +0.032 HD
ATOM     37  H   UNL     1     156.056 167.689 178.794  0.00  0.00    +0.032 HD
ATOM     38  H   UNL     1     153.952 168.952 176.960  0.00  0.00    +0.060 HD
ATOM     39  H   UNL     1     155.737 170.167 179.134  0.00  0.00    +0.036 HD
ATOM     40  H   UNL     1     153.009 169.070 179.255  0.00  0.00    +0.077 HD
ATOM     41  H   UNL     1     153.217 169.164 181.621  0.00  0.00    +0.068 HD
ATOM     42  H   UNL     1     154.303 172.872 181.937  0.00  0.00    +0.069 HD
ATOM     43  H   UNL     1     155.475 169.824 183.454  0.00  0.00    +0.034 HD
ATOM     44  H   UNL     1     156.608 170.191 182.137  0.00  0.00    +0.034 HD
ATOM     45  H   UNL     1     155.419 172.277 184.027  0.00  0.00    +0.060 HD
ATOM     46  H   UNL     1     156.819 170.841 185.343  0.00  0.00    +0.034 HD
ATOM     47  H   UNL     1     157.683 172.321 185.097  0.00  0.00    +0.034 HD
ATOM     48  H   UNL     1     159.752 168.980 183.836  0.00  0.00    +0.062 HD
ATOM     49  H   UNL     1     157.072 168.731 185.400  0.00  0.00    +0.062 HD
ATOM     50  H   UNL     1     159.268 166.726 184.592  0.00  0.00    +0.069 HD
ATOM     51  H   UNL     1     156.340 164.093 186.487  0.00  0.00    +0.074 HD
ATOM     52  H   UNL     1     157.778 162.577 184.252  0.00  0.00    +0.038 HD
ATOM     53  H   UNL     1     156.644 164.462 183.306  0.00  0.00    +0.057 HD
ATOM     54  H   UNL     1     154.140 162.800 183.920  0.00  0.00    +0.059 HD
ATOM     55  H   UNL     1     154.783 165.215 182.089  0.00  0.00    +0.064 HD
ATOM     56  H   UNL     1     152.971 164.435 180.635  0.00  0.00    +0.032 HD
ATOM     57  H   UNL     1     152.672 163.051 181.654  0.00  0.00    +0.032 HD
ATOM     58  H   UNL     1     153.834 162.534 179.524  0.00  0.00    +0.060 HD
ENDROOT
BRANCH   1  59
ATOM     59  C   UNL     1     156.570 162.549 179.080  0.00  0.00    -0.057 C 
ATOM     60  H   UNL     1     157.028 161.780 179.712  0.00  0.00    +0.024 HD
ATOM     61  H   UNL     1     155.949 162.025 178.344  0.00  0.00    +0.024 HD
ATOM     62  H   UNL     1     157.369 163.066 178.538  0.00  0.00    +0.024 HD
ENDBRANCH   1  59
BRANCH  26  63
ATOM     63  C   UNL     1     156.150 161.565 185.197  0.00  0.00    -0.056 C 
ATOM     64  H   UNL     1     156.523 161.166 186.145  0.00  0.00    +0.024 HD
ATOM     65  H   UNL     1     155.069 161.728 185.298  0.00  0.00    +0.024 HD
ATOM     66  H   UNL     1     156.256 160.796 184.431  0.00  0.00    +0.024 HD
ENDBRANCH  26  63
BRANCH  18  67
ATOM     67  C   UNL     1     159.543 171.528 183.290  0.00  0.00    -0.043 C 
ATOM     68  H   UNL     1     159.247 171.612 182.240  0.00  0.00    +0.027 HD
ATOM     69  H   UNL     1     160.552 171.107 183.310  0.00  0.00    +0.027 HD
ATOM     70  H   UNL     1     159.606 172.534 183.721  0.00  0.00    +0.027 HD
ENDBRANCH  18  67
BRANCH   7  71
ATOM     71  C   UNL     1     154.681 171.504 177.879  0.00  0.00    -0.057 C 
ATOM     72  H   UNL     1     154.094 171.427 176.957  0.00  0.00    +0.023 HD
ATOM     73  H   UNL     1     154.227 172.264 178.521  0.00  0.00    +0.023 HD
ATOM     74  H   UNL     1     155.672 171.891 177.621  0.00  0.00    +0.023 HD
ENDBRANCH   7  71
BRANCH  31  75
ATOM     75  O   UNL     1     154.718 161.642 181.120  0.00  0.00    -0.391 OA
ATOM     76  H   UNL     1     155.679 161.508 181.082  0.00  0.00    +0.210 HD
ENDBRANCH  31  75
BRANCH  25  77
ATOM     77  C   UNL     1     158.190 163.201 187.156  0.00  0.00    +0.020 C 
ATOM     78  H   UNL     1     158.479 162.192 186.833  0.00  0.00    +0.036 HD
BRANCH  77  79
ATOM     79  C   UNL     1     159.518 163.971 187.241  0.00  0.00    -0.057 C 
ATOM     80  H   UNL     1     160.199 163.740 186.423  0.00  0.00    +0.023 HD
ATOM     81  H   UNL     1     160.032 163.761 188.186  0.00  0.00    +0.023 HD
ATOM     82  H   UNL     1     159.331 165.051 187.209  0.00  0.00    +0.023 HD
ENDBRANCH  77  79
BRANCH  77  83
ATOM     83  C   UNL     1     157.559 163.030 188.579  0.00  0.00    +0.067 C 
ATOM     84  H   UNL     1     157.319 161.962 188.700  0.00  0.00    +0.060 HD
BRANCH  83  85
ATOM     85  C   UNL     1     156.218 163.809 188.774  0.00  0.00    -0.017 C 
ATOM     86  H   UNL     1     156.047 164.475 187.931  0.00  0.00    +0.032 HD
BRANCH  85  87
ATOM     87  C   UNL     1     155.040 162.820 188.787  0.00  0.00    -0.060 C 
ATOM     88  H   UNL     1     155.028 162.247 189.717  0.00  0.00    +0.023 HD
ATOM     89  H   UNL     1     154.079 163.339 188.715  0.00  0.00    +0.023 HD
ATOM     90  H   UNL     1     155.106 162.114 187.953  0.00  0.00    +0.023 HD
ENDBRANCH  85  87
BRANCH  85  91
ATOM     91  C   UNL     1     156.160 164.686 190.047  0.00  0.00    -0.041 C 
ATOM     92  H   UNL     1     157.125 164.648 190.567  0.00  0.00    +0.027 HD
ATOM     93  H   UNL     1     155.426 164.275 190.753  0.00  0.00    +0.027 HD
BRANCH  91  94
ATOM     94  C   UNL     1     155.791 166.149 189.758  0.00  0.00    +0.007 C 
ATOM     95  H   UNL     1     156.251 166.777 190.529  0.00  0.00    +0.034 HD
ATOM     96  H   UNL     1     156.189 166.457 188.792  0.00  0.00    +0.034 HD
BRANCH  94  97
ATOM     97  C   UNL     1     154.288 166.415 189.780  0.00  0.00    +0.139 C 
ATOM     98  O   UNL     1     153.748 167.143 188.942  0.00  0.00    -0.297 OA
BRANCH  97  99
ATOM     99  C   UNL     1     153.417 165.709 190.820  0.00  0.00    +0.041 C 
ATOM    100  H   UNL     1     154.101 165.002 191.309  0.00  0.00    +0.040 HD
BRANCH  99 101
ATOM    101  C   UNL     1     152.318 164.827 190.231  0.00  0.00    -0.053 C 
ATOM    102  H   UNL     1     152.597 163.768 190.207  0.00  0.00    +0.024 HD
ATOM    103  H   UNL     1     152.079 165.136 189.209  0.00  0.00    +0.024 HD
ATOM    104  H   UNL     1     151.402 164.910 190.823  0.00  0.00    +0.024 HD
ENDBRANCH  99 101
BRANCH  99 105
ATOM    105  C   UNL     1     152.920 166.706 191.890  0.00  0.00    +0.071 C 
ATOM    106  H   UNL     1     153.113 167.736 191.561  0.00  0.00    +0.061 HD
BRANCH 105 107
ATOM    107  C   UNL     1     151.413 166.568 192.200  0.00  0.00    -0.006 C 
ATOM    108  H   UNL     1     150.974 167.549 192.397  0.00  0.00    +0.033 HD
ATOM    109  H   UNL     1     150.892 166.139 191.336  0.00  0.00    +0.033 HD
BRANCH 107 110
ATOM    110  C   UNL     1     151.138 165.719 193.419  0.00  0.00    -0.067 C 
ATOM    111  C   UNL     1     150.322 166.110 194.411  0.00  0.00    -0.005 C 
ATOM    112  H   UNL     1     151.663 164.770 193.461  0.00  0.00    +0.059 HD
ATOM    113  H   UNL     1     149.811 167.067 194.323  0.00  0.00    +0.078 HD
BRANCH 111 114
ATOM    114  N   UNL     1     150.055 165.398 195.570  0.00  0.00    -0.284 N 
ATOM    115  C   UNL     1     150.819 164.285 195.908  0.00  0.00    +0.206 C 
ATOM    116  O   UNL     1     150.682 163.577 196.899  0.00  0.00    -0.279 OA
ATOM    117  H   UNL     1     151.608 164.069 195.166  0.00  0.00    +0.126 HD
BRANCH 114 118
ATOM    118  C   UNL     1     148.981 165.786 196.472  0.00  0.00    +0.007 C 
ATOM    119  H   UNL     1     148.046 165.309 196.158  0.00  0.00    +0.043 HD
ATOM    120  H   UNL     1     149.185 165.482 197.503  0.00  0.00    +0.043 HD
ATOM    121  H   UNL     1     148.872 166.875 196.451  0.00  0.00    +0.043 HD
ENDBRANCH 114 118
ENDBRANCH 111 114
ENDBRANCH 107 110
ENDBRANCH 105 107
BRANCH 105 122
ATOM    122  O   UNL     1     153.620 166.455 193.124  0.00  0.00    -0.379 OA
BRANCH 122 123
ATOM    123  C   UNL     1     154.287 167.603 193.636  0.00  0.00    +0.037 C 
ATOM    124  H   UNL     1     154.288 167.538 194.727  0.00  0.00    +0.052 HD
ATOM    125  H   UNL     1     153.757 168.514 193.345  0.00  0.00    +0.052 HD
ATOM    126  H   UNL     1     155.323 167.643 193.290  0.00  0.00    +0.052 HD
ENDBRANCH 122 123
ENDBRANCH 105 122
ENDBRANCH  99 105
ENDBRANCH  97  99
ENDBRANCH  94  97
ENDBRANCH  91  94
ENDBRANCH  85  91
ENDBRANCH  83  85
BRANCH  83 127
ATOM    127  O   UNL     1     158.514 163.400 189.572  0.00  0.00    -0.379 OA
BRANCH 127 128
ATOM    128  C   UNL     1     158.916 162.323 190.415  0.00  0.00    +0.037 C 
ATOM    129  H   UNL     1     159.223 161.459 189.818  0.00  0.00    +0.052 HD
ATOM    130  H   UNL     1     158.055 162.039 191.026  0.00  0.00    +0.052 HD
ATOM    131  H   UNL     1     159.729 162.633 191.077  0.00  0.00    +0.052 HD
ENDBRANCH 127 128
ENDBRANCH  83 127
ENDBRANCH  77  83
ENDBRANCH  25  77
BRANCH   9 132
ATOM    132  O   UNL     1     155.048 168.495 181.031  0.00  0.00    -0.384 OA
ATOM    133  H   UNL     1     154.618 167.703 180.666  0.00  0.00    +0.210 HD
ENDBRANCH   9 132
BRANCH  29 134
ATOM    134  O   UNL     1     153.001 165.139 183.110  0.00  0.00    -0.376 OA
BRANCH 134 135
ATOM    135  C   UNL     1     152.188 164.297 183.918  0.00  0.00    +0.037 C 
ATOM    136  H   UNL     1     151.591 164.934 184.577  0.00  0.00    +0.052 HD
ATOM    137  H   UNL     1     151.500 163.707 183.305  0.00  0.00    +0.052 HD
ATOM    138  H   UNL     1     152.804 163.640 184.541  0.00  0.00    +0.052 HD
ENDBRANCH 134 135
ENDBRANCH  29 134
BRANCH   6 139
ATOM    139  O   UNL     1     156.005 169.261 176.671  0.00  0.00    -0.379 OA
BRANCH 139 140
ATOM    140  C   UNL     1     155.628 169.403 175.305  0.00  0.00    +0.037 C 
ATOM    141  H   UNL     1     155.045 168.523 175.017  0.00  0.00    +0.052 HD
ATOM    142  H   UNL     1     155.006 170.291 175.170  0.00  0.00    +0.052 HD
ATOM    143  H   UNL     1     156.509 169.465 174.661  0.00  0.00    +0.052 HD
ENDBRANCH 139 140
ENDBRANCH   6 139
BRANCH  16 144
ATOM    144  O   UNL     1     156.799 172.778 182.568  0.00  0.00    -0.379 OA
BRANCH 144 145
ATOM    145  C   UNL     1     156.750 174.125 183.021  0.00  0.00    +0.037 C 
ATOM    146  H   UNL     1     157.693 174.406 183.501  0.00  0.00    +0.052 HD
ATOM    147  H   UNL     1     155.948 174.206 183.761  0.00  0.00    +0.052 HD
ATOM    148  H   UNL     1     156.524 174.809 182.198  0.00  0.00    +0.052 HD
ENDBRANCH 144 145
ENDBRANCH  16 144
BRANCH   4 149
ATOM    149  O   UNL     1     154.088 166.351 176.447  0.00  0.00    -0.376 OA
BRANCH 149 150
ATOM    150  C   UNL     1     154.288 165.894 175.116  0.00  0.00    +0.037 C 
ATOM    151  H   UNL     1     155.217 165.322 175.034  0.00  0.00    +0.052 HD
ATOM    152  H   UNL     1     154.362 166.768 174.466  0.00  0.00    +0.052 HD
ATOM    153  H   UNL     1     153.442 165.289 174.779  0.00  0.00    +0.052 HD
ENDBRANCH 149 150
ENDBRANCH   4 149
TORSDOF 33
ENDMDL
MODEL 9
REMARK VINA RESULT:      -4.9     23.721     30.669
REMARK  Name = Sphinxolide B_conf1
REMARK  33 active torsions:
REMARK  status: ('A' for Active; 'I' for Inactive)
REMARK    1  A    between atoms: C_1  and  C_2
REMARK    2  A    between atoms: C_5  and  O_67
REMARK    3  A    between atoms: C_7  and  O_65
REMARK    4  A    between atoms: C_8  and  C_64
REMARK    5  A    between atoms: C_10  and  O_63
REMARK    6  A    between atoms: C_17  and  O_61
REMARK    7  A    between atoms: C_19  and  C_60
REMARK    8  A    between atoms: C_26  and  C_37
REMARK    9  A    between atoms: C_27  and  C_36
REMARK   10  A    between atoms: C_30  and  O_34
REMARK   11  A    between atoms: C_32  and  O_33
REMARK   12  A    between atoms: O_34  and  C_35
REMARK   13  A    between atoms: C_37  and  C_38
REMARK   14  A    between atoms: C_37  and  C_39
REMARK   15  A    between atoms: C_39  and  C_40
REMARK   16  A    between atoms: C_39  and  O_58
REMARK   17  A    between atoms: C_40  and  C_41
REMARK   18  A    between atoms: C_40  and  C_42
REMARK   19  A    between atoms: C_42  and  C_43
REMARK   20  A    between atoms: C_43  and  C_44
REMARK   21  A    between atoms: C_44  and  C_46
REMARK   22  A    between atoms: C_46  and  C_47
REMARK   23  A    between atoms: C_46  and  C_48
REMARK   24  A    between atoms: C_48  and  C_49
REMARK   25  A    between atoms: C_48  and  O_56
REMARK   26  A    between atoms: C_49  and  C_50
REMARK   27  A    between atoms: C_51  and  N_52
REMARK   28  A    between atoms: N_52  and  C_53
REMARK   29  A    between atoms: O_56  and  C_57
REMARK   30  A    between atoms: O_58  and  C_59
REMARK   31  A    between atoms: O_61  and  C_62
REMARK   32  A    between atoms: O_65  and  C_66
REMARK   33  A    between atoms: O_67  and  C_68
REMARK                            x       y       z     vdW  Elec       q    Type
REMARK                         _______ _______ _______ _____ _____    ______ ____
ROOT
ATOM      1  C   UNL     1     146.558 185.365 216.217  0.00  0.00    +0.000 C 
ATOM      2  C   UNL     1     147.902 185.955 215.836  0.00  0.00    -0.080 C 
ATOM      3  C   UNL     1     148.903 186.337 216.651  0.00  0.00    -0.059 C 
ATOM      4  C   UNL     1     150.235 186.954 216.246  0.00  0.00    +0.079 C 
ATOM      5  C   UNL     1     150.300 187.354 214.762  0.00  0.00    +0.004 C 
ATOM      6  C   UNL     1     151.632 187.978 214.316  0.00  0.00    +0.067 C 
ATOM      7  C   UNL     1     151.614 188.404 212.804  0.00  0.00    +0.022 C 
ATOM      8  C   UNL     1     151.332 187.191 211.851  0.00  0.00    +0.138 C 
ATOM      9  C   UNL     1     149.931 187.195 211.185  0.00  0.00    +0.114 C 
ATOM     10  C   UNL     1     149.892 188.227 210.084  0.00  0.00    -0.029 C 
ATOM     11  C   UNL     1     151.022 188.422 209.381  0.00  0.00    +0.024 C 
ATOM     12  C   UNL     1     152.264 187.670 209.642  0.00  0.00    +0.332 C 
ATOM     13  O   UNL     1     153.165 187.653 208.813  0.00  0.00    -0.246 OA
ATOM     14  O   UNL     1     152.353 187.025 210.831  0.00  0.00    -0.455 OA
ATOM     15  C   UNL     1     148.588 188.975 209.846  0.00  0.00    -0.002 C 
ATOM     16  C   UNL     1     148.514 189.982 208.673  0.00  0.00    +0.066 C 
ATOM     17  C   UNL     1     147.066 190.505 208.473  0.00  0.00    -0.005 C 
ATOM     18  C   UNL     1     146.416 191.163 209.682  0.00  0.00    -0.070 C 
ATOM     19  C   UNL     1     145.423 190.640 210.427  0.00  0.00    -0.062 C 
ATOM     20  C   UNL     1     144.798 189.344 210.272  0.00  0.00    -0.055 C 
ATOM     21  C   UNL     1     143.851 188.908 211.116  0.00  0.00    +0.023 C 
ATOM     22  C   UNL     1     143.259 187.567 210.942  0.00  0.00    +0.332 C 
ATOM     23  O   UNL     1     143.449 186.827 209.990  0.00  0.00    -0.246 OA
ATOM     24  O   UNL     1     142.503 187.322 212.037  0.00  0.00    -0.457 OA
ATOM     25  C   UNL     1     141.811 186.043 212.135  0.00  0.00    +0.114 C 
ATOM     26  C   UNL     1     142.317 185.357 213.443  0.00  0.00    +0.012 C 
ATOM     27  C   UNL     1     143.841 185.269 213.411  0.00  0.00    -0.079 C 
ATOM     28  C   UNL     1     144.616 184.174 213.328  0.00  0.00    -0.059 C 
ATOM     29  C   UNL     1     146.120 184.227 213.291  0.00  0.00    +0.079 C 
ATOM     30  C   UNL     1     146.796 183.445 214.433  0.00  0.00    +0.004 C 
ATOM     31  C   UNL     1     146.465 183.850 215.881  0.00  0.00    +0.064 C 
ATOM     32  H   UNL     1     145.803 185.900 215.629  0.00  0.00    +0.037 HD
ATOM     33  H   UNL     1     148.034 186.085 214.764  0.00  0.00    +0.057 HD
ATOM     34  H   UNL     1     148.782 186.217 217.725  0.00  0.00    +0.059 HD
ATOM     35  H   UNL     1     150.403 187.847 216.861  0.00  0.00    +0.064 HD
ATOM     36  H   UNL     1     150.128 186.455 214.162  0.00  0.00    +0.032 HD
ATOM     37  H   UNL     1     149.495 188.073 214.568  0.00  0.00    +0.032 HD
ATOM     38  H   UNL     1     152.446 187.255 214.469  0.00  0.00    +0.060 HD
ATOM     39  H   UNL     1     150.805 189.140 212.696  0.00  0.00    +0.036 HD
ATOM     40  H   UNL     1     151.401 186.270 212.442  0.00  0.00    +0.077 HD
ATOM     41  H   UNL     1     149.749 186.212 210.734  0.00  0.00    +0.068 HD
ATOM     42  H   UNL     1     151.099 189.121 208.556  0.00  0.00    +0.069 HD
ATOM     43  H   UNL     1     147.804 188.221 209.696  0.00  0.00    +0.034 HD
ATOM     44  H   UNL     1     148.366 189.515 210.775  0.00  0.00    +0.034 HD
ATOM     45  H   UNL     1     148.817 189.464 207.753  0.00  0.00    +0.060 HD
ATOM     46  H   UNL     1     146.455 189.668 208.117  0.00  0.00    +0.034 HD
ATOM     47  H   UNL     1     147.042 191.228 207.650  0.00  0.00    +0.034 HD
ATOM     48  H   UNL     1     145.044 191.236 211.261  0.00  0.00    +0.062 HD
ATOM     49  H   UNL     1     145.113 188.702 209.453  0.00  0.00    +0.062 HD
ATOM     50  H   UNL     1     143.496 189.500 211.952  0.00  0.00    +0.069 HD
ATOM     51  H   UNL     1     142.122 185.404 211.296  0.00  0.00    +0.074 HD
ATOM     52  H   UNL     1     142.107 186.016 214.294  0.00  0.00    +0.038 HD
ATOM     53  H   UNL     1     144.343 186.236 213.468  0.00  0.00    +0.057 HD
ATOM     54  H   UNL     1     144.182 183.179 213.273  0.00  0.00    +0.059 HD
ATOM     55  H   UNL     1     146.475 185.263 213.311  0.00  0.00    +0.064 HD
ATOM     56  H   UNL     1     147.883 183.510 214.285  0.00  0.00    +0.032 HD
ATOM     57  H   UNL     1     146.557 182.378 214.307  0.00  0.00    +0.032 HD
ATOM     58  H   UNL     1     147.162 183.302 216.528  0.00  0.00    +0.060 HD
ENDROOT
BRANCH   1  59
ATOM     59  C   UNL     1     146.175 185.620 217.686  0.00  0.00    -0.057 C 
ATOM     60  H   UNL     1     145.088 185.590 217.824  0.00  0.00    +0.024 HD
ATOM     61  H   UNL     1     146.598 184.848 218.339  0.00  0.00    +0.024 HD
ATOM     62  H   UNL     1     146.538 186.592 218.035  0.00  0.00    +0.024 HD
ENDBRANCH   1  59
BRANCH  26  63
ATOM     63  C   UNL     1     141.670 184.001 213.729  0.00  0.00    -0.056 C 
ATOM     64  H   UNL     1     142.227 183.440 214.486  0.00  0.00    +0.024 HD
ATOM     65  H   UNL     1     140.638 184.118 214.083  0.00  0.00    +0.024 HD
ATOM     66  H   UNL     1     141.600 183.392 212.828  0.00  0.00    +0.024 HD
ENDBRANCH  26  63
BRANCH  18  67
ATOM     67  C   UNL     1     146.943 192.538 210.022  0.00  0.00    -0.043 C 
ATOM     68  H   UNL     1     146.813 192.749 211.088  0.00  0.00    +0.027 HD
ATOM     69  H   UNL     1     146.427 193.328 209.469  0.00  0.00    +0.027 HD
ATOM     70  H   UNL     1     148.007 192.615 209.773  0.00  0.00    +0.027 HD
ENDBRANCH  18  67
BRANCH   7  71
ATOM     71  C   UNL     1     152.907 189.158 212.456  0.00  0.00    -0.057 C 
ATOM     72  H   UNL     1     152.719 190.228 212.312  0.00  0.00    +0.023 HD
ATOM     73  H   UNL     1     153.665 189.037 213.234  0.00  0.00    +0.023 HD
ATOM     74  H   UNL     1     153.362 188.767 211.540  0.00  0.00    +0.023 HD
ENDBRANCH   7  71
BRANCH  31  75
ATOM     75  O   UNL     1     145.160 183.348 216.194  0.00  0.00    -0.391 OA
ATOM     76  H   UNL     1     144.849 183.809 216.990  0.00  0.00    +0.210 HD
ENDBRANCH  31  75
BRANCH  25  77
ATOM     77  C   UNL     1     140.290 186.356 211.932  0.00  0.00    +0.020 C 
ATOM     78  H   UNL     1     139.784 185.913 212.801  0.00  0.00    +0.036 HD
BRANCH  77  79
ATOM     79  C   UNL     1     140.001 187.862 212.047  0.00  0.00    -0.057 C 
ATOM     80  H   UNL     1     138.998 188.131 211.722  0.00  0.00    +0.023 HD
ATOM     81  H   UNL     1     140.721 188.443 211.460  0.00  0.00    +0.023 HD
ATOM     82  H   UNL     1     140.100 188.186 213.091  0.00  0.00    +0.023 HD
ENDBRANCH  77  79
BRANCH  77  83
ATOM     83  C   UNL     1     139.583 185.752 210.672  0.00  0.00    +0.067 C 
ATOM     84  H   UNL     1     138.783 186.452 210.385  0.00  0.00    +0.060 HD
BRANCH  83  85
ATOM     85  C   UNL     1     138.892 184.375 210.934  0.00  0.00    -0.017 C 
ATOM     86  H   UNL     1     138.996 184.098 211.982  0.00  0.00    +0.032 HD
BRANCH  85  87
ATOM     87  C   UNL     1     137.383 184.492 210.667  0.00  0.00    -0.060 C 
ATOM     88  H   UNL     1     137.183 185.256 209.913  0.00  0.00    +0.023 HD
ATOM     89  H   UNL     1     136.967 183.551 210.291  0.00  0.00    +0.023 HD
ATOM     90  H   UNL     1     136.838 184.761 211.577  0.00  0.00    +0.023 HD
ENDBRANCH  85  87
BRANCH  85  91
ATOM     91  C   UNL     1     139.465 183.197 210.110  0.00  0.00    -0.041 C 
ATOM     92  H   UNL     1     140.216 183.572 209.403  0.00  0.00    +0.027 HD
ATOM     93  H   UNL     1     138.674 182.750 209.494  0.00  0.00    +0.027 HD
BRANCH  91  94
ATOM     94  C   UNL     1     140.087 182.096 210.980  0.00  0.00    +0.007 C 
ATOM     95  H   UNL     1     139.804 182.281 212.022  0.00  0.00    +0.034 HD
ATOM     96  H   UNL     1     139.698 181.119 210.694  0.00  0.00    +0.034 HD
BRANCH  94  97
ATOM     97  C   UNL     1     141.612 182.056 210.916  0.00  0.00    +0.139 C 
ATOM     98  O   UNL     1     142.265 182.998 210.458  0.00  0.00    -0.297 OA
BRANCH  97  99
ATOM     99  C   UNL     1     142.357 180.853 211.497  0.00  0.00    +0.041 C 
ATOM    100  H   UNL     1     142.119 180.882 212.570  0.00  0.00    +0.040 HD
BRANCH  99 101
ATOM    101  C   UNL     1     143.878 180.963 211.443  0.00  0.00    -0.053 C 
ATOM    102  H   UNL     1     144.268 180.884 210.423  0.00  0.00    +0.024 HD
ATOM    103  H   UNL     1     144.346 180.178 212.045  0.00  0.00    +0.024 HD
ATOM    104  H   UNL     1     144.207 181.926 211.845  0.00  0.00    +0.024 HD
ENDBRANCH  99 101
BRANCH  99 105
ATOM    105  C   UNL     1     141.798 179.531 210.924  0.00  0.00    +0.071 C 
ATOM    106  H   UNL     1     140.806 179.703 210.484  0.00  0.00    +0.061 HD
BRANCH 105 107
ATOM    107  C   UNL     1     142.707 178.901 209.846  0.00  0.00    -0.006 C 
ATOM    108  H   UNL     1     143.745 179.210 209.996  0.00  0.00    +0.033 HD
ATOM    109  H   UNL     1     142.673 177.808 209.921  0.00  0.00    +0.033 HD
BRANCH 107 110
ATOM    110  C   UNL     1     142.332 179.316 208.443  0.00  0.00    -0.067 C 
ATOM    111  C   UNL     1     141.246 180.055 208.167  0.00  0.00    -0.005 C 
ATOM    112  H   UNL     1     142.987 178.958 207.654  0.00  0.00    +0.059 HD
ATOM    113  H   UNL     1     140.621 180.398 208.989  0.00  0.00    +0.078 HD
BRANCH 111 114
ATOM    114  N   UNL     1     140.825 180.438 206.902  0.00  0.00    -0.284 N 
ATOM    115  C   UNL     1     140.023 181.563 206.735  0.00  0.00    +0.206 C 
ATOM    116  O   UNL     1     139.590 182.001 205.675  0.00  0.00    -0.279 OA
ATOM    117  H   UNL     1     139.787 182.064 207.691  0.00  0.00    +0.126 HD
BRANCH 114 118
ATOM    118  C   UNL     1     141.206 179.691 205.713  0.00  0.00    +0.007 C 
ATOM    119  H   UNL     1     142.103 180.137 205.269  0.00  0.00    +0.043 HD
ATOM    120  H   UNL     1     141.429 178.645 205.943  0.00  0.00    +0.043 HD
ATOM    121  H   UNL     1     140.379 179.716 204.995  0.00  0.00    +0.043 HD
ENDBRANCH 114 118
ENDBRANCH 111 114
ENDBRANCH 107 110
ENDBRANCH 105 107
BRANCH 105 122
ATOM    122  O   UNL     1     141.692 178.566 211.989  0.00  0.00    -0.379 OA
BRANCH 122 123
ATOM    123  C   UNL     1     141.212 179.124 213.207  0.00  0.00    +0.037 C 
ATOM    124  H   UNL     1     141.901 178.841 214.007  0.00  0.00    +0.052 HD
ATOM    125  H   UNL     1     140.222 178.724 213.446  0.00  0.00    +0.052 HD
ATOM    126  H   UNL     1     141.174 180.215 213.152  0.00  0.00    +0.052 HD
ENDBRANCH 122 123
ENDBRANCH 105 122
ENDBRANCH  99 105
ENDBRANCH  97  99
ENDBRANCH  94  97
ENDBRANCH  91  94
ENDBRANCH  85  91
ENDBRANCH  83  85
BRANCH  83 127
ATOM    127  O   UNL     1     140.518 185.659 209.599  0.00  0.00    -0.379 OA
BRANCH 127 128
ATOM    128  C   UNL     1     140.236 186.536 208.511  0.00  0.00    +0.037 C 
ATOM    129  H   UNL     1     139.181 186.472 208.227  0.00  0.00    +0.052 HD
ATOM    130  H   UNL     1     140.848 186.221 207.662  0.00  0.00    +0.052 HD
ATOM    131  H   UNL     1     140.496 187.567 208.768  0.00  0.00    +0.052 HD
ENDBRANCH 127 128
ENDBRANCH  83 127
ENDBRANCH  77  83
ENDBRANCH  25  77
BRANCH   9 132
ATOM    132  O   UNL     1     148.906 187.422 212.139  0.00  0.00    -0.384 OA
ATOM    133  H   UNL     1     148.619 186.554 212.470  0.00  0.00    +0.210 HD
ENDBRANCH   9 132
BRANCH  29 134
ATOM    134  O   UNL     1     146.583 183.631 212.067  0.00  0.00    -0.376 OA
BRANCH 134 135
ATOM    135  C   UNL     1     147.207 182.365 212.241  0.00  0.00    +0.037 C 
ATOM    136  H   UNL     1     146.550 181.745 212.859  0.00  0.00    +0.052 HD
ATOM    137  H   UNL     1     147.345 181.857 211.282  0.00  0.00    +0.052 HD
ATOM    138  H   UNL     1     148.166 182.470 212.759  0.00  0.00    +0.052 HD
ENDBRANCH 134 135
ENDBRANCH  29 134
BRANCH   6 139
ATOM    139  O   UNL     1     151.842 189.153 215.122  0.00  0.00    -0.379 OA
BRANCH 139 140
ATOM    140  C   UNL     1     150.788 190.103 215.002  0.00  0.00    +0.037 C 
ATOM    141  H   UNL     1     151.222 191.060 214.696  0.00  0.00    +0.052 HD
ATOM    142  H   UNL     1     150.072 189.787 214.240  0.00  0.00    +0.052 HD
ATOM    143  H   UNL     1     150.276 190.242 215.958  0.00  0.00    +0.052 HD
ENDBRANCH 139 140
ENDBRANCH   6 139
BRANCH  16 144
ATOM    144  O   UNL     1     149.435 191.053 208.928  0.00  0.00    -0.379 OA
BRANCH 144 145
ATOM    145  C   UNL     1     149.943 191.672 207.753  0.00  0.00    +0.037 C 
ATOM    146  H   UNL     1     149.272 191.501 206.905  0.00  0.00    +0.052 HD
ATOM    147  H   UNL     1     150.913 191.220 207.523  0.00  0.00    +0.052 HD
ATOM    148  H   UNL     1     150.095 192.744 207.907  0.00  0.00    +0.052 HD
ENDBRANCH 144 145
ENDBRANCH  16 144
BRANCH   4 149
ATOM    149  O   UNL     1     151.271 185.989 216.485  0.00  0.00    -0.376 OA
BRANCH 149 150
ATOM    150  C   UNL     1     151.752 185.990 217.822  0.00  0.00    +0.037 C 
ATOM    151  H   UNL     1     152.151 185.008 218.095  0.00  0.00    +0.052 HD
ATOM    152  H   UNL     1     150.914 186.217 218.483  0.00  0.00    +0.052 HD
ATOM    153  H   UNL     1     152.516 186.759 217.963  0.00  0.00    +0.052 HD
ENDBRANCH 149 150
ENDBRANCH   4 149
TORSDOF 33
ENDMDL
MODEL 10
REMARK VINA RESULT:      -4.8      3.076      8.265
REMARK  Name = Sphinxolide B_conf1
REMARK  33 active torsions:
REMARK  status: ('A' for Active; 'I' for Inactive)
REMARK    1  A    between atoms: C_1  and  C_2
REMARK    2  A    between atoms: C_5  and  O_67
REMARK    3  A    between atoms: C_7  and  O_65
REMARK    4  A    between atoms: C_8  and  C_64
REMARK    5  A    between atoms: C_10  and  O_63
REMARK    6  A    between atoms: C_17  and  O_61
REMARK    7  A    between atoms: C_19  and  C_60
REMARK    8  A    between atoms: C_26  and  C_37
REMARK    9  A    between atoms: C_27  and  C_36
REMARK   10  A    between atoms: C_30  and  O_34
REMARK   11  A    between atoms: C_32  and  O_33
REMARK   12  A    between atoms: O_34  and  C_35
REMARK   13  A    between atoms: C_37  and  C_38
REMARK   14  A    between atoms: C_37  and  C_39
REMARK   15  A    between atoms: C_39  and  C_40
REMARK   16  A    between atoms: C_39  and  O_58
REMARK   17  A    between atoms: C_40  and  C_41
REMARK   18  A    between atoms: C_40  and  C_42
REMARK   19  A    between atoms: C_42  and  C_43
REMARK   20  A    between atoms: C_43  and  C_44
REMARK   21  A    between atoms: C_44  and  C_46
REMARK   22  A    between atoms: C_46  and  C_47
REMARK   23  A    between atoms: C_46  and  C_48
REMARK   24  A    between atoms: C_48  and  C_49
REMARK   25  A    between atoms: C_48  and  O_56
REMARK   26  A    between atoms: C_49  and  C_50
REMARK   27  A    between atoms: C_51  and  N_52
REMARK   28  A    between atoms: N_52  and  C_53
REMARK   29  A    between atoms: O_56  and  C_57
REMARK   30  A    between atoms: O_58  and  C_59
REMARK   31  A    between atoms: O_61  and  C_62
REMARK   32  A    between atoms: O_65  and  C_66
REMARK   33  A    between atoms: O_67  and  C_68
REMARK                            x       y       z     vdW  Elec       q    Type
REMARK                         _______ _______ _______ _____ _____    ______ ____
ROOT
ATOM      1  C   UNL     1     156.016 165.466 186.873  0.00  0.00    +0.000 C 
ATOM      2  C   UNL     1     156.870 164.258 187.205  0.00  0.00    -0.080 C 
ATOM      3  C   UNL     1     158.181 164.073 186.959  0.00  0.00    -0.059 C 
ATOM      4  C   UNL     1     159.012 162.838 187.278  0.00  0.00    +0.079 C 
ATOM      5  C   UNL     1     158.170 161.632 187.730  0.00  0.00    +0.004 C 
ATOM      6  C   UNL     1     158.977 160.366 188.063  0.00  0.00    +0.067 C 
ATOM      7  C   UNL     1     158.054 159.163 188.473  0.00  0.00    +0.022 C 
ATOM      8  C   UNL     1     157.175 159.492 189.729  0.00  0.00    +0.138 C 
ATOM      9  C   UNL     1     155.665 159.691 189.436  0.00  0.00    +0.114 C 
ATOM     10  C   UNL     1     155.015 158.353 189.180  0.00  0.00    -0.029 C 
ATOM     11  C   UNL     1     155.479 157.298 189.873  0.00  0.00    +0.024 C 
ATOM     12  C   UNL     1     156.572 157.409 190.857  0.00  0.00    +0.332 C 
ATOM     13  O   UNL     1     156.766 156.516 191.672  0.00  0.00    -0.246 OA
ATOM     14  O   UNL     1     157.337 158.526 190.802  0.00  0.00    -0.455 OA
ATOM     15  C   UNL     1     153.887 158.286 188.159  0.00  0.00    -0.002 C 
ATOM     16  C   UNL     1     153.164 156.935 187.941  0.00  0.00    +0.066 C 
ATOM     17  C   UNL     1     151.933 157.102 187.008  0.00  0.00    -0.005 C 
ATOM     18  C   UNL     1     152.207 157.700 185.635  0.00  0.00    -0.070 C 
ATOM     19  C   UNL     1     151.857 158.936 185.229  0.00  0.00    -0.062 C 
ATOM     20  C   UNL     1     151.197 159.962 186.007  0.00  0.00    -0.055 C 
ATOM     21  C   UNL     1     150.949 161.182 185.507  0.00  0.00    +0.023 C 
ATOM     22  C   UNL     1     150.300 162.211 186.342  0.00  0.00    +0.332 C 
ATOM     23  O   UNL     1     149.819 162.025 187.449  0.00  0.00    -0.246 OA
ATOM     24  O   UNL     1     150.367 163.377 185.659  0.00  0.00    -0.457 OA
ATOM     25  C   UNL     1     149.811 164.577 186.271  0.00  0.00    +0.114 C 
ATOM     26  C   UNL     1     150.976 165.612 186.371  0.00  0.00    +0.012 C 
ATOM     27  C   UNL     1     152.147 164.985 187.123  0.00  0.00    -0.079 C 
ATOM     28  C   UNL     1     152.641 165.313 188.329  0.00  0.00    -0.059 C 
ATOM     29  C   UNL     1     153.802 164.598 188.969  0.00  0.00    +0.079 C 
ATOM     30  C   UNL     1     154.992 165.519 189.296  0.00  0.00    +0.004 C 
ATOM     31  C   UNL     1     155.648 166.291 188.138  0.00  0.00    +0.064 C 
ATOM     32  H   UNL     1     155.092 165.084 186.426  0.00  0.00    +0.037 HD
ATOM     33  H   UNL     1     156.320 163.454 187.690  0.00  0.00    +0.057 HD
ATOM     34  H   UNL     1     158.741 164.867 186.471  0.00  0.00    +0.059 HD
ATOM     35  H   UNL     1     159.574 162.559 186.378  0.00  0.00    +0.064 HD
ATOM     36  H   UNL     1     157.614 161.925 188.625  0.00  0.00    +0.032 HD
ATOM     37  H   UNL     1     157.460 161.393 186.929  0.00  0.00    +0.032 HD
ATOM     38  H   UNL     1     159.668 160.579 188.891  0.00  0.00    +0.060 HD
ATOM     39  H   UNL     1     157.395 158.968 187.615  0.00  0.00    +0.036 HD
ATOM     40  H   UNL     1     157.540 160.430 190.165  0.00  0.00    +0.077 HD
ATOM     41  H   UNL     1     155.187 160.135 190.318  0.00  0.00    +0.068 HD
ATOM     42  H   UNL     1     155.071 156.298 189.783  0.00  0.00    +0.069 HD
ATOM     43  H   UNL     1     153.136 159.030 188.456  0.00  0.00    +0.034 HD
ATOM     44  H   UNL     1     154.317 158.602 187.200  0.00  0.00    +0.034 HD
ATOM     45  H   UNL     1     152.804 156.574 188.914  0.00  0.00    +0.060 HD
ATOM     46  H   UNL     1     151.186 157.697 187.544  0.00  0.00    +0.034 HD
ATOM     47  H   UNL     1     151.448 156.131 186.855  0.00  0.00    +0.034 HD
ATOM     48  H   UNL     1     152.109 159.226 184.206  0.00  0.00    +0.062 HD
ATOM     49  H   UNL     1     150.902 159.740 187.029  0.00  0.00    +0.062 HD
ATOM     50  H   UNL     1     151.220 161.465 184.496  0.00  0.00    +0.069 HD
ATOM     51  H   UNL     1     149.501 164.343 187.299  0.00  0.00    +0.074 HD
ATOM     52  H   UNL     1     151.374 165.797 185.367  0.00  0.00    +0.038 HD
ATOM     53  H   UNL     1     152.632 164.167 186.587  0.00  0.00    +0.057 HD
ATOM     54  H   UNL     1     152.210 166.119 188.915  0.00  0.00    +0.059 HD
ATOM     55  H   UNL     1     154.152 163.777 188.334  0.00  0.00    +0.064 HD
ATOM     56  H   UNL     1     155.757 164.911 189.797  0.00  0.00    +0.032 HD
ATOM     57  H   UNL     1     154.665 166.245 190.058  0.00  0.00    +0.032 HD
ATOM     58  H   UNL     1     156.563 166.745 188.541  0.00  0.00    +0.060 HD
ENDROOT
BRANCH   1  59
ATOM     59  C   UNL     1     156.636 166.373 185.795  0.00  0.00    -0.057 C 
ATOM     60  H   UNL     1     155.864 166.929 185.251  0.00  0.00    +0.024 HD
ATOM     61  H   UNL     1     157.303 167.117 186.246  0.00  0.00    +0.024 HD
ATOM     62  H   UNL     1     157.218 165.796 185.069  0.00  0.00    +0.024 HD
ENDBRANCH   1  59
BRANCH  26  63
ATOM     63  C   UNL     1     150.566 166.960 186.968  0.00  0.00    -0.056 C 
ATOM     64  H   UNL     1     149.609 167.306 186.566  0.00  0.00    +0.024 HD
ATOM     65  H   UNL     1     150.476 166.901 188.060  0.00  0.00    +0.024 HD
ATOM     66  H   UNL     1     151.319 167.726 186.781  0.00  0.00    +0.024 HD
ENDBRANCH  26  63
BRANCH  18  67
ATOM     67  C   UNL     1     152.910 156.780 184.665  0.00  0.00    -0.043 C 
ATOM     68  H   UNL     1     153.287 155.891 185.178  0.00  0.00    +0.027 HD
ATOM     69  H   UNL     1     153.765 157.263 184.183  0.00  0.00    +0.027 HD
ATOM     70  H   UNL     1     152.227 156.466 183.867  0.00  0.00    +0.027 HD
ENDBRANCH  18  67
BRANCH   7  71
ATOM     71  C   UNL     1     158.898 157.889 188.644  0.00  0.00    -0.057 C 
ATOM     72  H   UNL     1     159.632 157.787 187.837  0.00  0.00    +0.023 HD
ATOM     73  H   UNL     1     159.426 157.882 189.601  0.00  0.00    +0.023 HD
ATOM     74  H   UNL     1     158.269 156.993 188.648  0.00  0.00    +0.023 HD
ENDBRANCH   7  71
BRANCH  31  75
ATOM     75  O   UNL     1     154.788 167.384 187.790  0.00  0.00    -0.391 OA
ATOM     76  H   UNL     1     154.928 168.088 188.443  0.00  0.00    +0.210 HD
ENDBRANCH  31  75
BRANCH  25  77
ATOM     77  C   UNL     1     148.510 164.912 185.466  0.00  0.00    +0.020 C 
ATOM     78  H   UNL     1     148.601 165.972 185.195  0.00  0.00    +0.036 HD
BRANCH  77  79
ATOM     79  C   UNL     1     148.474 164.174 184.117  0.00  0.00    -0.057 C 
ATOM     80  H   UNL     1     148.772 164.801 183.279  0.00  0.00    +0.023 HD
ATOM     81  H   UNL     1     147.471 163.782 183.914  0.00  0.00    +0.023 HD
ATOM     82  H   UNL     1     149.157 163.316 184.138  0.00  0.00    +0.023 HD
ENDBRANCH  77  79
BRANCH  77  83
ATOM     83  C   UNL     1     147.138 164.776 186.208  0.00  0.00    +0.067 C 
ATOM     84  H   UNL     1     146.348 164.958 185.463  0.00  0.00    +0.060 HD
BRANCH  83  85
ATOM     85  C   UNL     1     146.926 165.829 187.343  0.00  0.00    -0.017 C 
ATOM     86  H   UNL     1     147.749 166.541 187.350  0.00  0.00    +0.032 HD
BRANCH  85  87
ATOM     87  C   UNL     1     145.653 166.644 187.064  0.00  0.00    -0.060 C 
ATOM     88  H   UNL     1     145.713 167.132 186.088  0.00  0.00    +0.023 HD
ATOM     89  H   UNL     1     144.762 166.008 187.052  0.00  0.00    +0.023 HD
ATOM     90  H   UNL     1     145.504 167.420 187.822  0.00  0.00    +0.023 HD
ENDBRANCH  85  87
BRANCH  85  91
ATOM     91  C   UNL     1     146.847 165.234 188.770  0.00  0.00    -0.041 C 
ATOM     92  H   UNL     1     147.088 164.164 188.738  0.00  0.00    +0.027 HD
ATOM     93  H   UNL     1     145.817 165.295 189.145  0.00  0.00    +0.027 HD
BRANCH  91  94
ATOM     94  C   UNL     1     147.773 165.938 189.771  0.00  0.00    +0.007 C 
ATOM     95  H   UNL     1     148.327 165.172 190.324  0.00  0.00    +0.034 HD
ATOM     96  H   UNL     1     148.495 166.563 189.248  0.00  0.00    +0.034 HD
BRANCH  94  97
ATOM     97  C   UNL     1     147.029 166.796 190.792  0.00  0.00    +0.139 C 
ATOM     98  O   UNL     1     146.321 166.290 191.668  0.00  0.00    -0.297 OA
BRANCH  97  99
ATOM     99  C   UNL     1     147.218 168.314 190.777  0.00  0.00    +0.041 C 
ATOM    100  H   UNL     1     146.207 168.712 190.939  0.00  0.00    +0.040 HD
BRANCH  99 101
ATOM    101  C   UNL     1     147.639 168.885 189.426  0.00  0.00    -0.053 C 
ATOM    102  H   UNL     1     148.330 168.227 188.889  0.00  0.00    +0.024 HD
ATOM    103  H   UNL     1     148.126 169.857 189.551  0.00  0.00    +0.024 HD
ATOM    104  H   UNL     1     146.765 169.035 188.784  0.00  0.00    +0.024 HD
ENDBRANCH  99 101
BRANCH  99 105
ATOM    105  C   UNL     1     148.103 168.769 191.959  0.00  0.00    +0.071 C 
ATOM    106  H   UNL     1     147.804 168.243 192.876  0.00  0.00    +0.061 HD
BRANCH 105 107
ATOM    107  C   UNL     1     149.609 168.524 191.724  0.00  0.00    -0.006 C 
ATOM    108  H   UNL     1     149.768 168.017 190.768  0.00  0.00    +0.033 HD
ATOM    109  H   UNL     1     150.142 169.481 191.683  0.00  0.00    +0.033 HD
BRANCH 107 110
ATOM    110  C   UNL     1     150.237 167.650 192.785  0.00  0.00    -0.067 C 
ATOM    111  C   UNL     1     149.522 166.826 193.567  0.00  0.00    -0.005 C 
ATOM    112  H   UNL     1     151.312 167.744 192.898  0.00  0.00    +0.059 HD
ATOM    113  H   UNL     1     148.447 166.758 193.413  0.00  0.00    +0.078 HD
BRANCH 111 114
ATOM    114  N   UNL     1     150.029 166.027 194.581  0.00  0.00    -0.284 N 
ATOM    115  C   UNL     1     149.219 165.633 195.642  0.00  0.00    +0.206 C 
ATOM    116  O   UNL     1     149.549 164.932 196.592  0.00  0.00    -0.279 OA
ATOM    117  H   UNL     1     148.190 166.027 195.562  0.00  0.00    +0.126 HD
BRANCH 114 118
ATOM    118  C   UNL     1     151.410 165.569 194.572  0.00  0.00    +0.007 C 
ATOM    119  H   UNL     1     152.051 166.323 195.043  0.00  0.00    +0.043 HD
ATOM    120  H   UNL     1     151.532 164.632 195.121  0.00  0.00    +0.043 HD
ATOM    121  H   UNL     1     151.725 165.404 193.536  0.00  0.00    +0.043 HD
ENDBRANCH 114 118
ENDBRANCH 111 114
ENDBRANCH 107 110
ENDBRANCH 105 107
BRANCH 105 122
ATOM    122  O   UNL     1     147.940 170.190 192.145  0.00  0.00    -0.379 OA
BRANCH 122 123
ATOM    123  C   UNL     1     149.161 170.913 192.043  0.00  0.00    +0.037 C 
ATOM    124  H   UNL     1     148.955 171.859 191.537  0.00  0.00    +0.052 HD
ATOM    125  H   UNL     1     149.888 170.354 191.448  0.00  0.00    +0.052 HD
ATOM    126  H   UNL     1     149.572 171.132 193.032  0.00  0.00    +0.052 HD
ENDBRANCH 122 123
ENDBRANCH 105 122
ENDBRANCH  99 105
ENDBRANCH  97  99
ENDBRANCH  94  97
ENDBRANCH  91  94
ENDBRANCH  85  91
ENDBRANCH  83  85
BRANCH  83 127
ATOM    127  O   UNL     1     146.996 163.448 186.709  0.00  0.00    -0.379 OA
BRANCH 127 128
ATOM    128  C   UNL     1     145.869 162.751 186.186  0.00  0.00    +0.037 C 
ATOM    129  H   UNL     1     146.144 162.191 185.287  0.00  0.00    +0.052 HD
ATOM    130  H   UNL     1     145.113 163.494 185.918  0.00  0.00    +0.052 HD
ATOM    131  H   UNL     1     145.448 162.077 186.937  0.00  0.00    +0.052 HD
ENDBRANCH 127 128
ENDBRANCH  83 127
ENDBRANCH  77  83
ENDBRANCH  25  77
BRANCH   9 132
ATOM    132  O   UNL     1     155.462 160.578 188.348  0.00  0.00    -0.384 OA
ATOM    133  H   UNL     1     154.558 160.927 188.422  0.00  0.00    +0.210 HD
ENDBRANCH   9 132
BRANCH  29 134
ATOM    134  O   UNL     1     153.376 164.031 190.220  0.00  0.00    -0.376 OA
BRANCH 134 135
ATOM    135  C   UNL     1     152.802 164.975 191.115  0.00  0.00    +0.037 C 
ATOM    136  H   UNL     1     152.562 164.455 192.047  0.00  0.00    +0.052 HD
ATOM    137  H   UNL     1     153.508 165.777 191.349  0.00  0.00    +0.052 HD
ATOM    138  H   UNL     1     151.875 165.389 190.705  0.00  0.00    +0.052 HD
ENDBRANCH 134 135
ENDBRANCH  29 134
BRANCH   6 139
ATOM    139  O   UNL     1     159.707 160.003 186.876  0.00  0.00    -0.379 OA
BRANCH 139 140
ATOM    140  C   UNL     1     158.860 159.767 185.756  0.00  0.00    +0.037 C 
ATOM    141  H   UNL     1     158.622 160.731 185.296  0.00  0.00    +0.052 HD
ATOM    142  H   UNL     1     159.368 159.145 185.016  0.00  0.00    +0.052 HD
ATOM    143  H   UNL     1     157.927 159.288 186.065  0.00  0.00    +0.052 HD
ENDBRANCH 139 140
ENDBRANCH   6 139
BRANCH  16 144
ATOM    144  O   UNL     1     154.105 155.989 187.414  0.00  0.00    -0.379 OA
BRANCH 144 145
ATOM    145  C   UNL     1     153.762 154.632 187.660  0.00  0.00    +0.037 C 
ATOM    146  H   UNL     1     154.611 153.973 187.447  0.00  0.00    +0.052 HD
ATOM    147  H   UNL     1     152.939 154.362 186.990  0.00  0.00    +0.052 HD
ATOM    148  H   UNL     1     153.421 154.491 188.689  0.00  0.00    +0.052 HD
ENDBRANCH 144 145
ENDBRANCH  16 144
BRANCH   4 149
ATOM    149  O   UNL     1     159.916 163.164 188.343  0.00  0.00    -0.376 OA
BRANCH 149 150
ATOM    150  C   UNL     1     161.265 163.310 187.920  0.00  0.00    +0.037 C 
ATOM    151  H   UNL     1     161.790 162.351 187.947  0.00  0.00    +0.052 HD
ATOM    152  H   UNL     1     161.764 163.996 188.608  0.00  0.00    +0.052 HD
ATOM    153  H   UNL     1     161.316 163.738 186.916  0.00  0.00    +0.052 HD
ENDBRANCH 149 150
ENDBRANCH   4 149
TORSDOF 33
ENDMDL
