MODEL 1
REMARK VINA RESULT:      -5.8      0.000      0.000
REMARK  Name = Swinholide A_conf3
REMARK  40 active torsions:
REMARK  status: ('A' for Active; 'I' for Inactive)
REMARK    1  A    between atoms: C_1  and  C_2
REMARK    2  A    between atoms: C_4  and  C_10
REMARK    3  A    between atoms: C_6  and  O_8
REMARK    4  A    between atoms: O_8  and  C_9
REMARK    5  A    between atoms: C_10  and  C_11
REMARK    6  A    between atoms: C_11  and  C_12
REMARK    7  A    between atoms: C_12  and  C_13
REMARK    8  A    between atoms: C_12  and  C_98
REMARK    9  A    between atoms: C_13  and  O_14
REMARK   10  A    between atoms: C_13  and  C_15
REMARK   11  A    between atoms: C_15  and  C_16
REMARK   12  A    between atoms: C_15  and  C_97
REMARK   13  A    between atoms: C_22  and  C_96
REMARK   14  A    between atoms: C_25  and  O_95
REMARK   15  A    between atoms: C_31  and  O_90
REMARK   16  A    between atoms: C_32  and  C_89
REMARK   17  A    between atoms: C_33  and  O_88
REMARK   18  A    between atoms: C_35  and  O_87
REMARK   19  A    between atoms: C_36  and  C_86
REMARK   20  A    between atoms: C_37  and  C_69
REMARK   21  A    between atoms: C_43  and  C_68
REMARK   22  A    between atoms: C_46  and  O_67
REMARK   23  A    between atoms: C_52  and  O_62
REMARK   24  A    between atoms: C_53  and  C_61
REMARK   25  A    between atoms: C_54  and  O_60
REMARK   26  A    between atoms: C_56  and  O_59
REMARK   27  A    between atoms: C_57  and  C_58
REMARK   28  A    between atoms: O_62  and  C_63
REMARK   29  A    between atoms: C_69  and  C_70
REMARK   30  A    between atoms: C_69  and  C_85
REMARK   31  A    between atoms: C_70  and  O_71
REMARK   32  A    between atoms: C_70  and  C_72
REMARK   33  A    between atoms: C_72  and  C_73
REMARK   34  A    between atoms: C_72  and  C_84
REMARK   35  A    between atoms: C_73  and  C_74
REMARK   36  A    between atoms: C_74  and  C_75
REMARK   37  A    between atoms: C_77  and  C_83
REMARK   38  A    between atoms: C_79  and  O_81
REMARK   39  A    between atoms: O_81  and  C_82
REMARK   40  A    between atoms: O_90  and  C_91
REMARK                            x       y       z     vdW  Elec       q    Type
REMARK                         _______ _______ _______ _____ _____    ______ ____
ROOT
ATOM      1  C   UNL     1     152.436 165.657 189.021  0.00  0.00    +0.113 C 
ATOM      2  O   UNL     1     153.822 165.519 188.611  0.00  0.00    -0.458 OA
ATOM      3  C   UNL     1     154.162 166.242 187.511  0.00  0.00    +0.332 C 
ATOM      4  O   UNL     1     153.448 167.051 186.934  0.00  0.00    -0.246 OA
ATOM      5  C   UNL     1     155.509 165.961 187.005  0.00  0.00    +0.023 C 
ATOM      6  C   UNL     1     156.546 165.477 187.703  0.00  0.00    -0.052 C 
ATOM      7  C   UNL     1     157.876 165.362 187.110  0.00  0.00    -0.054 C 
ATOM      8  C   UNL     1     158.378 166.377 186.378  0.00  0.00    -0.079 C 
ATOM      9  C   UNL     1     159.670 166.433 185.620  0.00  0.00    -0.008 C 
ATOM     10  C   UNL     1     159.715 165.707 184.257  0.00  0.00    +0.061 C 
ATOM     11  C   UNL     1     158.383 165.428 183.548  0.00  0.00    +0.003 C 
ATOM     12  C   UNL     1     157.700 166.549 182.748  0.00  0.00    +0.080 C 
ATOM     13  O   UNL     1     156.492 165.931 182.259  0.00  0.00    -0.369 OA
ATOM     14  C   UNL     1     155.474 166.826 181.778  0.00  0.00    +0.065 C 
ATOM     15  C   UNL     1     155.942 167.502 180.478  0.00  0.00    +0.000 C 
ATOM     16  C   UNL     1     154.854 168.264 179.695  0.00  0.00    +0.066 C 
ATOM     17  C   UNL     1     155.415 168.729 178.319  0.00  0.00    +0.009 C 
ATOM     18  C   UNL     1     156.277 170.025 178.362  0.00  0.00    +0.063 C 
ATOM     19  C   UNL     1     157.485 169.990 177.395  0.00  0.00    -0.000 C 
ATOM     20  C   UNL     1     158.510 168.895 177.768  0.00  0.00    +0.064 C 
ATOM     21  C   UNL     1     159.983 169.385 177.706  0.00  0.00    +0.020 C 
ATOM     22  C   UNL     1     160.946 168.643 178.701  0.00  0.00    +0.113 C 
ATOM     23  O   UNL     1     160.346 167.448 179.236  0.00  0.00    -0.458 OA
ATOM     24  C   UNL     1     160.485 166.313 178.509  0.00  0.00    +0.332 C 
ATOM     25  O   UNL     1     161.242 166.135 177.568  0.00  0.00    -0.246 OA
ATOM     26  C   UNL     1     159.533 165.319 179.045  0.00  0.00    +0.023 C 
ATOM     27  C   UNL     1     159.421 164.115 178.466  0.00  0.00    -0.052 C 
ATOM     28  C   UNL     1     158.487 163.076 178.880  0.00  0.00    -0.054 C 
ATOM     29  C   UNL     1     157.205 163.363 179.184  0.00  0.00    -0.079 C 
ATOM     30  C   UNL     1     156.121 162.388 179.564  0.00  0.00    -0.008 C 
ATOM     31  C   UNL     1     156.027 162.187 181.089  0.00  0.00    +0.061 C 
ATOM     32  C   UNL     1     154.802 162.891 181.691  0.00  0.00    +0.003 C 
ATOM     33  C   UNL     1     154.840 162.961 183.228  0.00  0.00    +0.080 C 
ATOM     34  O   UNL     1     153.961 164.003 183.702  0.00  0.00    -0.369 OA
ATOM     35  C   UNL     1     152.585 163.607 183.862  0.00  0.00    +0.065 C 
ATOM     36  C   UNL     1     151.811 164.875 184.283  0.00  0.00    +0.000 C 
ATOM     37  C   UNL     1     150.311 164.659 184.575  0.00  0.00    +0.066 C 
ATOM     38  C   UNL     1     149.604 165.967 185.044  0.00  0.00    +0.009 C 
ATOM     39  C   UNL     1     150.123 166.581 186.375  0.00  0.00    +0.063 C 
ATOM     40  C   UNL     1     149.579 166.085 187.732  0.00  0.00    -0.000 C 
ATOM     41  C   UNL     1     150.087 164.751 188.300  0.00  0.00    +0.064 C 
ATOM     42  C   UNL     1     151.618 164.542 188.298  0.00  0.00    +0.020 C 
ATOM     43  C   UNL     1     152.505 162.505 184.930  0.00  0.00    -0.008 C 
ATOM     44  C   UNL     1     153.496 161.416 184.682  0.00  0.00    -0.083 C 
ATOM     45  C   UNL     1     154.562 161.638 183.904  0.00  0.00    -0.059 C 
ATOM     46  C   UNL     1     155.042 167.771 182.907  0.00  0.00    -0.008 C 
ATOM     47  C   UNL     1     156.217 168.390 183.593  0.00  0.00    -0.083 C 
ATOM     48  C   UNL     1     157.430 167.824 183.501  0.00  0.00    -0.059 C 
ATOM     49  H   UNL     1     152.063 166.614 188.639  0.00  0.00    +0.074 HD
ATOM     50  H   UNL     1     155.627 166.263 185.967  0.00  0.00    +0.069 HD
ATOM     51  H   UNL     1     156.433 165.163 188.737  0.00  0.00    +0.062 HD
ATOM     52  H   UNL     1     157.788 167.289 186.286  0.00  0.00    +0.058 HD
ATOM     53  H   UNL     1     160.486 166.053 186.250  0.00  0.00    +0.033 HD
ATOM     54  H   UNL     1     159.925 167.492 185.477  0.00  0.00    +0.033 HD
ATOM     55  H   UNL     1     160.179 164.729 184.440  0.00  0.00    +0.060 HD
ATOM     56  H   UNL     1     157.663 164.973 184.241  0.00  0.00    +0.032 HD
ATOM     57  H   UNL     1     158.575 164.625 182.819  0.00  0.00    +0.032 HD
ATOM     58  H   UNL     1     158.325 166.788 181.881  0.00  0.00    +0.064 HD
ATOM     59  H   UNL     1     154.616 166.187 181.540  0.00  0.00    +0.060 HD
ATOM     60  H   UNL     1     156.348 166.706 179.839  0.00  0.00    +0.032 HD
ATOM     61  H   UNL     1     156.786 168.160 180.688  0.00  0.00    +0.032 HD
ATOM     62  H   UNL     1     154.502 169.131 180.267  0.00  0.00    +0.060 HD
ATOM     63  H   UNL     1     156.021 167.902 177.933  0.00  0.00    +0.035 HD
ATOM     64  H   UNL     1     155.641 170.871 178.071  0.00  0.00    +0.060 HD
ATOM     65  H   UNL     1     157.962 170.975 177.453  0.00  0.00    +0.032 HD
ATOM     66  H   UNL     1     157.129 169.855 176.367  0.00  0.00    +0.032 HD
ATOM     67  H   UNL     1     158.291 168.558 178.780  0.00  0.00    +0.060 HD
ATOM     68  H   UNL     1     159.994 170.447 177.974  0.00  0.00    +0.036 HD
ATOM     69  H   UNL     1     161.858 168.343 178.167  0.00  0.00    +0.074 HD
ATOM     70  H   UNL     1     158.916 165.627 179.879  0.00  0.00    +0.069 HD
ATOM     71  H   UNL     1     160.066 163.864 177.623  0.00  0.00    +0.062 HD
ATOM     72  H   UNL     1     156.865 164.399 179.143  0.00  0.00    +0.058 HD
ATOM     73  H   UNL     1     155.171 162.765 179.163  0.00  0.00    +0.033 HD
ATOM     74  H   UNL     1     156.279 161.433 179.049  0.00  0.00    +0.033 HD
ATOM     75  H   UNL     1     156.937 162.551 181.581  0.00  0.00    +0.060 HD
ATOM     76  H   UNL     1     154.738 163.910 181.297  0.00  0.00    +0.032 HD
ATOM     77  H   UNL     1     153.884 162.380 181.371  0.00  0.00    +0.032 HD
ATOM     78  H   UNL     1     155.842 163.283 183.536  0.00  0.00    +0.064 HD
ATOM     79  H   UNL     1     152.203 163.248 182.898  0.00  0.00    +0.060 HD
ATOM     80  H   UNL     1     152.323 165.309 185.145  0.00  0.00    +0.032 HD
ATOM     81  H   UNL     1     151.922 165.613 183.476  0.00  0.00    +0.032 HD
ATOM     82  H   UNL     1     150.190 163.882 185.331  0.00  0.00    +0.060 HD
ATOM     83  H   UNL     1     149.805 166.709 184.256  0.00  0.00    +0.035 HD
ATOM     84  H   UNL     1     151.207 166.561 186.395  0.00  0.00    +0.060 HD
ATOM     85  H   UNL     1     148.483 166.056 187.686  0.00  0.00    +0.032 HD
ATOM     86  H   UNL     1     149.795 166.861 188.479  0.00  0.00    +0.032 HD
ATOM     87  H   UNL     1     149.720 164.674 189.331  0.00  0.00    +0.060 HD
ATOM     88  H   UNL     1     151.932 164.577 187.250  0.00  0.00    +0.036 HD
ATOM     89  H   UNL     1     151.502 162.072 184.966  0.00  0.00    +0.033 HD
ATOM     90  H   UNL     1     152.731 162.920 185.915  0.00  0.00    +0.033 HD
ATOM     91  H   UNL     1     153.350 160.452 185.159  0.00  0.00    +0.057 HD
ATOM     92  H   UNL     1     155.271 160.833 183.736  0.00  0.00    +0.059 HD
ATOM     93  H   UNL     1     154.482 167.204 183.661  0.00  0.00    +0.033 HD
ATOM     94  H   UNL     1     154.375 168.549 182.529  0.00  0.00    +0.033 HD
ATOM     95  H   UNL     1     156.073 169.312 184.147  0.00  0.00    +0.057 HD
ATOM     96  H   UNL     1     158.282 168.331 183.939  0.00  0.00    +0.059 HD
ENDROOT
BRANCH  28  97
ATOM     97  C   UNL     1     159.082 161.694 178.880  0.00  0.00    -0.040 C 
ATOM     98  H   UNL     1     159.960 161.603 178.235  0.00  0.00    +0.028 HD
ATOM     99  H   UNL     1     159.381 161.403 179.893  0.00  0.00    +0.028 HD
ATOM    100  H   UNL     1     158.349 160.966 178.513  0.00  0.00    +0.028 HD
ENDBRANCH  28  97
BRANCH  21 101
ATOM    101  C   UNL     1     160.560 169.335 176.284  0.00  0.00    -0.057 C 
ATOM    102  H   UNL     1     161.654 169.329 176.287  0.00  0.00    +0.023 HD
ATOM    103  H   UNL     1     160.237 170.208 175.707  0.00  0.00    +0.023 HD
ATOM    104  H   UNL     1     160.212 168.444 175.750  0.00  0.00    +0.023 HD
ENDBRANCH  21 101
BRANCH  42 105
ATOM    105  C   UNL     1     151.990 163.110 188.720  0.00  0.00    -0.057 C 
ATOM    106  H   UNL     1     152.802 163.127 189.456  0.00  0.00    +0.023 HD
ATOM    107  H   UNL     1     151.146 162.588 189.183  0.00  0.00    +0.023 HD
ATOM    108  H   UNL     1     152.362 162.520 187.880  0.00  0.00    +0.023 HD
ENDBRANCH  42 105
BRANCH  17 109
ATOM    109  C   UNL     1     154.314 168.912 177.258  0.00  0.00    -0.058 C 
ATOM    110  H   UNL     1     154.310 168.085 176.543  0.00  0.00    +0.023 HD
ATOM    111  H   UNL     1     154.443 169.847 176.703  0.00  0.00    +0.023 HD
ATOM    112  H   UNL     1     153.323 168.958 177.726  0.00  0.00    +0.023 HD
ENDBRANCH  17 109
BRANCH  38 113
ATOM    113  C   UNL     1     148.073 165.835 185.052  0.00  0.00    -0.058 C 
ATOM    114  H   UNL     1     147.724 165.171 184.255  0.00  0.00    +0.023 HD
ATOM    115  H   UNL     1     147.716 165.440 186.010  0.00  0.00    +0.023 HD
ATOM    116  H   UNL     1     147.593 166.809 184.915  0.00  0.00    +0.023 HD
ENDBRANCH  38 113
BRANCH   7 117
ATOM    117  C   UNL     1     158.584 164.063 187.363  0.00  0.00    -0.040 C 
ATOM    118  H   UNL     1     159.648 164.166 187.139  0.00  0.00    +0.028 HD
ATOM    119  H   UNL     1     158.197 163.247 186.746  0.00  0.00    +0.028 HD
ATOM    120  H   UNL     1     158.477 163.756 188.409  0.00  0.00    +0.028 HD
ENDBRANCH   7 117
BRANCH   1 121
ATOM    121  C   UNL     1     152.317 165.815 190.567  0.00  0.00    +0.020 C 
ATOM    122  H   UNL     1     151.382 165.317 190.854  0.00  0.00    +0.036 HD
BRANCH 121 123
ATOM    123  C   UNL     1     153.408 165.142 191.396  0.00  0.00    -0.057 C 
ATOM    124  H   UNL     1     153.097 164.984 192.431  0.00  0.00    +0.023 HD
ATOM    125  H   UNL     1     153.691 164.179 190.960  0.00  0.00    +0.023 HD
ATOM    126  H   UNL     1     154.328 165.727 191.390  0.00  0.00    +0.023 HD
ENDBRANCH 121 123
BRANCH 121 127
ATOM    127  C   UNL     1     152.153 167.323 190.953  0.00  0.00    +0.064 C 
ATOM    128  H   UNL     1     153.052 167.603 191.515  0.00  0.00    +0.060 HD
BRANCH 127 129
ATOM    129  C   UNL     1     150.883 167.717 191.779  0.00  0.00    -0.017 C 
ATOM    130  H   UNL     1     150.931 167.226 192.754  0.00  0.00    +0.032 HD
BRANCH 129 131
ATOM    131  C   UNL     1     150.921 169.230 192.053  0.00  0.00    -0.060 C 
ATOM    132  H   UNL     1     150.163 169.760 191.466  0.00  0.00    +0.023 HD
ATOM    133  H   UNL     1     151.900 169.650 191.796  0.00  0.00    +0.023 HD
ATOM    134  H   UNL     1     150.749 169.449 193.112  0.00  0.00    +0.023 HD
ENDBRANCH 129 131
BRANCH 129 135
ATOM    135  C   UNL     1     149.547 167.346 191.094  0.00  0.00    -0.046 C 
ATOM    136  H   UNL     1     149.455 166.260 191.003  0.00  0.00    +0.027 HD
ATOM    137  H   UNL     1     149.547 167.730 190.065  0.00  0.00    +0.027 HD
BRANCH 135 138
ATOM    138  C   UNL     1     148.269 167.869 191.773  0.00  0.00    -0.026 C 
ATOM    139  H   UNL     1     147.569 168.122 190.965  0.00  0.00    +0.029 HD
ATOM    140  H   UNL     1     148.479 168.807 192.300  0.00  0.00    +0.029 HD
BRANCH 138 143
ATOM    141  C   UNL     1     145.383 166.469 193.678  0.00  0.00    +0.059 C 
ATOM    142  O   UNL     1     146.164 167.077 192.641  0.00  0.00    -0.373 OA
ATOM    143  C   UNL     1     147.577 166.878 192.724  0.00  0.00    +0.061 C 
ATOM    144  C   UNL     1     148.077 167.080 194.156  0.00  0.00    -0.000 C 
ATOM    145  C   UNL     1     147.390 166.115 195.131  0.00  0.00    +0.063 C 
ATOM    146  C   UNL     1     146.164 165.453 194.503  0.00  0.00    -0.000 C 
ATOM    147  H   UNL     1     145.038 167.280 194.330  0.00  0.00    +0.059 HD
ATOM    148  H   UNL     1     147.805 165.859 192.394  0.00  0.00    +0.060 HD
ATOM    149  H   UNL     1     149.167 166.981 194.189  0.00  0.00    +0.032 HD
ATOM    150  H   UNL     1     147.829 168.102 194.471  0.00  0.00    +0.032 HD
ATOM    151  H   UNL     1     147.068 166.669 196.024  0.00  0.00    +0.060 HD
ATOM    152  H   UNL     1     145.536 165.018 195.291  0.00  0.00    +0.032 HD
ATOM    153  H   UNL     1     146.475 164.614 193.871  0.00  0.00    +0.032 HD
BRANCH 141 154
ATOM    154  C   UNL     1     144.165 165.828 193.028  0.00  0.00    -0.039 C 
ATOM    155  H   UNL     1     144.448 164.958 192.427  0.00  0.00    +0.025 HD
ATOM    156  H   UNL     1     143.445 165.508 193.788  0.00  0.00    +0.025 HD
ATOM    157  H   UNL     1     143.646 166.543 192.381  0.00  0.00    +0.025 HD
ENDBRANCH 141 154
BRANCH 145 158
ATOM    158  O   UNL     1     148.281 165.067 195.531  0.00  0.00    -0.380 OA
BRANCH 158 159
ATOM    159  C   UNL     1     149.336 165.518 196.372  0.00  0.00    +0.037 C 
ATOM    160  H   UNL     1     150.130 164.764 196.354  0.00  0.00    +0.052 HD
ATOM    161  H   UNL     1     149.750 166.466 196.021  0.00  0.00    +0.052 HD
ATOM    162  H   UNL     1     148.980 165.622 197.401  0.00  0.00    +0.052 HD
ENDBRANCH 158 159
ENDBRANCH 145 158
ENDBRANCH 138 143
ENDBRANCH 135 138
ENDBRANCH 129 135
ENDBRANCH 127 129
BRANCH 127 163
ATOM    163  O   UNL     1     152.213 168.087 189.741  0.00  0.00    -0.391 OA
ATOM    164  H   UNL     1     152.917 168.750 189.855  0.00  0.00    +0.210 HD
ENDBRANCH 127 163
ENDBRANCH 121 127
ENDBRANCH   1 121
BRANCH  41 165
ATOM    165  O   UNL     1     149.455 163.696 187.569  0.00  0.00    -0.391 OA
ATOM    166  H   UNL     1     148.718 163.369 188.111  0.00  0.00    +0.210 HD
ENDBRANCH  41 165
BRANCH  39 167
ATOM    167  O   UNL     1     149.784 167.988 186.341  0.00  0.00    -0.391 OA
ATOM    168  H   UNL     1     148.988 168.068 185.786  0.00  0.00    +0.210 HD
ENDBRANCH  39 167
BRANCH  31 169
ATOM    169  O   UNL     1     155.951 160.782 181.353  0.00  0.00    -0.391 OA
ATOM    170  H   UNL     1     156.341 160.322 180.587  0.00  0.00    +0.210 HD
ENDBRANCH  31 169
BRANCH  22 171
ATOM    171  C   UNL     1     161.430 169.558 179.891  0.00  0.00    +0.020 C 
ATOM    172  H   UNL     1     162.470 169.828 179.664  0.00  0.00    +0.036 HD
BRANCH 171 173
ATOM    173  C   UNL     1     160.571 170.840 179.861  0.00  0.00    -0.057 C 
ATOM    174  H   UNL     1     161.031 171.649 180.438  0.00  0.00    +0.023 HD
ATOM    175  H   UNL     1     160.423 171.204 178.840  0.00  0.00    +0.023 HD
ATOM    176  H   UNL     1     159.591 170.695 180.314  0.00  0.00    +0.023 HD
ENDBRANCH 171 173
BRANCH 171 177
ATOM    177  C   UNL     1     161.427 168.868 181.296  0.00  0.00    +0.064 C 
ATOM    178  H   UNL     1     160.407 168.528 181.514  0.00  0.00    +0.060 HD
BRANCH 177 179
ATOM    179  O   UNL     1     162.259 167.709 181.225  0.00  0.00    -0.391 OA
ATOM    180  H   UNL     1     161.837 166.984 181.731  0.00  0.00    +0.210 HD
ENDBRANCH 177 179
BRANCH 177 181
ATOM    181  C   UNL     1     161.943 169.687 182.523  0.00  0.00    -0.017 C 
ATOM    182  H   UNL     1     162.583 169.027 183.125  0.00  0.00    +0.032 HD
BRANCH 181 183
ATOM    183  C   UNL     1     162.772 170.917 182.158  0.00  0.00    -0.060 C 
ATOM    184  H   UNL     1     163.725 170.617 181.714  0.00  0.00    +0.023 HD
ATOM    185  H   UNL     1     163.056 171.504 183.036  0.00  0.00    +0.023 HD
ATOM    186  H   UNL     1     162.233 171.575 181.471  0.00  0.00    +0.023 HD
ENDBRANCH 181 183
BRANCH 181 187
ATOM    187  C   UNL     1     160.731 170.066 183.426  0.00  0.00    -0.046 C 
ATOM    188  H   UNL     1     160.835 169.558 184.393  0.00  0.00    +0.027 HD
ATOM    189  H   UNL     1     159.808 169.685 182.970  0.00  0.00    +0.027 HD
BRANCH 187 190
ATOM    190  C   UNL     1     160.569 171.570 183.691  0.00  0.00    -0.026 C 
ATOM    191  H   UNL     1     160.654 171.770 184.766  0.00  0.00    +0.029 HD
ATOM    192  H   UNL     1     161.386 172.099 183.183  0.00  0.00    +0.029 HD
BRANCH 190 193
ATOM    193  C   UNL     1     159.236 172.132 183.173  0.00  0.00    +0.061 C 
ATOM    194  O   UNL     1     159.324 173.560 183.146  0.00  0.00    -0.373 OA
ATOM    195  C   UNL     1     158.147 174.213 182.660  0.00  0.00    +0.059 C 
ATOM    196  C   UNL     1     156.917 173.826 183.487  0.00  0.00    -0.000 C 
ATOM    197  C   UNL     1     156.763 172.314 183.665  0.00  0.00    +0.063 C 
ATOM    198  C   UNL     1     158.093 171.696 184.094  0.00  0.00    -0.000 C 
ATOM    199  H   UNL     1     159.078 171.752 182.157  0.00  0.00    +0.060 HD
ATOM    200  H   UNL     1     158.320 175.286 182.822  0.00  0.00    +0.059 HD
ATOM    201  H   UNL     1     156.021 174.276 183.053  0.00  0.00    +0.032 HD
ATOM    202  H   UNL     1     157.042 174.258 184.489  0.00  0.00    +0.032 HD
ATOM    203  H   UNL     1     156.020 172.107 184.446  0.00  0.00    +0.060 HD
ATOM    204  H   UNL     1     158.016 170.602 184.098  0.00  0.00    +0.032 HD
ATOM    205  H   UNL     1     158.306 172.024 185.120  0.00  0.00    +0.032 HD
BRANCH 195 206
ATOM    206  C   UNL     1     157.975 174.033 181.154  0.00  0.00    -0.039 C 
ATOM    207  H   UNL     1     157.371 174.851 180.743  0.00  0.00    +0.025 HD
ATOM    208  H   UNL     1     157.474 173.086 180.930  0.00  0.00    +0.025 HD
ATOM    209  H   UNL     1     158.923 174.050 180.610  0.00  0.00    +0.025 HD
ENDBRANCH 195 206
BRANCH 197 210
ATOM    210  O   UNL     1     156.348 171.674 182.454  0.00  0.00    -0.380 OA
BRANCH 210 211
ATOM    211  C   UNL     1     154.946 171.738 182.230  0.00  0.00    +0.037 C 
ATOM    212  H   UNL     1     154.767 172.381 181.365  0.00  0.00    +0.052 HD
ATOM    213  H   UNL     1     154.550 170.742 182.008  0.00  0.00    +0.052 HD
ATOM    214  H   UNL     1     154.425 172.165 183.091  0.00  0.00    +0.052 HD
ENDBRANCH 210 211
ENDBRANCH 197 210
ENDBRANCH 190 193
ENDBRANCH 187 190
ENDBRANCH 181 187
ENDBRANCH 177 181
ENDBRANCH 171 177
ENDBRANCH  22 171
BRANCH  20 215
ATOM    215  O   UNL     1     158.301 167.754 176.934  0.00  0.00    -0.391 OA
ATOM    216  H   UNL     1     158.456 166.947 177.451  0.00  0.00    +0.210 HD
ENDBRANCH  20 215
BRANCH  18 217
ATOM    217  O   UNL     1     156.762 170.344 179.669  0.00  0.00    -0.391 OA
ATOM    218  H   UNL     1     156.846 169.501 180.153  0.00  0.00    +0.210 HD
ENDBRANCH  18 217
BRANCH  10 219
ATOM    219  O   UNL     1     160.608 166.417 183.397  0.00  0.00    -0.391 OA
ATOM    220  H   UNL     1     160.150 167.209 183.066  0.00  0.00    +0.210 HD
ENDBRANCH  10 219
BRANCH  37 221
ATOM    221  O   UNL     1     149.722 164.242 183.329  0.00  0.00    -0.379 OA
BRANCH 221 222
ATOM    222  C   UNL     1     149.125 162.954 183.388  0.00  0.00    +0.037 C 
ATOM    223  H   UNL     1     149.840 162.228 182.993  0.00  0.00    +0.052 HD
ATOM    224  H   UNL     1     148.906 162.688 184.426  0.00  0.00    +0.052 HD
ATOM    225  H   UNL     1     148.211 162.905 182.788  0.00  0.00    +0.052 HD
ENDBRANCH 221 222
ENDBRANCH  37 221
BRANCH  16 226
ATOM    226  O   UNL     1     153.779 167.336 179.468  0.00  0.00    -0.379 OA
BRANCH 226 227
ATOM    227  C   UNL     1     152.523 167.799 179.952  0.00  0.00    +0.037 C 
ATOM    228  H   UNL     1     151.783 167.683 179.156  0.00  0.00    +0.052 HD
ATOM    229  H   UNL     1     152.201 167.208 180.814  0.00  0.00    +0.052 HD
ATOM    230  H   UNL     1     152.579 168.858 180.224  0.00  0.00    +0.052 HD
ENDBRANCH 226 227
ENDBRANCH  16 226
TORSDOF 40
ENDMDL
MODEL 2
REMARK VINA RESULT:      -5.6      1.665      2.340
REMARK  Name = Swinholide A_conf3
REMARK  40 active torsions:
REMARK  status: ('A' for Active; 'I' for Inactive)
REMARK    1  A    between atoms: C_1  and  C_2
REMARK    2  A    between atoms: C_4  and  C_10
REMARK    3  A    between atoms: C_6  and  O_8
REMARK    4  A    between atoms: O_8  and  C_9
REMARK    5  A    between atoms: C_10  and  C_11
REMARK    6  A    between atoms: C_11  and  C_12
REMARK    7  A    between atoms: C_12  and  C_13
REMARK    8  A    between atoms: C_12  and  C_98
REMARK    9  A    between atoms: C_13  and  O_14
REMARK   10  A    between atoms: C_13  and  C_15
REMARK   11  A    between atoms: C_15  and  C_16
REMARK   12  A    between atoms: C_15  and  C_97
REMARK   13  A    between atoms: C_22  and  C_96
REMARK   14  A    between atoms: C_25  and  O_95
REMARK   15  A    between atoms: C_31  and  O_90
REMARK   16  A    between atoms: C_32  and  C_89
REMARK   17  A    between atoms: C_33  and  O_88
REMARK   18  A    between atoms: C_35  and  O_87
REMARK   19  A    between atoms: C_36  and  C_86
REMARK   20  A    between atoms: C_37  and  C_69
REMARK   21  A    between atoms: C_43  and  C_68
REMARK   22  A    between atoms: C_46  and  O_67
REMARK   23  A    between atoms: C_52  and  O_62
REMARK   24  A    between atoms: C_53  and  C_61
REMARK   25  A    between atoms: C_54  and  O_60
REMARK   26  A    between atoms: C_56  and  O_59
REMARK   27  A    between atoms: C_57  and  C_58
REMARK   28  A    between atoms: O_62  and  C_63
REMARK   29  A    between atoms: C_69  and  C_70
REMARK   30  A    between atoms: C_69  and  C_85
REMARK   31  A    between atoms: C_70  and  O_71
REMARK   32  A    between atoms: C_70  and  C_72
REMARK   33  A    between atoms: C_72  and  C_73
REMARK   34  A    between atoms: C_72  and  C_84
REMARK   35  A    between atoms: C_73  and  C_74
REMARK   36  A    between atoms: C_74  and  C_75
REMARK   37  A    between atoms: C_77  and  C_83
REMARK   38  A    between atoms: C_79  and  O_81
REMARK   39  A    between atoms: O_81  and  C_82
REMARK   40  A    between atoms: O_90  and  C_91
REMARK                            x       y       z     vdW  Elec       q    Type
REMARK                         _______ _______ _______ _____ _____    ______ ____
ROOT
ATOM      1  C   UNL     1     152.525 165.507 188.957  0.00  0.00    +0.113 C 
ATOM      2  O   UNL     1     153.911 165.373 188.543  0.00  0.00    -0.458 OA
ATOM      3  C   UNL     1     154.250 166.115 187.455  0.00  0.00    +0.332 C 
ATOM      4  O   UNL     1     153.536 166.933 186.891  0.00  0.00    -0.246 OA
ATOM      5  C   UNL     1     155.596 165.840 186.942  0.00  0.00    +0.023 C 
ATOM      6  C   UNL     1     156.634 165.344 187.631  0.00  0.00    -0.052 C 
ATOM      7  C   UNL     1     157.962 165.236 187.035  0.00  0.00    -0.054 C 
ATOM      8  C   UNL     1     158.464 166.263 186.318  0.00  0.00    -0.079 C 
ATOM      9  C   UNL     1     159.756 166.330 185.560  0.00  0.00    -0.008 C 
ATOM     10  C   UNL     1     159.798 165.626 184.185  0.00  0.00    +0.061 C 
ATOM     11  C   UNL     1     158.465 165.360 183.474  0.00  0.00    +0.003 C 
ATOM     12  C   UNL     1     157.783 166.495 182.692  0.00  0.00    +0.080 C 
ATOM     13  O   UNL     1     156.573 165.885 182.195  0.00  0.00    -0.369 OA
ATOM     14  C   UNL     1     155.555 166.789 181.729  0.00  0.00    +0.065 C 
ATOM     15  C   UNL     1     156.023 167.486 180.440  0.00  0.00    +0.000 C 
ATOM     16  C   UNL     1     154.935 168.262 179.671  0.00  0.00    +0.066 C 
ATOM     17  C   UNL     1     155.494 168.749 178.302  0.00  0.00    +0.009 C 
ATOM     18  C   UNL     1     156.358 170.042 178.365  0.00  0.00    +0.063 C 
ATOM     19  C   UNL     1     157.565 170.022 177.396  0.00  0.00    -0.000 C 
ATOM     20  C   UNL     1     158.589 168.920 177.751  0.00  0.00    +0.064 C 
ATOM     21  C   UNL     1     160.062 169.410 177.695  0.00  0.00    +0.020 C 
ATOM     22  C   UNL     1     161.026 168.650 178.676  0.00  0.00    +0.113 C 
ATOM     23  O   UNL     1     160.425 167.447 179.192  0.00  0.00    -0.458 OA
ATOM     24  C   UNL     1     160.563 166.324 178.446  0.00  0.00    +0.332 C 
ATOM     25  O   UNL     1     161.318 166.161 177.502  0.00  0.00    -0.246 OA
ATOM     26  C   UNL     1     159.609 165.323 178.968  0.00  0.00    +0.023 C 
ATOM     27  C   UNL     1     159.496 164.128 178.370  0.00  0.00    -0.052 C 
ATOM     28  C   UNL     1     158.561 163.084 178.768  0.00  0.00    -0.054 C 
ATOM     29  C   UNL     1     157.279 163.367 179.078  0.00  0.00    -0.079 C 
ATOM     30  C   UNL     1     156.195 162.387 179.443  0.00  0.00    -0.008 C 
ATOM     31  C   UNL     1     156.103 162.162 180.965  0.00  0.00    +0.061 C 
ATOM     32  C   UNL     1     154.879 162.857 181.580  0.00  0.00    +0.003 C 
ATOM     33  C   UNL     1     154.919 162.902 183.118  0.00  0.00    +0.080 C 
ATOM     34  O   UNL     1     154.042 163.938 183.610  0.00  0.00    -0.369 OA
ATOM     35  C   UNL     1     152.665 163.541 183.765  0.00  0.00    +0.065 C 
ATOM     36  C   UNL     1     151.893 164.802 184.207  0.00  0.00    +0.000 C 
ATOM     37  C   UNL     1     150.393 164.583 184.498  0.00  0.00    +0.066 C 
ATOM     38  C   UNL     1     149.689 165.885 184.989  0.00  0.00    +0.009 C 
ATOM     39  C   UNL     1     150.210 166.476 186.328  0.00  0.00    +0.063 C 
ATOM     40  C   UNL     1     149.668 165.958 187.678  0.00  0.00    -0.000 C 
ATOM     41  C   UNL     1     150.174 164.615 188.224  0.00  0.00    +0.064 C 
ATOM     42  C   UNL     1     151.705 164.404 188.217  0.00  0.00    +0.020 C 
ATOM     43  C   UNL     1     152.586 162.422 184.815  0.00  0.00    -0.008 C 
ATOM     44  C   UNL     1     153.575 161.336 184.548  0.00  0.00    -0.083 C 
ATOM     45  C   UNL     1     154.640 161.569 183.772  0.00  0.00    -0.059 C 
ATOM     46  C   UNL     1     155.126 167.717 182.875  0.00  0.00    -0.008 C 
ATOM     47  C   UNL     1     156.303 168.323 183.569  0.00  0.00    -0.083 C 
ATOM     48  C   UNL     1     157.514 167.757 183.467  0.00  0.00    -0.059 C 
ATOM     49  H   UNL     1     152.153 166.470 188.590  0.00  0.00    +0.074 HD
ATOM     50  H   UNL     1     155.713 166.159 185.909  0.00  0.00    +0.069 HD
ATOM     51  H   UNL     1     156.521 165.013 188.660  0.00  0.00    +0.062 HD
ATOM     52  H   UNL     1     157.875 167.177 186.242  0.00  0.00    +0.058 HD
ATOM     53  H   UNL     1     160.572 165.939 186.183  0.00  0.00    +0.033 HD
ATOM     54  H   UNL     1     160.012 167.390 185.434  0.00  0.00    +0.033 HD
ATOM     55  H   UNL     1     160.262 164.645 184.352  0.00  0.00    +0.060 HD
ATOM     56  H   UNL     1     157.746 164.894 184.160  0.00  0.00    +0.032 HD
ATOM     57  H   UNL     1     158.656 164.568 182.731  0.00  0.00    +0.032 HD
ATOM     58  H   UNL     1     158.406 166.747 181.828  0.00  0.00    +0.064 HD
ATOM     59  H   UNL     1     154.697 166.156 181.482  0.00  0.00    +0.060 HD
ATOM     60  H   UNL     1     156.427 166.701 179.788  0.00  0.00    +0.032 HD
ATOM     61  H   UNL     1     156.867 168.140 180.660  0.00  0.00    +0.032 HD
ATOM     62  H   UNL     1     154.584 169.120 180.258  0.00  0.00    +0.060 HD
ATOM     63  H   UNL     1     156.099 167.927 177.902  0.00  0.00    +0.035 HD
ATOM     64  H   UNL     1     155.723 170.894 178.089  0.00  0.00    +0.060 HD
ATOM     65  H   UNL     1     158.044 171.006 177.470  0.00  0.00    +0.032 HD
ATOM     66  H   UNL     1     157.208 169.904 176.366  0.00  0.00    +0.032 HD
ATOM     67  H   UNL     1     158.371 168.567 178.757  0.00  0.00    +0.060 HD
ATOM     68  H   UNL     1     160.075 170.467 177.980  0.00  0.00    +0.036 HD
ATOM     69  H   UNL     1     161.937 168.358 178.136  0.00  0.00    +0.074 HD
ATOM     70  H   UNL     1     158.995 165.618 179.807  0.00  0.00    +0.069 HD
ATOM     71  H   UNL     1     160.140 163.890 177.522  0.00  0.00    +0.062 HD
ATOM     72  H   UNL     1     156.941 164.404 179.054  0.00  0.00    +0.058 HD
ATOM     73  H   UNL     1     155.245 162.772 179.050  0.00  0.00    +0.033 HD
ATOM     74  H   UNL     1     156.351 161.441 178.913  0.00  0.00    +0.033 HD
ATOM     75  H   UNL     1     157.014 162.517 181.462  0.00  0.00    +0.060 HD
ATOM     76  H   UNL     1     154.816 163.882 181.202  0.00  0.00    +0.032 HD
ATOM     77  H   UNL     1     153.960 162.352 181.252  0.00  0.00    +0.032 HD
ATOM     78  H   UNL     1     155.922 163.218 183.430  0.00  0.00    +0.064 HD
ATOM     79  H   UNL     1     152.282 163.197 182.796  0.00  0.00    +0.060 HD
ATOM     80  H   UNL     1     152.407 165.222 185.076  0.00  0.00    +0.032 HD
ATOM     81  H   UNL     1     152.005 165.553 183.413  0.00  0.00    +0.032 HD
ATOM     82  H   UNL     1     150.273 163.794 185.241  0.00  0.00    +0.060 HD
ATOM     83  H   UNL     1     149.890 166.639 184.212  0.00  0.00    +0.035 HD
ATOM     84  H   UNL     1     151.294 166.454 186.347  0.00  0.00    +0.060 HD
ATOM     85  H   UNL     1     148.571 165.932 187.633  0.00  0.00    +0.032 HD
ATOM     86  H   UNL     1     149.884 166.723 188.437  0.00  0.00    +0.032 HD
ATOM     87  H   UNL     1     149.808 164.522 189.254  0.00  0.00    +0.060 HD
ATOM     88  H   UNL     1     152.018 164.456 187.169  0.00  0.00    +0.036 HD
ATOM     89  H   UNL     1     151.582 161.989 184.845  0.00  0.00    +0.033 HD
ATOM     90  H   UNL     1     152.813 162.821 185.806  0.00  0.00    +0.033 HD
ATOM     91  H   UNL     1     153.429 160.364 185.010  0.00  0.00    +0.057 HD
ATOM     92  H   UNL     1     155.348 160.766 183.590  0.00  0.00    +0.059 HD
ATOM     93  H   UNL     1     154.567 167.138 183.620  0.00  0.00    +0.033 HD
ATOM     94  H   UNL     1     154.459 168.502 182.510  0.00  0.00    +0.033 HD
ATOM     95  H   UNL     1     156.161 169.237 184.138  0.00  0.00    +0.057 HD
ATOM     96  H   UNL     1     158.368 168.256 183.911  0.00  0.00    +0.059 HD
ENDROOT
BRANCH  28  97
ATOM     97  C   UNL     1     159.155 161.701 178.744  0.00  0.00    -0.040 C 
ATOM     98  H   UNL     1     159.864 161.551 177.927  0.00  0.00    +0.028 HD
ATOM     99  H   UNL     1     159.678 161.491 179.684  0.00  0.00    +0.028 HD
ATOM    100  H   UNL     1     158.365 160.953 178.614  0.00  0.00    +0.028 HD
ENDBRANCH  28  97
BRANCH  21 101
ATOM    101  C   UNL     1     160.638 169.382 176.271  0.00  0.00    -0.057 C 
ATOM    102  H   UNL     1     160.029 168.774 175.595  0.00  0.00    +0.023 HD
ATOM    103  H   UNL     1     161.649 168.961 176.273  0.00  0.00    +0.023 HD
ATOM    104  H   UNL     1     160.706 170.394 175.856  0.00  0.00    +0.023 HD
ENDBRANCH  21 101
BRANCH  42 105
ATOM    105  C   UNL     1     152.076 162.966 188.615  0.00  0.00    -0.057 C 
ATOM    106  H   UNL     1     151.245 162.490 189.149  0.00  0.00    +0.023 HD
ATOM    107  H   UNL     1     152.295 162.344 187.741  0.00  0.00    +0.023 HD
ATOM    108  H   UNL     1     152.925 162.936 189.300  0.00  0.00    +0.023 HD
ENDBRANCH  42 105
BRANCH  17 109
ATOM    109  C   UNL     1     154.392 168.950 177.246  0.00  0.00    -0.058 C 
ATOM    110  H   UNL     1     153.522 168.321 177.455  0.00  0.00    +0.023 HD
ATOM    111  H   UNL     1     154.754 168.714 176.240  0.00  0.00    +0.023 HD
ATOM    112  H   UNL     1     154.056 169.993 177.224  0.00  0.00    +0.023 HD
ENDBRANCH  17 109
BRANCH  38 113
ATOM    113  C   UNL     1     148.158 165.753 184.996  0.00  0.00    -0.058 C 
ATOM    114  H   UNL     1     147.777 165.444 184.018  0.00  0.00    +0.023 HD
ATOM    115  H   UNL     1     147.828 165.020 185.741  0.00  0.00    +0.023 HD
ATOM    116  H   UNL     1     147.683 166.704 185.260  0.00  0.00    +0.023 HD
ENDBRANCH  38 113
BRANCH   7 117
ATOM    117  C   UNL     1     158.669 163.933 187.265  0.00  0.00    -0.040 C 
ATOM    118  H   UNL     1     158.392 163.213 186.491  0.00  0.00    +0.028 HD
ATOM    119  H   UNL     1     158.421 163.486 188.231  0.00  0.00    +0.028 HD
ATOM    120  H   UNL     1     159.756 164.067 187.241  0.00  0.00    +0.028 HD
ENDBRANCH   7 117
BRANCH   1 121
ATOM    121  C   UNL     1     152.408 165.640 190.505  0.00  0.00    +0.020 C 
ATOM    122  H   UNL     1     151.528 165.053 190.797  0.00  0.00    +0.036 HD
BRANCH 121 123
ATOM    123  C   UNL     1     153.566 165.066 191.317  0.00  0.00    -0.057 C 
ATOM    124  H   UNL     1     153.271 164.179 191.882  0.00  0.00    +0.023 HD
ATOM    125  H   UNL     1     154.408 164.808 190.668  0.00  0.00    +0.023 HD
ATOM    126  H   UNL     1     153.970 165.806 192.009  0.00  0.00    +0.023 HD
ENDBRANCH 121 123
BRANCH 121 127
ATOM    127  C   UNL     1     152.106 167.122 190.906  0.00  0.00    +0.064 C 
ATOM    128  H   UNL     1     152.820 167.385 191.697  0.00  0.00    +0.060 HD
BRANCH 127 129
ATOM    129  C   UNL     1     150.654 167.452 191.391  0.00  0.00    -0.017 C 
ATOM    130  H   UNL     1     150.098 167.894 190.562  0.00  0.00    +0.032 HD
BRANCH 129 131
ATOM    131  C   UNL     1     149.939 166.137 191.743  0.00  0.00    -0.060 C 
ATOM    132  H   UNL     1     150.655 165.320 191.885  0.00  0.00    +0.023 HD
ATOM    133  H   UNL     1     149.246 165.843 190.946  0.00  0.00    +0.023 HD
ATOM    134  H   UNL     1     149.347 166.236 192.658  0.00  0.00    +0.023 HD
ENDBRANCH 129 131
BRANCH 129 135
ATOM    135  C   UNL     1     150.600 168.413 192.602  0.00  0.00    -0.046 C 
ATOM    136  H   UNL     1     151.258 168.058 193.400  0.00  0.00    +0.027 HD
ATOM    137  H   UNL     1     149.587 168.405 193.028  0.00  0.00    +0.027 HD
BRANCH 135 138
ATOM    138  C   UNL     1     150.960 169.882 192.318  0.00  0.00    -0.026 C 
ATOM    139  H   UNL     1     151.811 169.864 191.623  0.00  0.00    +0.029 HD
ATOM    140  H   UNL     1     151.323 170.365 193.233  0.00  0.00    +0.029 HD
BRANCH 138 143
ATOM    141  C   UNL     1     148.383 172.579 192.270  0.00  0.00    +0.059 C 
ATOM    142  O   UNL     1     149.596 171.858 192.525  0.00  0.00    -0.373 OA
ATOM    143  C   UNL     1     149.838 170.725 191.690  0.00  0.00    +0.061 C 
ATOM    144  C   UNL     1     148.570 169.882 191.527  0.00  0.00    -0.000 C 
ATOM    145  C   UNL     1     147.427 170.704 190.917  0.00  0.00    +0.063 C 
ATOM    146  C   UNL     1     147.726 172.202 190.949  0.00  0.00    -0.000 C 
ATOM    147  H   UNL     1     147.700 172.349 193.096  0.00  0.00    +0.059 HD
ATOM    148  H   UNL     1     150.173 171.080 190.709  0.00  0.00    +0.060 HD
ATOM    149  H   UNL     1     148.789 168.989 190.932  0.00  0.00    +0.032 HD
ATOM    150  H   UNL     1     148.245 169.547 192.520  0.00  0.00    +0.032 HD
ATOM    151  H   UNL     1     146.505 170.520 191.486  0.00  0.00    +0.060 HD
ATOM    152  H   UNL     1     146.798 172.766 190.794  0.00  0.00    +0.032 HD
ATOM    153  H   UNL     1     148.381 172.469 190.112  0.00  0.00    +0.032 HD
BRANCH 141 154
ATOM    154  C   UNL     1     148.707 174.066 192.318  0.00  0.00    -0.039 C 
ATOM    155  H   UNL     1     147.956 174.653 191.780  0.00  0.00    +0.025 HD
ATOM    156  H   UNL     1     148.750 174.418 193.353  0.00  0.00    +0.025 HD
ATOM    157  H   UNL     1     149.688 174.267 191.874  0.00  0.00    +0.025 HD
ENDBRANCH 141 154
BRANCH 145 158
ATOM    158  O   UNL     1     147.207 170.342 189.549  0.00  0.00    -0.380 OA
BRANCH 158 159
ATOM    159  C   UNL     1     147.543 168.989 189.264  0.00  0.00    +0.037 C 
ATOM    160  H   UNL     1     146.950 168.346 189.922  0.00  0.00    +0.052 HD
ATOM    161  H   UNL     1     147.313 168.730 188.227  0.00  0.00    +0.052 HD
ATOM    162  H   UNL     1     148.603 168.813 189.469  0.00  0.00    +0.052 HD
ENDBRANCH 158 159
ENDBRANCH 145 158
ENDBRANCH 138 143
ENDBRANCH 135 138
ENDBRANCH 129 135
ENDBRANCH 127 129
BRANCH 127 163
ATOM    163  O   UNL     1     152.457 167.952 189.791  0.00  0.00    -0.391 OA
ATOM    164  H   UNL     1     152.863 168.760 190.151  0.00  0.00    +0.210 HD
ENDBRANCH 127 163
ENDBRANCH 121 127
ENDBRANCH   1 121
BRANCH  41 165
ATOM    165  O   UNL     1     149.540 163.573 187.477  0.00  0.00    -0.391 OA
ATOM    166  H   UNL     1     149.856 163.639 186.560  0.00  0.00    +0.210 HD
ENDBRANCH  41 165
BRANCH  39 167
ATOM    167  O   UNL     1     149.872 167.884 186.318  0.00  0.00    -0.391 OA
ATOM    168  H   UNL     1     148.921 167.942 186.514  0.00  0.00    +0.210 HD
ENDBRANCH  39 167
BRANCH  31 169
ATOM    169  O   UNL     1     156.026 160.753 181.207  0.00  0.00    -0.391 OA
ATOM    170  H   UNL     1     156.227 160.611 182.151  0.00  0.00    +0.210 HD
ENDBRANCH  31 169
BRANCH  22 171
ATOM    171  C   UNL     1     161.512 169.546 179.880  0.00  0.00    +0.020 C 
ATOM    172  H   UNL     1     161.991 168.862 180.594  0.00  0.00    +0.036 HD
BRANCH 171 173
ATOM    173  C   UNL     1     162.584 170.510 179.329  0.00  0.00    -0.057 C 
ATOM    174  H   UNL     1     162.144 171.457 178.999  0.00  0.00    +0.023 HD
ATOM    175  H   UNL     1     163.344 170.743 180.081  0.00  0.00    +0.023 HD
ATOM    176  H   UNL     1     163.088 170.113 178.449  0.00  0.00    +0.023 HD
ENDBRANCH 171 173
BRANCH 171 177
ATOM    177  C   UNL     1     160.371 170.293 180.648  0.00  0.00    +0.064 C 
ATOM    178  H   UNL     1     159.887 170.993 179.955  0.00  0.00    +0.060 HD
BRANCH 177 179
ATOM    179  O   UNL     1     159.392 169.330 181.038  0.00  0.00    -0.391 OA
ATOM    180  H   UNL     1     159.349 168.627 180.357  0.00  0.00    +0.210 HD
ENDBRANCH 177 179
BRANCH 177 181
ATOM    181  C   UNL     1     160.744 171.072 181.951  0.00  0.00    -0.017 C 
ATOM    182  H   UNL     1     161.672 170.640 182.349  0.00  0.00    +0.032 HD
BRANCH 181 183
ATOM    183  C   UNL     1     160.986 172.566 181.745  0.00  0.00    -0.060 C 
ATOM    184  H   UNL     1     160.772 172.849 180.711  0.00  0.00    +0.023 HD
ATOM    185  H   UNL     1     162.034 172.843 181.890  0.00  0.00    +0.023 HD
ATOM    186  H   UNL     1     160.379 173.168 182.428  0.00  0.00    +0.023 HD
ENDBRANCH 181 183
BRANCH 181 187
ATOM    187  C   UNL     1     159.645 170.817 183.027  0.00  0.00    -0.046 C 
ATOM    188  H   UNL     1     160.104 170.326 183.894  0.00  0.00    +0.027 HD
ATOM    189  H   UNL     1     158.903 170.114 182.626  0.00  0.00    +0.027 HD
BRANCH 187 190
ATOM    190  C   UNL     1     158.919 172.077 183.520  0.00  0.00    -0.026 C 
ATOM    191  H   UNL     1     158.684 171.979 184.586  0.00  0.00    +0.029 HD
ATOM    192  H   UNL     1     159.595 172.933 183.399  0.00  0.00    +0.029 HD
BRANCH 190 193
ATOM    193  C   UNL     1     157.628 172.370 182.740  0.00  0.00    +0.061 C 
ATOM    194  O   UNL     1     157.523 173.785 182.548  0.00  0.00    -0.373 OA
ATOM    195  C   UNL     1     156.367 174.196 181.813  0.00  0.00    +0.059 C 
ATOM    196  C   UNL     1     155.080 173.708 182.486  0.00  0.00    -0.000 C 
ATOM    197  C   UNL     1     155.106 172.216 182.825  0.00  0.00    +0.063 C 
ATOM    198  C   UNL     1     156.416 171.858 183.524  0.00  0.00    -0.000 C 
ATOM    199  H   UNL     1     157.697 171.870 181.767  0.00  0.00    +0.060 HD
ATOM    200  H   UNL     1     156.362 175.293 181.864  0.00  0.00    +0.059 HD
ATOM    201  H   UNL     1     154.216 173.968 181.868  0.00  0.00    +0.032 HD
ATOM    202  H   UNL     1     154.974 174.253 183.434  0.00  0.00    +0.032 HD
ATOM    203  H   UNL     1     154.278 171.976 183.504  0.00  0.00    +0.060 HD
ATOM    204  H   UNL     1     156.490 170.772 183.652  0.00  0.00    +0.032 HD
ATOM    205  H   UNL     1     156.408 172.316 184.521  0.00  0.00    +0.032 HD
BRANCH 195 206
ATOM    206  C   UNL     1     156.476 173.840 180.332  0.00  0.00    -0.039 C 
ATOM    207  H   UNL     1     156.122 174.676 179.717  0.00  0.00    +0.025 HD
ATOM    208  H   UNL     1     155.874 172.957 180.098  0.00  0.00    +0.025 HD
ATOM    209  H   UNL     1     157.503 173.641 180.015  0.00  0.00    +0.025 HD
ENDBRANCH 195 206
BRANCH 197 210
ATOM    210  O   UNL     1     154.992 171.401 181.654  0.00  0.00    -0.380 OA
BRANCH 210 211
ATOM    211  C   UNL     1     153.697 171.428 181.068  0.00  0.00    +0.037 C 
ATOM    212  H   UNL     1     153.381 170.397 180.893  0.00  0.00    +0.052 HD
ATOM    213  H   UNL     1     152.981 171.899 181.747  0.00  0.00    +0.052 HD
ATOM    214  H   UNL     1     153.706 171.953 180.109  0.00  0.00    +0.052 HD
ENDBRANCH 210 211
ENDBRANCH 197 210
ENDBRANCH 190 193
ENDBRANCH 187 190
ENDBRANCH 181 187
ENDBRANCH 177 181
ENDBRANCH 171 177
ENDBRANCH  22 171
BRANCH  20 215
ATOM    215  O   UNL     1     158.378 167.793 176.898  0.00  0.00    -0.391 OA
ATOM    216  H   UNL     1     157.870 167.119 177.378  0.00  0.00    +0.210 HD
ENDBRANCH  20 215
BRANCH  18 217
ATOM    217  O   UNL     1     156.845 170.340 179.677  0.00  0.00    -0.391 OA
ATOM    218  H   UNL     1     157.758 170.666 179.572  0.00  0.00    +0.210 HD
ENDBRANCH  18 217
BRANCH  10 219
ATOM    219  O   UNL     1     160.692 166.349 183.336  0.00  0.00    -0.391 OA
ATOM    220  H   UNL     1     160.929 167.181 183.780  0.00  0.00    +0.210 HD
ENDBRANCH  10 219
BRANCH  37 221
ATOM    221  O   UNL     1     149.803 164.187 183.246  0.00  0.00    -0.379 OA
BRANCH 221 222
ATOM    222  C   UNL     1     150.110 165.066 182.172  0.00  0.00    +0.037 C 
ATOM    223  H   UNL     1     150.207 166.077 182.577  0.00  0.00    +0.052 HD
ATOM    224  H   UNL     1     151.064 164.786 181.718  0.00  0.00    +0.052 HD
ATOM    225  H   UNL     1     149.320 165.068 181.415  0.00  0.00    +0.052 HD
ENDBRANCH 221 222
ENDBRANCH  37 221
BRANCH  16 226
ATOM    226  O   UNL     1     153.858 167.339 179.431  0.00  0.00    -0.379 OA
BRANCH 226 227
ATOM    227  C   UNL     1     152.608 167.786 179.943  0.00  0.00    +0.037 C 
ATOM    228  H   UNL     1     152.614 167.654 181.029  0.00  0.00    +0.052 HD
ATOM    229  H   UNL     1     152.459 168.847 179.723  0.00  0.00    +0.052 HD
ATOM    230  H   UNL     1     151.786 167.197 179.525  0.00  0.00    +0.052 HD
ENDBRANCH 226 227
ENDBRANCH  16 226
TORSDOF 40
ENDMDL
MODEL 3
REMARK VINA RESULT:      -5.4      1.721      2.924
REMARK  Name = Swinholide A_conf3
REMARK  40 active torsions:
REMARK  status: ('A' for Active; 'I' for Inactive)
REMARK    1  A    between atoms: C_1  and  C_2
REMARK    2  A    between atoms: C_4  and  C_10
REMARK    3  A    between atoms: C_6  and  O_8
REMARK    4  A    between atoms: O_8  and  C_9
REMARK    5  A    between atoms: C_10  and  C_11
REMARK    6  A    between atoms: C_11  and  C_12
REMARK    7  A    between atoms: C_12  and  C_13
REMARK    8  A    between atoms: C_12  and  C_98
REMARK    9  A    between atoms: C_13  and  O_14
REMARK   10  A    between atoms: C_13  and  C_15
REMARK   11  A    between atoms: C_15  and  C_16
REMARK   12  A    between atoms: C_15  and  C_97
REMARK   13  A    between atoms: C_22  and  C_96
REMARK   14  A    between atoms: C_25  and  O_95
REMARK   15  A    between atoms: C_31  and  O_90
REMARK   16  A    between atoms: C_32  and  C_89
REMARK   17  A    between atoms: C_33  and  O_88
REMARK   18  A    between atoms: C_35  and  O_87
REMARK   19  A    between atoms: C_36  and  C_86
REMARK   20  A    between atoms: C_37  and  C_69
REMARK   21  A    between atoms: C_43  and  C_68
REMARK   22  A    between atoms: C_46  and  O_67
REMARK   23  A    between atoms: C_52  and  O_62
REMARK   24  A    between atoms: C_53  and  C_61
REMARK   25  A    between atoms: C_54  and  O_60
REMARK   26  A    between atoms: C_56  and  O_59
REMARK   27  A    between atoms: C_57  and  C_58
REMARK   28  A    between atoms: O_62  and  C_63
REMARK   29  A    between atoms: C_69  and  C_70
REMARK   30  A    between atoms: C_69  and  C_85
REMARK   31  A    between atoms: C_70  and  O_71
REMARK   32  A    between atoms: C_70  and  C_72
REMARK   33  A    between atoms: C_72  and  C_73
REMARK   34  A    between atoms: C_72  and  C_84
REMARK   35  A    between atoms: C_73  and  C_74
REMARK   36  A    between atoms: C_74  and  C_75
REMARK   37  A    between atoms: C_77  and  C_83
REMARK   38  A    between atoms: C_79  and  O_81
REMARK   39  A    between atoms: O_81  and  C_82
REMARK   40  A    between atoms: O_90  and  C_91
REMARK                            x       y       z     vdW  Elec       q    Type
REMARK                         _______ _______ _______ _____ _____    ______ ____
ROOT
ATOM      1  C   UNL     1     154.864 165.238 188.496  0.00  0.00    +0.113 C 
ATOM      2  O   UNL     1     156.063 165.535 187.733  0.00  0.00    -0.458 OA
ATOM      3  C   UNL     1     155.852 166.280 186.615  0.00  0.00    +0.332 C 
ATOM      4  O   UNL     1     154.791 166.789 186.280  0.00  0.00    -0.246 OA
ATOM      5  C   UNL     1     157.036 166.425 185.763  0.00  0.00    +0.023 C 
ATOM      6  C   UNL     1     158.318 166.332 186.144  0.00  0.00    -0.052 C 
ATOM      7  C   UNL     1     159.410 166.624 185.220  0.00  0.00    -0.054 C 
ATOM      8  C   UNL     1     159.349 167.713 184.426  0.00  0.00    -0.079 C 
ATOM      9  C   UNL     1     160.310 168.149 183.361  0.00  0.00    -0.008 C 
ATOM     10  C   UNL     1     160.228 167.416 182.003  0.00  0.00    +0.061 C 
ATOM     11  C   UNL     1     158.921 166.691 181.656  0.00  0.00    +0.003 C 
ATOM     12  C   UNL     1     157.730 167.496 181.110  0.00  0.00    +0.080 C 
ATOM     13  O   UNL     1     156.702 166.500 180.928  0.00  0.00    -0.369 OA
ATOM     14  C   UNL     1     155.361 166.997 180.768  0.00  0.00    +0.065 C 
ATOM     15  C   UNL     1     155.230 167.729 179.422  0.00  0.00    +0.000 C 
ATOM     16  C   UNL     1     153.791 168.065 178.984  0.00  0.00    +0.066 C 
ATOM     17  C   UNL     1     153.792 168.624 177.531  0.00  0.00    +0.009 C 
ATOM     18  C   UNL     1     154.171 170.128 177.403  0.00  0.00    +0.063 C 
ATOM     19  C   UNL     1     155.028 170.441 176.153  0.00  0.00    -0.000 C 
ATOM     20  C   UNL     1     156.412 169.753 176.199  0.00  0.00    +0.064 C 
ATOM     21  C   UNL     1     157.578 170.687 175.775  0.00  0.00    +0.020 C 
ATOM     22  C   UNL     1     158.953 170.339 176.451  0.00  0.00    +0.113 C 
ATOM     23  O   UNL     1     158.932 169.040 177.071  0.00  0.00    -0.458 OA
ATOM     24  C   UNL     1     159.234 167.979 176.285  0.00  0.00    +0.332 C 
ATOM     25  O   UNL     1     159.735 168.013 175.172  0.00  0.00    -0.246 OA
ATOM     26  C   UNL     1     158.827 166.757 177.008  0.00  0.00    +0.023 C 
ATOM     27  C   UNL     1     158.962 165.556 176.427  0.00  0.00    -0.052 C 
ATOM     28  C   UNL     1     158.555 164.291 177.025  0.00  0.00    -0.054 C 
ATOM     29  C   UNL     1     157.375 164.164 177.666  0.00  0.00    -0.079 C 
ATOM     30  C   UNL     1     156.802 162.909 178.272  0.00  0.00    -0.008 C 
ATOM     31  C   UNL     1     157.180 162.757 179.759  0.00  0.00    +0.061 C 
ATOM     32  C   UNL     1     155.995 163.056 180.691  0.00  0.00    +0.003 C 
ATOM     33  C   UNL     1     156.408 163.203 182.166  0.00  0.00    +0.080 C 
ATOM     34  O   UNL     1     155.396 163.927 182.897  0.00  0.00    -0.369 OA
ATOM     35  C   UNL     1     154.313 163.117 183.394  0.00  0.00    +0.065 C 
ATOM     36  C   UNL     1     153.310 164.085 184.057  0.00  0.00    +0.000 C 
ATOM     37  C   UNL     1     152.091 163.411 184.721  0.00  0.00    +0.066 C 
ATOM     38  C   UNL     1     151.149 164.442 185.414  0.00  0.00    +0.009 C 
ATOM     39  C   UNL     1     151.770 165.249 186.588  0.00  0.00    +0.063 C 
ATOM     40  C   UNL     1     151.790 164.665 188.017  0.00  0.00    -0.000 C 
ATOM     41  C   UNL     1     152.830 163.593 188.375  0.00  0.00    +0.064 C 
ATOM     42  C   UNL     1     154.290 163.888 187.965  0.00  0.00    +0.020 C 
ATOM     43  C   UNL     1     154.874 162.097 184.397  0.00  0.00    -0.008 C 
ATOM     44  C   UNL     1     156.062 161.375 183.851  0.00  0.00    -0.083 C 
ATOM     45  C   UNL     1     156.757 161.893 182.833  0.00  0.00    -0.059 C 
ATOM     46  C   UNL     1     154.959 167.803 182.011  0.00  0.00    -0.008 C 
ATOM     47  C   UNL     1     156.008 168.797 182.393  0.00  0.00    -0.083 C 
ATOM     48  C   UNL     1     157.270 168.648 181.963  0.00  0.00    -0.059 C 
ATOM     49  H   UNL     1     154.117 166.006 188.266  0.00  0.00    +0.074 HD
ATOM     50  H   UNL     1     156.775 166.702 184.744  0.00  0.00    +0.069 HD
ATOM     51  H   UNL     1     158.586 166.045 187.157  0.00  0.00    +0.062 HD
ATOM     52  H   UNL     1     158.494 168.382 184.531  0.00  0.00    +0.058 HD
ATOM     53  H   UNL     1     161.338 168.080 183.738  0.00  0.00    +0.033 HD
ATOM     54  H   UNL     1     160.163 169.225 183.202  0.00  0.00    +0.033 HD
ATOM     55  H   UNL     1     161.014 166.648 182.016  0.00  0.00    +0.060 HD
ATOM     56  H   UNL     1     158.594 166.060 182.492  0.00  0.00    +0.032 HD
ATOM     57  H   UNL     1     159.164 165.961 180.867  0.00  0.00    +0.032 HD
ATOM     58  H   UNL     1     157.995 167.884 180.121  0.00  0.00    +0.064 HD
ATOM     59  H   UNL     1     154.725 166.107 180.735  0.00  0.00    +0.060 HD
ATOM     60  H   UNL     1     155.689 167.079 178.665  0.00  0.00    +0.032 HD
ATOM     61  H   UNL     1     155.841 168.632 179.433  0.00  0.00    +0.032 HD
ATOM     62  H   UNL     1     153.340 168.796 179.666  0.00  0.00    +0.060 HD
ATOM     63  H   UNL     1     154.510 168.019 176.965  0.00  0.00    +0.035 HD
ATOM     64  H   UNL     1     153.244 170.711 177.326  0.00  0.00    +0.060 HD
ATOM     65  H   UNL     1     155.161 171.529 176.128  0.00  0.00    +0.032 HD
ATOM     66  H   UNL     1     154.480 170.153 175.249  0.00  0.00    +0.032 HD
ATOM     67  H   UNL     1     156.585 169.408 177.217  0.00  0.00    +0.060 HD
ATOM     68  H   UNL     1     157.316 171.707 176.077  0.00  0.00    +0.036 HD
ATOM     69  H   UNL     1     159.740 170.326 175.685  0.00  0.00    +0.074 HD
ATOM     70  H   UNL     1     158.385 166.887 177.986  0.00  0.00    +0.069 HD
ATOM     71  H   UNL     1     159.411 165.488 175.435  0.00  0.00    +0.062 HD
ATOM     72  H   UNL     1     156.722 165.032 177.759  0.00  0.00    +0.058 HD
ATOM     73  H   UNL     1     155.711 162.942 178.150  0.00  0.00    +0.033 HD
ATOM     74  H   UNL     1     157.119 162.034 177.693  0.00  0.00    +0.033 HD
ATOM     75  H   UNL     1     158.019 163.417 180.012  0.00  0.00    +0.060 HD
ATOM     76  H   UNL     1     155.505 163.981 180.371  0.00  0.00    +0.032 HD
ATOM     77  H   UNL     1     155.240 162.262 180.599  0.00  0.00    +0.032 HD
ATOM     78  H   UNL     1     157.296 163.844 182.215  0.00  0.00    +0.064 HD
ATOM     79  H   UNL     1     153.830 162.611 182.548  0.00  0.00    +0.060 HD
ATOM     80  H   UNL     1     153.861 164.700 184.773  0.00  0.00    +0.032 HD
ATOM     81  H   UNL     1     152.964 164.783 183.282  0.00  0.00    +0.032 HD
ATOM     82  H   UNL     1     152.429 162.672 185.447  0.00  0.00    +0.060 HD
ATOM     83  H   UNL     1     150.887 165.173 184.634  0.00  0.00    +0.035 HD
ATOM     84  H   UNL     1     152.769 165.580 186.323  0.00  0.00    +0.060 HD
ATOM     85  H   UNL     1     150.789 164.284 188.258  0.00  0.00    +0.032 HD
ATOM     86  H   UNL     1     151.930 165.502 188.715  0.00  0.00    +0.032 HD
ATOM     87  H   UNL     1     152.789 163.448 189.462  0.00  0.00    +0.060 HD
ATOM     88  H   UNL     1     154.291 163.976 186.873  0.00  0.00    +0.036 HD
ATOM     89  H   UNL     1     154.110 161.366 184.675  0.00  0.00    +0.033 HD
ATOM     90  H   UNL     1     155.203 162.606 185.305  0.00  0.00    +0.033 HD
ATOM     91  H   UNL     1     156.364 160.437 184.308  0.00  0.00    +0.057 HD
ATOM     92  H   UNL     1     157.618 161.352 182.450  0.00  0.00    +0.059 HD
ATOM     93  H   UNL     1     154.829 167.120 182.860  0.00  0.00    +0.033 HD
ATOM     94  H   UNL     1     154.002 168.307 181.854  0.00  0.00    +0.033 HD
ATOM     95  H   UNL     1     155.724 169.648 183.004  0.00  0.00    +0.057 HD
ATOM     96  H   UNL     1     157.996 169.421 182.184  0.00  0.00    +0.059 HD
ENDROOT
BRANCH  28  97
ATOM     97  C   UNL     1     159.542 163.176 176.809  0.00  0.00    -0.040 C 
ATOM     98  H   UNL     1     160.549 163.418 177.157  0.00  0.00    +0.028 HD
ATOM     99  H   UNL     1     159.218 162.269 177.332  0.00  0.00    +0.028 HD
ATOM    100  H   UNL     1     159.627 162.947 175.740  0.00  0.00    +0.028 HD
ENDBRANCH  28  97
BRANCH  21 101
ATOM    101  C   UNL     1     157.748 170.762 174.251  0.00  0.00    -0.057 C 
ATOM    102  H   UNL     1     158.767 171.040 173.966  0.00  0.00    +0.023 HD
ATOM    103  H   UNL     1     157.071 171.510 173.825  0.00  0.00    +0.023 HD
ATOM    104  H   UNL     1     157.510 169.802 173.782  0.00  0.00    +0.023 HD
ENDBRANCH  21 101
BRANCH  42 105
ATOM    105  C   UNL     1     155.200 162.673 188.212  0.00  0.00    -0.057 C 
ATOM    106  H   UNL     1     156.230 162.899 187.915  0.00  0.00    +0.023 HD
ATOM    107  H   UNL     1     155.224 162.389 189.270  0.00  0.00    +0.023 HD
ATOM    108  H   UNL     1     154.901 161.809 187.614  0.00  0.00    +0.023 HD
ENDBRANCH  42 105
BRANCH  17 109
ATOM    109  C   UNL     1     152.454 168.394 176.804  0.00  0.00    -0.058 C 
ATOM    110  H   UNL     1     151.607 168.702 177.424  0.00  0.00    +0.023 HD
ATOM    111  H   UNL     1     152.320 167.342 176.535  0.00  0.00    +0.023 HD
ATOM    112  H   UNL     1     152.413 168.966 175.870  0.00  0.00    +0.023 HD
ENDBRANCH  17 109
BRANCH  38 113
ATOM    113  C   UNL     1     149.800 163.824 185.816  0.00  0.00    -0.058 C 
ATOM    114  H   UNL     1     149.724 162.782 185.492  0.00  0.00    +0.023 HD
ATOM    115  H   UNL     1     149.658 163.858 186.902  0.00  0.00    +0.023 HD
ATOM    116  H   UNL     1     148.966 164.379 185.373  0.00  0.00    +0.023 HD
ENDBRANCH  38 113
BRANCH   7 117
ATOM    117  C   UNL     1     160.539 165.636 185.222  0.00  0.00    -0.040 C 
ATOM    118  H   UNL     1     160.265 164.755 185.808  0.00  0.00    +0.028 HD
ATOM    119  H   UNL     1     161.455 166.045 185.655  0.00  0.00    +0.028 HD
ATOM    120  H   UNL     1     160.779 165.313 184.203  0.00  0.00    +0.028 HD
ENDBRANCH   7 117
BRANCH   1 121
ATOM    121  C   UNL     1     155.108 165.418 190.025  0.00  0.00    +0.020 C 
ATOM    122  H   UNL     1     154.827 164.467 190.493  0.00  0.00    +0.036 HD
BRANCH 121 123
ATOM    123  C   UNL     1     156.553 165.670 190.449  0.00  0.00    -0.057 C 
ATOM    124  H   UNL     1     156.792 166.735 190.479  0.00  0.00    +0.023 HD
ATOM    125  H   UNL     1     156.752 165.234 191.432  0.00  0.00    +0.023 HD
ATOM    126  H   UNL     1     157.255 165.170 189.779  0.00  0.00    +0.023 HD
ENDBRANCH 121 123
BRANCH 121 127
ATOM    127  C   UNL     1     154.142 166.503 190.610  0.00  0.00    +0.064 C 
ATOM    128  H   UNL     1     154.774 167.324 190.971  0.00  0.00    +0.060 HD
BRANCH 127 129
ATOM    129  C   UNL     1     153.172 166.056 191.754  0.00  0.00    -0.017 C 
ATOM    130  H   UNL     1     153.325 164.992 191.950  0.00  0.00    +0.032 HD
BRANCH 129 131
ATOM    131  C   UNL     1     153.558 166.796 193.047  0.00  0.00    -0.060 C 
ATOM    132  H   UNL     1     154.576 166.543 193.362  0.00  0.00    +0.023 HD
ATOM    133  H   UNL     1     152.877 166.535 193.865  0.00  0.00    +0.023 HD
ATOM    134  H   UNL     1     153.499 167.881 192.918  0.00  0.00    +0.023 HD
ENDBRANCH 129 131
BRANCH 129 135
ATOM    135  C   UNL     1     151.677 166.301 191.441  0.00  0.00    -0.046 C 
ATOM    136  H   UNL     1     151.086 165.417 191.696  0.00  0.00    +0.027 HD
ATOM    137  H   UNL     1     151.550 166.440 190.359  0.00  0.00    +0.027 HD
BRANCH 135 138
ATOM    138  C   UNL     1     151.029 167.513 192.134  0.00  0.00    -0.026 C 
ATOM    139  H   UNL     1     150.617 168.144 191.333  0.00  0.00    +0.029 HD
ATOM    140  H   UNL     1     151.797 168.117 192.633  0.00  0.00    +0.029 HD
BRANCH 138 143
ATOM    141  C   UNL     1     149.452 165.666 194.965  0.00  0.00    +0.059 C 
ATOM    142  O   UNL     1     150.421 166.328 194.143  0.00  0.00    -0.373 OA
ATOM    143  C   UNL     1     149.900 167.180 193.122  0.00  0.00    +0.061 C 
ATOM    144  C   UNL     1     148.734 166.511 192.390  0.00  0.00    -0.000 C 
ATOM    145  C   UNL     1     147.598 166.151 193.355  0.00  0.00    +0.063 C 
ATOM    146  C   UNL     1     148.046 166.234 194.814  0.00  0.00    -0.000 C 
ATOM    147  H   UNL     1     149.452 164.611 194.665  0.00  0.00    +0.059 HD
ATOM    148  H   UNL     1     149.556 168.111 193.587  0.00  0.00    +0.060 HD
ATOM    149  H   UNL     1     148.385 167.154 191.575  0.00  0.00    +0.032 HD
ATOM    150  H   UNL     1     149.096 165.577 191.941  0.00  0.00    +0.032 HD
ATOM    151  H   UNL     1     147.259 165.126 193.152  0.00  0.00    +0.060 HD
ATOM    152  H   UNL     1     147.332 165.697 195.450  0.00  0.00    +0.032 HD
ATOM    153  H   UNL     1     148.023 167.276 195.153  0.00  0.00    +0.032 HD
BRANCH 141 154
ATOM    154  C   UNL     1     149.928 165.753 196.408  0.00  0.00    -0.039 C 
ATOM    155  H   UNL     1     150.927 166.195 196.470  0.00  0.00    +0.025 HD
ATOM    156  H   UNL     1     149.240 166.361 197.005  0.00  0.00    +0.025 HD
ATOM    157  H   UNL     1     149.957 164.761 196.870  0.00  0.00    +0.025 HD
ENDBRANCH 141 154
BRANCH 145 158
ATOM    158  O   UNL     1     146.489 167.045 193.199  0.00  0.00    -0.380 OA
BRANCH 158 159
ATOM    159  C   UNL     1     145.229 166.387 193.223  0.00  0.00    +0.037 C 
ATOM    160  H   UNL     1     145.344 165.415 192.733  0.00  0.00    +0.052 HD
ATOM    161  H   UNL     1     144.885 166.220 194.247  0.00  0.00    +0.052 HD
ATOM    162  H   UNL     1     144.488 166.970 192.669  0.00  0.00    +0.052 HD
ENDBRANCH 158 159
ENDBRANCH 145 158
ENDBRANCH 138 143
ENDBRANCH 135 138
ENDBRANCH 129 135
ENDBRANCH 127 129
BRANCH 127 163
ATOM    163  O   UNL     1     153.398 167.054 189.515  0.00  0.00    -0.391 OA
ATOM    164  H   UNL     1     154.029 167.536 188.953  0.00  0.00    +0.210 HD
ENDBRANCH 127 163
ENDBRANCH 121 127
ENDBRANCH   1 121
BRANCH  41 165
ATOM    165  O   UNL     1     152.403 162.359 187.790  0.00  0.00    -0.391 OA
ATOM    166  H   UNL     1     151.655 162.031 188.316  0.00  0.00    +0.210 HD
ENDBRANCH  41 165
BRANCH  39 167
ATOM    167  O   UNL     1     151.000 166.469 186.706  0.00  0.00    -0.391 OA
ATOM    168  H   UNL     1     150.357 166.323 187.421  0.00  0.00    +0.210 HD
ENDBRANCH  39 167
BRANCH  31 169
ATOM    169  O   UNL     1     157.632 161.416 179.973  0.00  0.00    -0.391 OA
ATOM    170  H   UNL     1     156.847 160.877 180.180  0.00  0.00    +0.210 HD
ENDBRANCH  31 169
BRANCH  22 171
ATOM    171  C   UNL     1     159.409 171.414 177.512  0.00  0.00    +0.020 C 
ATOM    172  H   UNL     1     160.262 170.974 178.044  0.00  0.00    +0.036 HD
BRANCH 171 173
ATOM    173  C   UNL     1     159.903 172.649 176.728  0.00  0.00    -0.057 C 
ATOM    174  H   UNL     1     159.572 172.625 175.685  0.00  0.00    +0.023 HD
ATOM    175  H   UNL     1     159.538 173.582 177.170  0.00  0.00    +0.023 HD
ATOM    176  H   UNL     1     160.990 172.701 176.676  0.00  0.00    +0.023 HD
ENDBRANCH 171 173
BRANCH 171 177
ATOM    177  C   UNL     1     158.330 171.778 178.586  0.00  0.00    +0.064 C 
ATOM    178  H   UNL     1     157.513 172.316 178.088  0.00  0.00    +0.060 HD
BRANCH 177 179
ATOM    179  O   UNL     1     157.790 170.563 179.105  0.00  0.00    -0.391 OA
ATOM    180  H   UNL     1     157.574 170.690 180.052  0.00  0.00    +0.210 HD
ENDBRANCH 177 179
BRANCH 177 181
ATOM    181  C   UNL     1     158.778 172.610 179.831  0.00  0.00    -0.017 C 
ATOM    182  H   UNL     1     158.121 172.344 180.670  0.00  0.00    +0.032 HD
BRANCH 181 183
ATOM    183  C   UNL     1     160.216 172.354 180.277  0.00  0.00    -0.060 C 
ATOM    184  H   UNL     1     160.872 173.157 179.932  0.00  0.00    +0.023 HD
ATOM    185  H   UNL     1     160.637 171.449 179.830  0.00  0.00    +0.023 HD
ATOM    186  H   UNL     1     160.288 172.259 181.365  0.00  0.00    +0.023 HD
ENDBRANCH 181 183
BRANCH 181 187
ATOM    187  C   UNL     1     158.533 174.123 179.545  0.00  0.00    -0.046 C 
ATOM    188  H   UNL     1     158.029 174.225 178.576  0.00  0.00    +0.027 HD
ATOM    189  H   UNL     1     159.500 174.634 179.450  0.00  0.00    +0.027 HD
BRANCH 187 190
ATOM    190  C   UNL     1     157.690 174.852 180.602  0.00  0.00    -0.026 C 
ATOM    191  H   UNL     1     158.314 175.570 181.146  0.00  0.00    +0.029 HD
ATOM    192  H   UNL     1     156.900 175.413 180.086  0.00  0.00    +0.029 HD
BRANCH 190 193
ATOM    193  C   UNL     1     157.024 173.895 181.604  0.00  0.00    +0.061 C 
ATOM    194  O   UNL     1     155.636 174.230 181.699  0.00  0.00    -0.373 OA
ATOM    195  C   UNL     1     154.889 173.397 182.590  0.00  0.00    +0.059 C 
ATOM    196  C   UNL     1     155.485 173.420 184.001  0.00  0.00    -0.000 C 
ATOM    197  C   UNL     1     156.993 173.162 184.023  0.00  0.00    +0.063 C 
ATOM    198  C   UNL     1     157.690 174.029 182.975  0.00  0.00    -0.000 C 
ATOM    199  H   UNL     1     157.132 172.873 181.221  0.00  0.00    +0.060 HD
ATOM    200  H   UNL     1     153.893 173.855 182.654  0.00  0.00    +0.059 HD
ATOM    201  H   UNL     1     154.945 172.720 184.645  0.00  0.00    +0.032 HD
ATOM    202  H   UNL     1     155.324 174.426 184.413  0.00  0.00    +0.032 HD
ATOM    203  H   UNL     1     157.400 173.421 185.009  0.00  0.00    +0.060 HD
ATOM    204  H   UNL     1     158.749 173.753 182.902  0.00  0.00    +0.032 HD
ATOM    205  H   UNL     1     157.636 175.074 183.307  0.00  0.00    +0.032 HD
BRANCH 195 206
ATOM    206  C   UNL     1     154.677 171.996 182.020  0.00  0.00    -0.039 C 
ATOM    207  H   UNL     1     155.606 171.418 182.088  0.00  0.00    +0.025 HD
ATOM    208  H   UNL     1     154.375 172.045 180.970  0.00  0.00    +0.025 HD
ATOM    209  H   UNL     1     153.921 171.424 182.562  0.00  0.00    +0.025 HD
ENDBRANCH 195 206
BRANCH 197 210
ATOM    210  O   UNL     1     157.304 171.793 183.742  0.00  0.00    -0.380 OA
BRANCH 210 211
ATOM    211  C   UNL     1     158.677 171.475 183.921  0.00  0.00    +0.037 C 
ATOM    212  H   UNL     1     159.209 172.393 184.181  0.00  0.00    +0.052 HD
ATOM    213  H   UNL     1     158.798 170.761 184.741  0.00  0.00    +0.052 HD
ATOM    214  H   UNL     1     159.115 171.071 183.004  0.00  0.00    +0.052 HD
ENDBRANCH 210 211
ENDBRANCH 197 210
ENDBRANCH 190 193
ENDBRANCH 187 190
ENDBRANCH 181 187
ENDBRANCH 177 181
ENDBRANCH 171 177
ENDBRANCH  22 171
BRANCH  20 215
ATOM    215  O   UNL     1     156.371 168.569 175.399  0.00  0.00    -0.391 OA
ATOM    216  H   UNL     1     157.008 167.924 175.749  0.00  0.00    +0.210 HD
ENDBRANCH  20 215
BRANCH  18 217
ATOM    217  O   UNL     1     154.850 170.645 178.551  0.00  0.00    -0.391 OA
ATOM    218  H   UNL     1     154.662 171.602 178.584  0.00  0.00    +0.210 HD
ENDBRANCH  18 217
BRANCH  10 219
ATOM    219  O   UNL     1     160.588 168.336 180.971  0.00  0.00    -0.391 OA
ATOM    220  H   UNL     1     161.316 168.892 181.298  0.00  0.00    +0.210 HD
ENDBRANCH  10 219
BRANCH  37 221
ATOM    221  O   UNL     1     151.364 162.772 183.655  0.00  0.00    -0.379 OA
BRANCH 221 222
ATOM    222  C   UNL     1     151.019 163.654 182.596  0.00  0.00    +0.037 C 
ATOM    223  H   UNL     1     149.935 163.793 182.608  0.00  0.00    +0.052 HD
ATOM    224  H   UNL     1     151.491 164.628 182.749  0.00  0.00    +0.052 HD
ATOM    225  H   UNL     1     151.308 163.247 181.622  0.00  0.00    +0.052 HD
ENDBRANCH 221 222
ENDBRANCH  37 221
BRANCH  16 226
ATOM    226  O   UNL     1     153.052 166.831 179.006  0.00  0.00    -0.379 OA
BRANCH 226 227
ATOM    227  C   UNL     1     151.954 166.847 179.912  0.00  0.00    +0.037 C 
ATOM    228  H   UNL     1     151.736 165.818 180.208  0.00  0.00    +0.052 HD
ATOM    229  H   UNL     1     152.204 167.421 180.809  0.00  0.00    +0.052 HD
ATOM    230  H   UNL     1     151.064 167.268 179.434  0.00  0.00    +0.052 HD
ENDBRANCH 226 227
ENDBRANCH  16 226
TORSDOF 40
ENDMDL
MODEL 4
REMARK VINA RESULT:      -5.4      9.752     17.083
REMARK  Name = Swinholide A_conf3
REMARK  40 active torsions:
REMARK  status: ('A' for Active; 'I' for Inactive)
REMARK    1  A    between atoms: C_1  and  C_2
REMARK    2  A    between atoms: C_4  and  C_10
REMARK    3  A    between atoms: C_6  and  O_8
REMARK    4  A    between atoms: O_8  and  C_9
REMARK    5  A    between atoms: C_10  and  C_11
REMARK    6  A    between atoms: C_11  and  C_12
REMARK    7  A    between atoms: C_12  and  C_13
REMARK    8  A    between atoms: C_12  and  C_98
REMARK    9  A    between atoms: C_13  and  O_14
REMARK   10  A    between atoms: C_13  and  C_15
REMARK   11  A    between atoms: C_15  and  C_16
REMARK   12  A    between atoms: C_15  and  C_97
REMARK   13  A    between atoms: C_22  and  C_96
REMARK   14  A    between atoms: C_25  and  O_95
REMARK   15  A    between atoms: C_31  and  O_90
REMARK   16  A    between atoms: C_32  and  C_89
REMARK   17  A    between atoms: C_33  and  O_88
REMARK   18  A    between atoms: C_35  and  O_87
REMARK   19  A    between atoms: C_36  and  C_86
REMARK   20  A    between atoms: C_37  and  C_69
REMARK   21  A    between atoms: C_43  and  C_68
REMARK   22  A    between atoms: C_46  and  O_67
REMARK   23  A    between atoms: C_52  and  O_62
REMARK   24  A    between atoms: C_53  and  C_61
REMARK   25  A    between atoms: C_54  and  O_60
REMARK   26  A    between atoms: C_56  and  O_59
REMARK   27  A    between atoms: C_57  and  C_58
REMARK   28  A    between atoms: O_62  and  C_63
REMARK   29  A    between atoms: C_69  and  C_70
REMARK   30  A    between atoms: C_69  and  C_85
REMARK   31  A    between atoms: C_70  and  O_71
REMARK   32  A    between atoms: C_70  and  C_72
REMARK   33  A    between atoms: C_72  and  C_73
REMARK   34  A    between atoms: C_72  and  C_84
REMARK   35  A    between atoms: C_73  and  C_74
REMARK   36  A    between atoms: C_74  and  C_75
REMARK   37  A    between atoms: C_77  and  C_83
REMARK   38  A    between atoms: C_79  and  O_81
REMARK   39  A    between atoms: O_81  and  C_82
REMARK   40  A    between atoms: O_90  and  C_91
REMARK                            x       y       z     vdW  Elec       q    Type
REMARK                         _______ _______ _______ _____ _____    ______ ____
ROOT
ATOM      1  C   UNL     1     142.484 179.169 188.007  0.00  0.00    +0.113 C 
ATOM      2  O   UNL     1     141.845 178.068 188.706  0.00  0.00    -0.458 OA
ATOM      3  C   UNL     1     142.596 176.937 188.787  0.00  0.00    +0.332 C 
ATOM      4  O   UNL     1     143.760 176.820 188.429  0.00  0.00    -0.246 OA
ATOM      5  C   UNL     1     141.879 175.783 189.337  0.00  0.00    +0.023 C 
ATOM      6  C   UNL     1     140.813 175.810 190.150  0.00  0.00    -0.052 C 
ATOM      7  C   UNL     1     140.267 174.588 190.732  0.00  0.00    -0.054 C 
ATOM      8  C   UNL     1     141.096 173.663 191.257  0.00  0.00    -0.079 C 
ATOM      9  C   UNL     1     140.756 172.317 191.824  0.00  0.00    -0.008 C 
ATOM     10  C   UNL     1     140.475 171.183 190.812  0.00  0.00    +0.061 C 
ATOM     11  C   UNL     1     141.027 171.337 189.389  0.00  0.00    +0.003 C 
ATOM     12  C   UNL     1     142.502 171.005 189.108  0.00  0.00    +0.080 C 
ATOM     13  O   UNL     1     142.652 171.287 187.700  0.00  0.00    -0.369 OA
ATOM     14  C   UNL     1     144.002 171.414 187.221  0.00  0.00    +0.065 C 
ATOM     15  C   UNL     1     144.707 170.047 187.271  0.00  0.00    +0.000 C 
ATOM     16  C   UNL     1     146.054 169.966 186.526  0.00  0.00    +0.066 C 
ATOM     17  C   UNL     1     146.558 168.493 186.493  0.00  0.00    +0.009 C 
ATOM     18  C   UNL     1     147.258 168.006 187.794  0.00  0.00    +0.063 C 
ATOM     19  C   UNL     1     146.935 166.535 188.152  0.00  0.00    -0.000 C 
ATOM     20  C   UNL     1     145.439 166.322 188.479  0.00  0.00    +0.064 C 
ATOM     21  C   UNL     1     145.205 165.440 189.736  0.00  0.00    +0.020 C 
ATOM     22  C   UNL     1     143.875 165.766 190.506  0.00  0.00    +0.113 C 
ATOM     23  O   UNL     1     142.989 166.586 189.722  0.00  0.00    -0.458 OA
ATOM     24  C   UNL     1     142.150 165.945 188.872  0.00  0.00    +0.332 C 
ATOM     25  O   UNL     1     141.902 164.750 188.851  0.00  0.00    -0.246 OA
ATOM     26  C   UNL     1     141.595 166.954 187.947  0.00  0.00    +0.023 C 
ATOM     27  C   UNL     1     140.771 166.578 186.957  0.00  0.00    -0.052 C 
ATOM     28  C   UNL     1     140.202 167.476 185.962  0.00  0.00    -0.054 C 
ATOM     29  C   UNL     1     140.948 168.426 185.362  0.00  0.00    -0.079 C 
ATOM     30  C   UNL     1     140.509 169.376 184.278  0.00  0.00    -0.008 C 
ATOM     31  C   UNL     1     139.981 170.706 184.849  0.00  0.00    +0.061 C 
ATOM     32  C   UNL     1     140.978 171.858 184.652  0.00  0.00    +0.003 C 
ATOM     33  C   UNL     1     140.617 173.115 185.463  0.00  0.00    +0.080 C 
ATOM     34  O   UNL     1     141.779 173.956 185.623  0.00  0.00    -0.369 OA
ATOM     35  C   UNL     1     142.025 174.863 184.531  0.00  0.00    +0.065 C 
ATOM     36  C   UNL     1     143.345 175.594 184.856  0.00  0.00    +0.000 C 
ATOM     37  C   UNL     1     143.765 176.672 183.835  0.00  0.00    +0.066 C 
ATOM     38  C   UNL     1     145.077 177.404 184.252  0.00  0.00    +0.009 C 
ATOM     39  C   UNL     1     145.015 178.204 185.584  0.00  0.00    +0.063 C 
ATOM     40  C   UNL     1     144.483 179.653 185.603  0.00  0.00    -0.000 C 
ATOM     41  C   UNL     1     142.968 179.896 185.538  0.00  0.00    +0.064 C 
ATOM     42  C   UNL     1     142.095 179.059 186.500  0.00  0.00    +0.020 C 
ATOM     43  C   UNL     1     140.842 175.838 184.418  0.00  0.00    -0.008 C 
ATOM     44  C   UNL     1     139.530 175.124 184.422  0.00  0.00    -0.083 C 
ATOM     45  C   UNL     1     139.440 173.880 184.906  0.00  0.00    -0.059 C 
ATOM     46  C   UNL     1     144.707 172.558 187.963  0.00  0.00    -0.008 C 
ATOM     47  C   UNL     1     144.521 172.459 189.443  0.00  0.00    -0.083 C 
ATOM     48  C   UNL     1     143.513 171.735 189.951  0.00  0.00    -0.059 C 
ATOM     49  H   UNL     1     143.569 179.020 188.060  0.00  0.00    +0.074 HD
ATOM     50  H   UNL     1     142.355 174.842 189.073  0.00  0.00    +0.069 HD
ATOM     51  H   UNL     1     140.325 176.747 190.409  0.00  0.00    +0.062 HD
ATOM     52  H   UNL     1     142.164 173.878 191.277  0.00  0.00    +0.058 HD
ATOM     53  H   UNL     1     139.897 172.406 192.502  0.00  0.00    +0.033 HD
ATOM     54  H   UNL     1     141.580 172.018 192.485  0.00  0.00    +0.033 HD
ATOM     55  H   UNL     1     139.383 171.115 190.715  0.00  0.00    +0.060 HD
ATOM     56  H   UNL     1     140.785 172.328 188.984  0.00  0.00    +0.032 HD
ATOM     57  H   UNL     1     140.448 170.653 188.749  0.00  0.00    +0.032 HD
ATOM     58  H   UNL     1     142.650 169.929 189.248  0.00  0.00    +0.064 HD
ATOM     59  H   UNL     1     143.910 171.712 186.172  0.00  0.00    +0.060 HD
ATOM     60  H   UNL     1     144.013 169.321 186.828  0.00  0.00    +0.032 HD
ATOM     61  H   UNL     1     144.829 169.733 188.307  0.00  0.00    +0.032 HD
ATOM     62  H   UNL     1     146.803 170.606 187.011  0.00  0.00    +0.060 HD
ATOM     63  H   UNL     1     145.679 167.868 186.297  0.00  0.00    +0.035 HD
ATOM     64  H   UNL     1     148.344 168.083 187.651  0.00  0.00    +0.060 HD
ATOM     65  H   UNL     1     147.542 166.284 189.029  0.00  0.00    +0.032 HD
ATOM     66  H   UNL     1     147.251 165.879 187.332  0.00  0.00    +0.032 HD
ATOM     67  H   UNL     1     144.986 167.298 188.641  0.00  0.00    +0.060 HD
ATOM     68  H   UNL     1     146.034 165.618 190.429  0.00  0.00    +0.036 HD
ATOM     69  H   UNL     1     143.346 164.828 190.728  0.00  0.00    +0.074 HD
ATOM     70  H   UNL     1     141.918 167.977 188.081  0.00  0.00    +0.069 HD
ATOM     71  H   UNL     1     140.486 165.529 186.868  0.00  0.00    +0.062 HD
ATOM     72  H   UNL     1     141.995 168.540 185.645  0.00  0.00    +0.058 HD
ATOM     73  H   UNL     1     141.367 169.552 183.615  0.00  0.00    +0.033 HD
ATOM     74  H   UNL     1     139.760 168.895 183.639  0.00  0.00    +0.033 HD
ATOM     75  H   UNL     1     139.749 170.601 185.916  0.00  0.00    +0.060 HD
ATOM     76  H   UNL     1     141.979 171.527 184.948  0.00  0.00    +0.032 HD
ATOM     77  H   UNL     1     141.044 172.116 183.586  0.00  0.00    +0.032 HD
ATOM     78  H   UNL     1     140.357 172.807 186.483  0.00  0.00    +0.064 HD
ATOM     79  H   UNL     1     142.144 174.283 183.607  0.00  0.00    +0.060 HD
ATOM     80  H   UNL     1     143.256 176.014 185.861  0.00  0.00    +0.032 HD
ATOM     81  H   UNL     1     144.134 174.833 184.927  0.00  0.00    +0.032 HD
ATOM     82  H   UNL     1     142.960 177.397 183.712  0.00  0.00    +0.060 HD
ATOM     83  H   UNL     1     145.824 176.609 184.397  0.00  0.00    +0.035 HD
ATOM     84  H   UNL     1     144.501 177.624 186.342  0.00  0.00    +0.060 HD
ATOM     85  H   UNL     1     144.968 180.221 184.799  0.00  0.00    +0.032 HD
ATOM     86  H   UNL     1     144.851 180.129 186.523  0.00  0.00    +0.032 HD
ATOM     87  H   UNL     1     142.798 180.961 185.742  0.00  0.00    +0.060 HD
ATOM     88  H   UNL     1     142.258 178.011 186.228  0.00  0.00    +0.036 HD
ATOM     89  H   UNL     1     140.919 176.437 183.507  0.00  0.00    +0.033 HD
ATOM     90  H   UNL     1     140.835 176.518 185.272  0.00  0.00    +0.033 HD
ATOM     91  H   UNL     1     138.650 175.638 184.048  0.00  0.00    +0.057 HD
ATOM     92  H   UNL     1     138.477 173.379 184.900  0.00  0.00    +0.059 HD
ATOM     93  H   UNL     1     144.280 173.516 187.641  0.00  0.00    +0.033 HD
ATOM     94  H   UNL     1     145.772 172.582 187.718  0.00  0.00    +0.033 HD
ATOM     95  H   UNL     1     145.227 172.966 190.093  0.00  0.00    +0.057 HD
ATOM     96  H   UNL     1     143.443 171.610 191.026  0.00  0.00    +0.059 HD
ENDROOT
BRANCH  28  97
ATOM     97  C   UNL     1     138.755 167.198 185.656  0.00  0.00    -0.040 C 
ATOM     98  H   UNL     1     138.091 167.385 186.504  0.00  0.00    +0.028 HD
ATOM     99  H   UNL     1     138.412 167.820 184.821  0.00  0.00    +0.028 HD
ATOM    100  H   UNL     1     138.622 166.145 185.381  0.00  0.00    +0.028 HD
ENDBRANCH  28  97
BRANCH  21 101
ATOM    101  C   UNL     1     145.274 163.938 189.422  0.00  0.00    -0.057 C 
ATOM    102  H   UNL     1     145.841 163.387 190.179  0.00  0.00    +0.023 HD
ATOM    103  H   UNL     1     145.762 163.769 188.457  0.00  0.00    +0.023 HD
ATOM    104  H   UNL     1     144.270 163.504 189.361  0.00  0.00    +0.023 HD
ENDBRANCH  21 101
BRANCH  42 105
ATOM    105  C   UNL     1     140.597 179.258 186.217  0.00  0.00    -0.057 C 
ATOM    106  H   UNL     1     140.435 180.177 185.642  0.00  0.00    +0.023 HD
ATOM    107  H   UNL     1     140.178 178.433 185.631  0.00  0.00    +0.023 HD
ATOM    108  H   UNL     1     140.019 179.376 187.136  0.00  0.00    +0.023 HD
ENDBRANCH  42 105
BRANCH  17 109
ATOM    109  C   UNL     1     147.491 168.210 185.302  0.00  0.00    -0.058 C 
ATOM    110  H   UNL     1     147.765 167.152 185.254  0.00  0.00    +0.023 HD
ATOM    111  H   UNL     1     148.410 168.802 185.364  0.00  0.00    +0.023 HD
ATOM    112  H   UNL     1     147.008 168.476 184.354  0.00  0.00    +0.023 HD
ENDBRANCH  17 109
BRANCH  38 113
ATOM    113  C   UNL     1     145.656 178.260 183.114  0.00  0.00    -0.058 C 
ATOM    114  H   UNL     1     145.833 179.290 183.437  0.00  0.00    +0.023 HD
ATOM    115  H   UNL     1     146.604 177.845 182.753  0.00  0.00    +0.023 HD
ATOM    116  H   UNL     1     144.977 178.284 182.256  0.00  0.00    +0.023 HD
ENDBRANCH  38 113
BRANCH   7 117
ATOM    117  C   UNL     1     138.773 174.456 190.671  0.00  0.00    -0.040 C 
ATOM    118  H   UNL     1     138.380 174.185 191.654  0.00  0.00    +0.028 HD
ATOM    119  H   UNL     1     138.448 173.687 189.966  0.00  0.00    +0.028 HD
ATOM    120  H   UNL     1     138.309 175.398 190.360  0.00  0.00    +0.028 HD
ENDBRANCH   7 117
BRANCH   1 121
ATOM    121  C   UNL     1     142.267 180.517 188.758  0.00  0.00    +0.020 C 
ATOM    122  H   UNL     1     142.295 181.302 187.992  0.00  0.00    +0.036 HD
BRANCH 121 123
ATOM    123  C   UNL     1     140.923 180.684 189.462  0.00  0.00    -0.057 C 
ATOM    124  H   UNL     1     140.083 180.479 188.796  0.00  0.00    +0.023 HD
ATOM    125  H   UNL     1     140.854 180.024 190.333  0.00  0.00    +0.023 HD
ATOM    126  H   UNL     1     140.812 181.689 189.871  0.00  0.00    +0.023 HD
ENDBRANCH 121 123
BRANCH 121 127
ATOM    127  C   UNL     1     143.462 180.802 189.729  0.00  0.00    +0.064 C 
ATOM    128  H   UNL     1     143.048 181.355 190.581  0.00  0.00    +0.060 HD
BRANCH 127 129
ATOM    129  C   UNL     1     144.685 181.587 189.148  0.00  0.00    -0.017 C 
ATOM    130  H   UNL     1     144.717 181.440 188.066  0.00  0.00    +0.032 HD
BRANCH 129 131
ATOM    131  C   UNL     1     144.462 183.092 189.377  0.00  0.00    -0.060 C 
ATOM    132  H   UNL     1     145.397 183.653 189.275  0.00  0.00    +0.023 HD
ATOM    133  H   UNL     1     144.064 183.280 190.381  0.00  0.00    +0.023 HD
ATOM    134  H   UNL     1     143.738 183.500 188.665  0.00  0.00    +0.023 HD
ENDBRANCH 129 131
BRANCH 129 135
ATOM    135  C   UNL     1     146.046 181.166 189.753  0.00  0.00    -0.046 C 
ATOM    136  H   UNL     1     145.927 180.272 190.372  0.00  0.00    +0.027 HD
ATOM    137  H   UNL     1     146.401 181.952 190.433  0.00  0.00    +0.027 HD
BRANCH 135 138
ATOM    138  C   UNL     1     147.178 180.891 188.747  0.00  0.00    -0.026 C 
ATOM    139  H   UNL     1     146.732 180.308 187.929  0.00  0.00    +0.029 HD
ATOM    140  H   UNL     1     147.938 180.246 189.202  0.00  0.00    +0.029 HD
BRANCH 138 143
ATOM    141  C   UNL     1     149.942 182.798 187.122  0.00  0.00    +0.059 C 
ATOM    142  O   UNL     1     149.035 181.744 187.468  0.00  0.00    -0.373 OA
ATOM    143  C   UNL     1     147.842 182.141 188.147  0.00  0.00    +0.061 C 
ATOM    144  C   UNL     1     148.150 183.159 189.248  0.00  0.00    -0.000 C 
ATOM    145  C   UNL     1     148.830 184.410 188.680  0.00  0.00    +0.063 C 
ATOM    146  C   UNL     1     149.328 184.186 187.253  0.00  0.00    -0.000 C 
ATOM    147  H   UNL     1     150.798 182.712 187.802  0.00  0.00    +0.059 HD
ATOM    148  H   UNL     1     147.157 182.585 187.416  0.00  0.00    +0.060 HD
ATOM    149  H   UNL     1     147.234 183.407 189.794  0.00  0.00    +0.032 HD
ATOM    150  H   UNL     1     148.846 182.698 189.962  0.00  0.00    +0.032 HD
ATOM    151  H   UNL     1     149.689 184.676 189.311  0.00  0.00    +0.060 HD
ATOM    152  H   UNL     1     150.054 184.966 186.989  0.00  0.00    +0.032 HD
ATOM    153  H   UNL     1     148.499 184.300 186.546  0.00  0.00    +0.032 HD
BRANCH 141 154
ATOM    154  C   UNL     1     150.431 182.544 185.703  0.00  0.00    -0.039 C 
ATOM    155  H   UNL     1     149.634 182.132 185.076  0.00  0.00    +0.025 HD
ATOM    156  H   UNL     1     150.787 183.473 185.246  0.00  0.00    +0.025 HD
ATOM    157  H   UNL     1     151.273 181.845 185.699  0.00  0.00    +0.025 HD
ENDBRANCH 141 154
BRANCH 145 158
ATOM    158  O   UNL     1     147.921 185.517 188.644  0.00  0.00    -0.380 OA
BRANCH 158 159
ATOM    159  C   UNL     1     147.147 185.647 189.831  0.00  0.00    +0.037 C 
ATOM    160  H   UNL     1     147.246 186.677 190.189  0.00  0.00    +0.052 HD
ATOM    161  H   UNL     1     146.090 185.445 189.642  0.00  0.00    +0.052 HD
ATOM    162  H   UNL     1     147.526 184.973 190.604  0.00  0.00    +0.052 HD
ENDBRANCH 158 159
ENDBRANCH 145 158
ENDBRANCH 138 143
ENDBRANCH 135 138
ENDBRANCH 129 135
ENDBRANCH 127 129
BRANCH 127 163
ATOM    163  O   UNL     1     143.890 179.544 190.268  0.00  0.00    -0.391 OA
ATOM    164  H   UNL     1     143.623 179.528 191.204  0.00  0.00    +0.210 HD
ENDBRANCH 127 163
ENDBRANCH 121 127
ENDBRANCH   1 121
BRANCH  41 165
ATOM    165  O   UNL     1     142.548 179.675 184.189  0.00  0.00    -0.391 OA
ATOM    166  H   UNL     1     143.213 180.080 183.607  0.00  0.00    +0.210 HD
ENDBRANCH  41 165
BRANCH  39 167
ATOM    167  O   UNL     1     146.376 178.312 186.065  0.00  0.00    -0.391 OA
ATOM    168  H   UNL     1     146.331 178.261 187.036  0.00  0.00    +0.210 HD
ENDBRANCH  39 167
BRANCH  31 169
ATOM    169  O   UNL     1     138.749 171.020 184.190  0.00  0.00    -0.391 OA
ATOM    170  H   UNL     1     138.419 171.852 184.579  0.00  0.00    +0.210 HD
ENDBRANCH  31 169
BRANCH  22 171
ATOM    171  C   UNL     1     144.123 166.456 191.902  0.00  0.00    +0.020 C 
ATOM    172  H   UNL     1     143.805 167.501 191.786  0.00  0.00    +0.036 HD
BRANCH 171 173
ATOM    173  C   UNL     1     143.191 165.770 192.924  0.00  0.00    -0.057 C 
ATOM    174  H   UNL     1     143.752 165.149 193.629  0.00  0.00    +0.023 HD
ATOM    175  H   UNL     1     142.622 166.501 193.507  0.00  0.00    +0.023 HD
ATOM    176  H   UNL     1     142.484 165.089 192.451  0.00  0.00    +0.023 HD
ENDBRANCH 171 173
BRANCH 171 177
ATOM    177  C   UNL     1     145.616 166.475 192.371  0.00  0.00    +0.064 C 
ATOM    178  H   UNL     1     146.137 165.630 191.904  0.00  0.00    +0.060 HD
BRANCH 177 179
ATOM    179  O   UNL     1     146.221 167.673 191.885  0.00  0.00    -0.391 OA
ATOM    180  H   UNL     1     147.188 167.532 191.809  0.00  0.00    +0.210 HD
ENDBRANCH 177 179
BRANCH 177 181
ATOM    181  C   UNL     1     145.910 166.443 193.906  0.00  0.00    -0.017 C 
ATOM    182  H   UNL     1     145.084 166.957 194.418  0.00  0.00    +0.032 HD
BRANCH 181 183
ATOM    183  C   UNL     1     146.014 165.040 194.500  0.00  0.00    -0.060 C 
ATOM    184  H   UNL     1     145.851 164.285 193.726  0.00  0.00    +0.023 HD
ATOM    185  H   UNL     1     145.233 164.841 195.240  0.00  0.00    +0.023 HD
ATOM    186  H   UNL     1     146.983 164.878 194.979  0.00  0.00    +0.023 HD
ENDBRANCH 181 183
BRANCH 181 187
ATOM    187  C   UNL     1     147.193 167.279 194.195  0.00  0.00    -0.046 C 
ATOM    188  H   UNL     1     147.105 167.734 195.190  0.00  0.00    +0.027 HD
ATOM    189  H   UNL     1     147.254 168.107 193.477  0.00  0.00    +0.027 HD
BRANCH 187 190
ATOM    190  C   UNL     1     148.506 166.484 194.148  0.00  0.00    -0.026 C 
ATOM    191  H   UNL     1     148.874 166.311 195.166  0.00  0.00    +0.029 HD
ATOM    192  H   UNL     1     148.300 165.507 193.692  0.00  0.00    +0.029 HD
BRANCH 190 193
ATOM    193  C   UNL     1     149.601 167.179 193.323  0.00  0.00    +0.061 C 
ATOM    194  O   UNL     1     148.979 167.873 192.236  0.00  0.00    -0.373 OA
ATOM    195  C   UNL     1     149.890 168.585 191.394  0.00  0.00    +0.059 C 
ATOM    196  C   UNL     1     150.958 167.650 190.817  0.00  0.00    -0.000 C 
ATOM    197  C   UNL     1     151.637 166.783 191.879  0.00  0.00    +0.063 C 
ATOM    198  C   UNL     1     150.587 166.140 192.784  0.00  0.00    -0.000 C 
ATOM    199  H   UNL     1     150.113 167.896 193.974  0.00  0.00    +0.060 HD
ATOM    200  H   UNL     1     149.288 168.946 190.550  0.00  0.00    +0.059 HD
ATOM    201  H   UNL     1     151.685 168.227 190.240  0.00  0.00    +0.032 HD
ATOM    202  H   UNL     1     150.457 166.968 190.115  0.00  0.00    +0.032 HD
ATOM    203  H   UNL     1     152.208 165.981 191.393  0.00  0.00    +0.060 HD
ATOM    204  H   UNL     1     151.075 165.624 193.619  0.00  0.00    +0.032 HD
ATOM    205  H   UNL     1     150.042 165.391 192.196  0.00  0.00    +0.032 HD
BRANCH 195 206
ATOM    206  C   UNL     1     150.449 169.829 192.081  0.00  0.00    -0.039 C 
ATOM    207  H   UNL     1     149.749 170.665 191.973  0.00  0.00    +0.025 HD
ATOM    208  H   UNL     1     151.408 170.119 191.641  0.00  0.00    +0.025 HD
ATOM    209  H   UNL     1     150.599 169.693 193.155  0.00  0.00    +0.025 HD
ENDBRANCH 195 206
BRANCH 197 210
ATOM    210  O   UNL     1     152.524 167.546 192.703  0.00  0.00    -0.380 OA
BRANCH 210 211
ATOM    211  C   UNL     1     153.484 166.754 193.389  0.00  0.00    +0.037 C 
ATOM    212  H   UNL     1     154.451 166.891 192.901  0.00  0.00    +0.052 HD
ATOM    213  H   UNL     1     153.572 167.079 194.430  0.00  0.00    +0.052 HD
ATOM    214  H   UNL     1     153.225 165.692 193.349  0.00  0.00    +0.052 HD
ENDBRANCH 210 211
ENDBRANCH 197 210
ENDBRANCH 190 193
ENDBRANCH 187 190
ENDBRANCH 181 187
ENDBRANCH 177 181
ENDBRANCH 171 177
ENDBRANCH  22 171
BRANCH  20 215
ATOM    215  O   UNL     1     144.781 165.783 187.331  0.00  0.00    -0.391 OA
ATOM    216  H   UNL     1     144.955 166.354 186.564  0.00  0.00    +0.210 HD
ENDBRANCH  20 215
BRANCH  18 217
ATOM    217  O   UNL     1     146.968 168.816 188.937  0.00  0.00    -0.391 OA
ATOM    218  H   UNL     1     147.823 169.136 189.281  0.00  0.00    +0.210 HD
ENDBRANCH  18 217
BRANCH  10 219
ATOM    219  O   UNL     1     140.901 169.947 191.391  0.00  0.00    -0.391 OA
ATOM    220  H   UNL     1     140.805 169.248 190.721  0.00  0.00    +0.210 HD
ENDBRANCH  10 219
BRANCH  37 221
ATOM    221  O   UNL     1     144.004 175.974 182.599  0.00  0.00    -0.379 OA
BRANCH 221 222
ATOM    222  C   UNL     1     143.162 176.401 181.536  0.00  0.00    +0.037 C 
ATOM    223  H   UNL     1     142.276 175.761 181.525  0.00  0.00    +0.052 HD
ATOM    224  H   UNL     1     142.839 177.432 181.703  0.00  0.00    +0.052 HD
ATOM    225  H   UNL     1     143.664 176.317 180.567  0.00  0.00    +0.052 HD
ENDBRANCH 221 222
ENDBRANCH  37 221
BRANCH  16 226
ATOM    226  O   UNL     1     145.812 170.405 185.178  0.00  0.00    -0.379 OA
BRANCH 226 227
ATOM    227  C   UNL     1     146.573 171.550 184.812  0.00  0.00    +0.037 C 
ATOM    228  H   UNL     1     146.515 171.670 183.727  0.00  0.00    +0.052 HD
ATOM    229  H   UNL     1     146.166 172.450 185.283  0.00  0.00    +0.052 HD
ATOM    230  H   UNL     1     147.623 171.423 185.093  0.00  0.00    +0.052 HD
ENDBRANCH 226 227
ENDBRANCH  16 226
TORSDOF 40
ENDMDL
MODEL 5
REMARK VINA RESULT:      -5.4      5.903     13.498
REMARK  Name = Swinholide A_conf3
REMARK  40 active torsions:
REMARK  status: ('A' for Active; 'I' for Inactive)
REMARK    1  A    between atoms: C_1  and  C_2
REMARK    2  A    between atoms: C_4  and  C_10
REMARK    3  A    between atoms: C_6  and  O_8
REMARK    4  A    between atoms: O_8  and  C_9
REMARK    5  A    between atoms: C_10  and  C_11
REMARK    6  A    between atoms: C_11  and  C_12
REMARK    7  A    between atoms: C_12  and  C_13
REMARK    8  A    between atoms: C_12  and  C_98
REMARK    9  A    between atoms: C_13  and  O_14
REMARK   10  A    between atoms: C_13  and  C_15
REMARK   11  A    between atoms: C_15  and  C_16
REMARK   12  A    between atoms: C_15  and  C_97
REMARK   13  A    between atoms: C_22  and  C_96
REMARK   14  A    between atoms: C_25  and  O_95
REMARK   15  A    between atoms: C_31  and  O_90
REMARK   16  A    between atoms: C_32  and  C_89
REMARK   17  A    between atoms: C_33  and  O_88
REMARK   18  A    between atoms: C_35  and  O_87
REMARK   19  A    between atoms: C_36  and  C_86
REMARK   20  A    between atoms: C_37  and  C_69
REMARK   21  A    between atoms: C_43  and  C_68
REMARK   22  A    between atoms: C_46  and  O_67
REMARK   23  A    between atoms: C_52  and  O_62
REMARK   24  A    between atoms: C_53  and  C_61
REMARK   25  A    between atoms: C_54  and  O_60
REMARK   26  A    between atoms: C_56  and  O_59
REMARK   27  A    between atoms: C_57  and  C_58
REMARK   28  A    between atoms: O_62  and  C_63
REMARK   29  A    between atoms: C_69  and  C_70
REMARK   30  A    between atoms: C_69  and  C_85
REMARK   31  A    between atoms: C_70  and  O_71
REMARK   32  A    between atoms: C_70  and  C_72
REMARK   33  A    between atoms: C_72  and  C_73
REMARK   34  A    between atoms: C_72  and  C_84
REMARK   35  A    between atoms: C_73  and  C_74
REMARK   36  A    between atoms: C_74  and  C_75
REMARK   37  A    between atoms: C_77  and  C_83
REMARK   38  A    between atoms: C_79  and  O_81
REMARK   39  A    between atoms: O_81  and  C_82
REMARK   40  A    between atoms: O_90  and  C_91
REMARK                            x       y       z     vdW  Elec       q    Type
REMARK                         _______ _______ _______ _____ _____    ______ ____
ROOT
ATOM      1  C   UNL     1     150.795 159.557 186.248  0.00  0.00    +0.113 C 
ATOM      2  O   UNL     1     150.492 160.865 185.697  0.00  0.00    -0.458 OA
ATOM      3  C   UNL     1     149.859 161.709 186.555  0.00  0.00    +0.332 C 
ATOM      4  O   UNL     1     149.636 161.495 187.739  0.00  0.00    -0.246 OA
ATOM      5  C   UNL     1     149.403 162.958 185.937  0.00  0.00    +0.023 C 
ATOM      6  C   UNL     1     149.906 163.543 184.841  0.00  0.00    -0.052 C 
ATOM      7  C   UNL     1     149.445 164.857 184.399  0.00  0.00    -0.054 C 
ATOM      8  C   UNL     1     149.283 165.851 185.296  0.00  0.00    -0.079 C 
ATOM      9  C   UNL     1     148.747 167.233 185.073  0.00  0.00    -0.008 C 
ATOM     10  C   UNL     1     147.213 167.378 184.952  0.00  0.00    +0.061 C 
ATOM     11  C   UNL     1     146.338 166.266 185.544  0.00  0.00    +0.003 C 
ATOM     12  C   UNL     1     146.056 166.246 187.056  0.00  0.00    +0.080 C 
ATOM     13  O   UNL     1     145.239 165.071 187.235  0.00  0.00    -0.369 OA
ATOM     14  C   UNL     1     145.112 164.588 188.584  0.00  0.00    +0.065 C 
ATOM     15  C   UNL     1     144.291 165.583 189.422  0.00  0.00    +0.000 C 
ATOM     16  C   UNL     1     143.831 165.070 190.801  0.00  0.00    +0.066 C 
ATOM     17  C   UNL     1     142.857 166.095 191.453  0.00  0.00    +0.009 C 
ATOM     18  C   UNL     1     143.543 167.308 192.145  0.00  0.00    +0.063 C 
ATOM     19  C   UNL     1     142.772 168.637 191.959  0.00  0.00    -0.000 C 
ATOM     20  C   UNL     1     142.715 169.086 190.481  0.00  0.00    +0.064 C 
ATOM     21  C   UNL     1     143.008 170.599 190.286  0.00  0.00    +0.020 C 
ATOM     22  C   UNL     1     143.655 170.951 188.898  0.00  0.00    +0.113 C 
ATOM     23  O   UNL     1     143.552 169.858 187.967  0.00  0.00    -0.458 OA
ATOM     24  C   UNL     1     142.415 169.781 187.234  0.00  0.00    +0.332 C 
ATOM     25  O   UNL     1     141.564 170.647 187.111  0.00  0.00    -0.246 OA
ATOM     26  C   UNL     1     142.371 168.439 186.618  0.00  0.00    +0.023 C 
ATOM     27  C   UNL     1     141.313 168.073 185.879  0.00  0.00    -0.052 C 
ATOM     28  C   UNL     1     141.141 166.764 185.263  0.00  0.00    -0.054 C 
ATOM     29  C   UNL     1     141.425 165.628 185.932  0.00  0.00    -0.079 C 
ATOM     30  C   UNL     1     141.237 164.215 185.444  0.00  0.00    -0.008 C 
ATOM     31  C   UNL     1     142.502 163.664 184.758  0.00  0.00    +0.061 C 
ATOM     32  C   UNL     1     143.241 162.645 185.640  0.00  0.00    +0.003 C 
ATOM     33  C   UNL     1     144.648 162.303 185.119  0.00  0.00    +0.080 C 
ATOM     34  O   UNL     1     145.452 161.747 186.181  0.00  0.00    -0.369 OA
ATOM     35  C   UNL     1     145.297 160.328 186.377  0.00  0.00    +0.065 C 
ATOM     36  C   UNL     1     146.162 159.959 187.601  0.00  0.00    +0.000 C 
ATOM     37  C   UNL     1     146.194 158.455 187.951  0.00  0.00    +0.066 C 
ATOM     38  C   UNL     1     147.127 158.149 189.162  0.00  0.00    +0.009 C 
ATOM     39  C   UNL     1     148.632 158.481 188.963  0.00  0.00    +0.063 C 
ATOM     40  C   UNL     1     149.576 157.466 188.285  0.00  0.00    -0.000 C 
ATOM     41  C   UNL     1     149.541 157.314 186.757  0.00  0.00    +0.064 C 
ATOM     42  C   UNL     1     149.585 158.623 185.935  0.00  0.00    +0.020 C 
ATOM     43  C   UNL     1     145.758 159.597 185.107  0.00  0.00    -0.008 C 
ATOM     44  C   UNL     1     145.145 160.179 183.876  0.00  0.00    -0.083 C 
ATOM     45  C   UNL     1     144.644 161.419 183.894  0.00  0.00    -0.059 C 
ATOM     46  C   UNL     1     146.500 164.231 189.136  0.00  0.00    -0.008 C 
ATOM     47  C   UNL     1     147.490 165.325 188.899  0.00  0.00    -0.083 C 
ATOM     48  C   UNL     1     147.267 166.246 187.950  0.00  0.00    -0.059 C 
ATOM     49  H   UNL     1     150.842 159.651 187.339  0.00  0.00    +0.074 HD
ATOM     50  H   UNL     1     148.620 163.439 186.518  0.00  0.00    +0.069 HD
ATOM     51  H   UNL     1     150.681 163.063 184.250  0.00  0.00    +0.062 HD
ATOM     52  H   UNL     1     149.550 165.658 186.336  0.00  0.00    +0.058 HD
ATOM     53  H   UNL     1     149.215 167.672 184.182  0.00  0.00    +0.033 HD
ATOM     54  H   UNL     1     149.108 167.866 185.894  0.00  0.00    +0.033 HD
ATOM     55  H   UNL     1     146.987 167.411 183.878  0.00  0.00    +0.060 HD
ATOM     56  H   UNL     1     146.692 165.279 185.219  0.00  0.00    +0.032 HD
ATOM     57  H   UNL     1     145.350 166.351 185.065  0.00  0.00    +0.032 HD
ATOM     58  H   UNL     1     145.443 167.118 187.307  0.00  0.00    +0.064 HD
ATOM     59  H   UNL     1     144.542 163.657 188.505  0.00  0.00    +0.060 HD
ATOM     60  H   UNL     1     143.406 165.840 188.825  0.00  0.00    +0.032 HD
ATOM     61  H   UNL     1     144.845 166.516 189.532  0.00  0.00    +0.032 HD
ATOM     62  H   UNL     1     144.693 164.902 191.458  0.00  0.00    +0.060 HD
ATOM     63  H   UNL     1     142.202 166.456 190.652  0.00  0.00    +0.035 HD
ATOM     64  H   UNL     1     143.600 167.104 193.222  0.00  0.00    +0.060 HD
ATOM     65  H   UNL     1     143.301 169.393 192.552  0.00  0.00    +0.032 HD
ATOM     66  H   UNL     1     141.763 168.538 192.375  0.00  0.00    +0.032 HD
ATOM     67  H   UNL     1     143.450 168.508 189.924  0.00  0.00    +0.060 HD
ATOM     68  H   UNL     1     143.716 170.906 191.063  0.00  0.00    +0.036 HD
ATOM     69  H   UNL     1     143.128 171.809 188.459  0.00  0.00    +0.074 HD
ATOM     70  H   UNL     1     143.196 167.772 186.828  0.00  0.00    +0.069 HD
ATOM     71  H   UNL     1     140.507 168.788 185.706  0.00  0.00    +0.062 HD
ATOM     72  H   UNL     1     141.814 165.691 186.949  0.00  0.00    +0.058 HD
ATOM     73  H   UNL     1     140.960 163.594 186.306  0.00  0.00    +0.033 HD
ATOM     74  H   UNL     1     140.370 164.162 184.775  0.00  0.00    +0.033 HD
ATOM     75  H   UNL     1     143.184 164.481 184.495  0.00  0.00    +0.060 HD
ATOM     76  H   UNL     1     143.332 163.042 186.656  0.00  0.00    +0.032 HD
ATOM     77  H   UNL     1     142.647 161.724 185.723  0.00  0.00    +0.032 HD
ATOM     78  H   UNL     1     145.154 163.237 184.849  0.00  0.00    +0.064 HD
ATOM     79  H   UNL     1     144.244 160.111 186.594  0.00  0.00    +0.060 HD
ATOM     80  H   UNL     1     147.170 160.346 187.428  0.00  0.00    +0.032 HD
ATOM     81  H   UNL     1     145.777 160.524 188.461  0.00  0.00    +0.032 HD
ATOM     82  H   UNL     1     146.516 157.881 187.081  0.00  0.00    +0.060 HD
ATOM     83  H   UNL     1     146.767 158.792 189.980  0.00  0.00    +0.035 HD
ATOM     84  H   UNL     1     148.738 159.447 188.480  0.00  0.00    +0.060 HD
ATOM     85  H   UNL     1     149.425 156.480 188.743  0.00  0.00    +0.032 HD
ATOM     86  H   UNL     1     150.605 157.733 188.563  0.00  0.00    +0.032 HD
ATOM     87  H   UNL     1     150.395 156.688 186.471  0.00  0.00    +0.060 HD
ATOM     88  H   UNL     1     148.692 159.191 186.216  0.00  0.00    +0.036 HD
ATOM     89  H   UNL     1     145.510 158.533 185.160  0.00  0.00    +0.033 HD
ATOM     90  H   UNL     1     146.841 159.687 184.994  0.00  0.00    +0.033 HD
ATOM     91  H   UNL     1     145.133 159.589 182.964  0.00  0.00    +0.057 HD
ATOM     92  H   UNL     1     144.202 161.824 182.988  0.00  0.00    +0.059 HD
ATOM     93  H   UNL     1     146.873 163.334 188.627  0.00  0.00    +0.033 HD
ATOM     94  H   UNL     1     146.445 163.997 190.202  0.00  0.00    +0.033 HD
ATOM     95  H   UNL     1     148.378 165.370 189.522  0.00  0.00    +0.057 HD
ATOM     96  H   UNL     1     147.957 167.076 187.849  0.00  0.00    +0.059 HD
ENDROOT
BRANCH  28  97
ATOM     97  C   UNL     1     140.585 166.823 183.865  0.00  0.00    -0.040 C 
ATOM     98  H   UNL     1     140.915 165.994 183.235  0.00  0.00    +0.028 HD
ATOM     99  H   UNL     1     139.489 166.810 183.886  0.00  0.00    +0.028 HD
ATOM    100  H   UNL     1     140.911 167.744 183.368  0.00  0.00    +0.028 HD
ENDBRANCH  28  97
BRANCH  21 101
ATOM    101  C   UNL     1     141.767 171.473 190.521  0.00  0.00    -0.057 C 
ATOM    102  H   UNL     1     140.940 170.902 190.953  0.00  0.00    +0.023 HD
ATOM    103  H   UNL     1     141.414 171.902 189.577  0.00  0.00    +0.023 HD
ATOM    104  H   UNL     1     141.997 172.307 191.193  0.00  0.00    +0.023 HD
ENDBRANCH  21 101
BRANCH  42 105
ATOM    105  C   UNL     1     149.364 158.353 184.438  0.00  0.00    -0.057 C 
ATOM    106  H   UNL     1     148.762 157.448 184.297  0.00  0.00    +0.023 HD
ATOM    107  H   UNL     1     148.829 159.175 183.949  0.00  0.00    +0.023 HD
ATOM    108  H   UNL     1     150.303 158.171 183.911  0.00  0.00    +0.023 HD
ENDBRANCH  42 105
BRANCH  17 109
ATOM    109  C   UNL     1     141.892 165.442 192.459  0.00  0.00    -0.058 C 
ATOM    110  H   UNL     1     140.863 165.776 192.298  0.00  0.00    +0.023 HD
ATOM    111  H   UNL     1     142.172 165.675 193.492  0.00  0.00    +0.023 HD
ATOM    112  H   UNL     1     141.910 164.350 192.367  0.00  0.00    +0.023 HD
ENDBRANCH  17 109
BRANCH  38 113
ATOM    113  C   UNL     1     146.938 156.720 189.698  0.00  0.00    -0.058 C 
ATOM    114  H   UNL     1     147.617 156.016 189.210  0.00  0.00    +0.023 HD
ATOM    115  H   UNL     1     147.115 156.678 190.779  0.00  0.00    +0.023 HD
ATOM    116  H   UNL     1     145.913 156.371 189.535  0.00  0.00    +0.023 HD
ENDBRANCH  38 113
BRANCH   7 117
ATOM    117  C   UNL     1     149.161 164.980 182.931  0.00  0.00    -0.040 C 
ATOM    118  H   UNL     1     149.987 165.490 182.431  0.00  0.00    +0.028 HD
ATOM    119  H   UNL     1     148.252 165.550 182.726  0.00  0.00    +0.028 HD
ATOM    120  H   UNL     1     149.035 163.993 182.472  0.00  0.00    +0.028 HD
ENDBRANCH   7 117
BRANCH   1 121
ATOM    121  C   UNL     1     152.235 159.101 185.863  0.00  0.00    +0.020 C 
ATOM    122  H   UNL     1     152.181 158.016 185.709  0.00  0.00    +0.036 HD
BRANCH 121 123
ATOM    123  C   UNL     1     152.792 159.669 184.561  0.00  0.00    -0.057 C 
ATOM    124  H   UNL     1     152.779 160.761 184.550  0.00  0.00    +0.023 HD
ATOM    125  H   UNL     1     153.818 159.326 184.393  0.00  0.00    +0.023 HD
ATOM    126  H   UNL     1     152.236 159.301 183.697  0.00  0.00    +0.023 HD
ENDBRANCH 121 123
BRANCH 121 127
ATOM    127  C   UNL     1     153.220 159.331 187.057  0.00  0.00    +0.064 C 
ATOM    128  H   UNL     1     152.950 158.602 187.831  0.00  0.00    +0.060 HD
BRANCH 127 129
ATOM    129  C   UNL     1     153.260 160.763 187.688  0.00  0.00    -0.017 C 
ATOM    130  H   UNL     1     152.236 161.102 187.857  0.00  0.00    +0.032 HD
BRANCH 129 131
ATOM    131  C   UNL     1     153.925 160.676 189.072  0.00  0.00    -0.060 C 
ATOM    132  H   UNL     1     154.270 159.659 189.284  0.00  0.00    +0.023 HD
ATOM    133  H   UNL     1     153.223 160.965 189.862  0.00  0.00    +0.023 HD
ATOM    134  H   UNL     1     154.783 161.352 189.146  0.00  0.00    +0.023 HD
ENDBRANCH 129 131
BRANCH 129 135
ATOM    135  C   UNL     1     153.999 161.811 186.821  0.00  0.00    -0.046 C 
ATOM    136  H   UNL     1     154.310 161.367 185.871  0.00  0.00    +0.027 HD
ATOM    137  H   UNL     1     154.928 162.111 187.326  0.00  0.00    +0.027 HD
BRANCH 135 138
ATOM    138  C   UNL     1     153.219 163.098 186.503  0.00  0.00    -0.026 C 
ATOM    139  H   UNL     1     152.155 162.859 186.642  0.00  0.00    +0.029 HD
ATOM    140  H   UNL     1     153.337 163.359 185.444  0.00  0.00    +0.029 HD
BRANCH 138 143
ATOM    141  C   UNL     1     152.967 165.249 189.541  0.00  0.00    +0.059 C 
ATOM    142  O   UNL     1     153.019 164.099 188.687  0.00  0.00    -0.373 OA
ATOM    143  C   UNL     1     153.563 164.311 187.383  0.00  0.00    +0.061 C 
ATOM    144  C   UNL     1     153.010 165.594 186.759  0.00  0.00    -0.000 C 
ATOM    145  C   UNL     1     153.324 166.820 187.626  0.00  0.00    +0.063 C 
ATOM    146  C   UNL     1     153.794 166.420 189.024  0.00  0.00    -0.000 C 
ATOM    147  H   UNL     1     151.914 165.546 189.605  0.00  0.00    +0.059 HD
ATOM    148  H   UNL     1     154.654 164.384 187.468  0.00  0.00    +0.060 HD
ATOM    149  H   UNL     1     153.393 165.710 185.739  0.00  0.00    +0.032 HD
ATOM    150  H   UNL     1     151.918 165.505 186.693  0.00  0.00    +0.032 HD
ATOM    151  H   UNL     1     152.420 167.437 187.725  0.00  0.00    +0.060 HD
ATOM    152  H   UNL     1     153.722 167.282 189.698  0.00  0.00    +0.032 HD
ATOM    153  H   UNL     1     154.855 166.150 188.997  0.00  0.00    +0.032 HD
BRANCH 141 154
ATOM    154  C   UNL     1     153.429 164.820 190.927  0.00  0.00    -0.039 C 
ATOM    155  H   UNL     1     154.512 164.931 191.036  0.00  0.00    +0.025 HD
ATOM    156  H   UNL     1     152.938 165.420 191.699  0.00  0.00    +0.025 HD
ATOM    157  H   UNL     1     153.165 163.775 191.121  0.00  0.00    +0.025 HD
ENDBRANCH 141 154
BRANCH 145 158
ATOM    158  O   UNL     1     154.363 167.612 187.038  0.00  0.00    -0.380 OA
BRANCH 158 159
ATOM    159  C   UNL     1     155.048 166.947 185.983  0.00  0.00    +0.037 C 
ATOM    160  H   UNL     1     155.465 167.709 185.316  0.00  0.00    +0.052 HD
ATOM    161  H   UNL     1     155.868 166.333 186.363  0.00  0.00    +0.052 HD
ATOM    162  H   UNL     1     154.350 166.329 185.410  0.00  0.00    +0.052 HD
ENDBRANCH 158 159
ENDBRANCH 145 158
ENDBRANCH 138 143
ENDBRANCH 135 138
ENDBRANCH 129 135
ENDBRANCH 127 129
BRANCH 127 163
ATOM    163  O   UNL     1     154.529 158.945 186.617  0.00  0.00    -0.391 OA
ATOM    164  H   UNL     1     155.091 158.881 187.410  0.00  0.00    +0.210 HD
ENDBRANCH 127 163
ENDBRANCH 121 127
ENDBRANCH   1 121
BRANCH  41 165
ATOM    165  O   UNL     1     148.367 156.570 186.418  0.00  0.00    -0.391 OA
ATOM    166  H   UNL     1     147.600 157.083 186.723  0.00  0.00    +0.210 HD
ENDBRANCH  41 165
BRANCH  39 167
ATOM    167  O   UNL     1     149.192 158.670 190.285  0.00  0.00    -0.391 OA
ATOM    168  H   UNL     1     148.877 159.536 190.598  0.00  0.00    +0.210 HD
ENDBRANCH  39 167
BRANCH  31 169
ATOM    169  O   UNL     1     142.112 163.041 183.530  0.00  0.00    -0.391 OA
ATOM    170  H   UNL     1     142.873 162.516 183.218  0.00  0.00    +0.210 HD
ENDBRANCH  31 169
BRANCH  22 171
ATOM    171  C   UNL     1     145.165 171.393 189.016  0.00  0.00    +0.020 C 
ATOM    172  H   UNL     1     145.729 170.730 188.348  0.00  0.00    +0.036 HD
BRANCH 171 173
ATOM    173  C   UNL     1     145.262 172.835 188.474  0.00  0.00    -0.057 C 
ATOM    174  H   UNL     1     145.996 173.427 189.030  0.00  0.00    +0.023 HD
ATOM    175  H   UNL     1     145.553 172.852 187.419  0.00  0.00    +0.023 HD
ATOM    176  H   UNL     1     144.325 173.382 188.576  0.00  0.00    +0.023 HD
ENDBRANCH 171 173
BRANCH 171 177
ATOM    177  C   UNL     1     145.784 171.247 190.446  0.00  0.00    +0.064 C 
ATOM    178  H   UNL     1     145.020 171.523 191.184  0.00  0.00    +0.060 HD
BRANCH 177 179
ATOM    179  O   UNL     1     146.105 169.872 190.655  0.00  0.00    -0.391 OA
ATOM    180  H   UNL     1     147.052 169.800 190.892  0.00  0.00    +0.210 HD
ENDBRANCH 177 179
BRANCH 177 181
ATOM    181  C   UNL     1     147.089 172.043 190.771  0.00  0.00    -0.017 C 
ATOM    182  H   UNL     1     147.276 172.739 189.942  0.00  0.00    +0.032 HD
BRANCH 181 183
ATOM    183  C   UNL     1     147.022 172.869 192.054  0.00  0.00    -0.060 C 
ATOM    184  H   UNL     1     147.737 173.695 192.014  0.00  0.00    +0.023 HD
ATOM    185  H   UNL     1     147.322 172.295 192.936  0.00  0.00    +0.023 HD
ATOM    186  H   UNL     1     146.015 173.257 192.230  0.00  0.00    +0.023 HD
ENDBRANCH 181 183
BRANCH 181 187
ATOM    187  C   UNL     1     148.294 171.054 190.794  0.00  0.00    -0.046 C 
ATOM    188  H   UNL     1     149.061 171.411 190.095  0.00  0.00    +0.027 HD
ATOM    189  H   UNL     1     147.965 170.075 190.423  0.00  0.00    +0.027 HD
BRANCH 187 190
ATOM    190  C   UNL     1     148.951 170.868 192.170  0.00  0.00    -0.026 C 
ATOM    191  H   UNL     1     149.736 171.619 192.312  0.00  0.00    +0.029 HD
ATOM    192  H   UNL     1     148.185 171.028 192.941  0.00  0.00    +0.029 HD
BRANCH 190 193
ATOM    193  C   UNL     1     149.546 169.465 192.367  0.00  0.00    +0.061 C 
ATOM    194  O   UNL     1     150.453 169.201 191.291  0.00  0.00    -0.373 OA
ATOM    195  C   UNL     1     151.097 167.926 191.363  0.00  0.00    +0.059 C 
ATOM    196  C   UNL     1     150.072 166.789 191.415  0.00  0.00    -0.000 C 
ATOM    197  C   UNL     1     148.989 167.001 192.475  0.00  0.00    +0.063 C 
ATOM    198  C   UNL     1     148.428 168.419 192.377  0.00  0.00    -0.000 C 
ATOM    199  H   UNL     1     150.090 169.456 193.318  0.00  0.00    +0.060 HD
ATOM    200  H   UNL     1     151.647 167.821 190.418  0.00  0.00    +0.059 HD
ATOM    201  H   UNL     1     150.584 165.832 191.545  0.00  0.00    +0.032 HD
ATOM    202  H   UNL     1     149.567 166.753 190.439  0.00  0.00    +0.032 HD
ATOM    203  H   UNL     1     148.166 166.295 192.311  0.00  0.00    +0.060 HD
ATOM    204  H   UNL     1     147.746 168.614 193.213  0.00  0.00    +0.032 HD
ATOM    205  H   UNL     1     147.851 168.494 191.446  0.00  0.00    +0.032 HD
BRANCH 195 206
ATOM    206  C   UNL     1     152.145 167.878 192.472  0.00  0.00    -0.039 C 
ATOM    207  H   UNL     1     151.658 167.750 193.446  0.00  0.00    +0.025 HD
ATOM    208  H   UNL     1     152.730 168.803 192.496  0.00  0.00    +0.025 HD
ATOM    209  H   UNL     1     152.842 167.042 192.367  0.00  0.00    +0.025 HD
ENDBRANCH 195 206
BRANCH 197 210
ATOM    210  O   UNL     1     149.497 166.817 193.800  0.00  0.00    -0.380 OA
BRANCH 210 211
ATOM    211  C   UNL     1     149.614 165.452 194.178  0.00  0.00    +0.037 C 
ATOM    212  H   UNL     1     149.705 164.853 193.270  0.00  0.00    +0.052 HD
ATOM    213  H   UNL     1     150.512 165.301 194.785  0.00  0.00    +0.052 HD
ATOM    214  H   UNL     1     148.730 165.115 194.726  0.00  0.00    +0.052 HD
ENDBRANCH 210 211
ENDBRANCH 197 210
ENDBRANCH 190 193
ENDBRANCH 187 190
ENDBRANCH 181 187
ENDBRANCH 177 181
ENDBRANCH 171 177
ENDBRANCH  22 171
BRANCH  20 215
ATOM    215  O   UNL     1     141.448 168.721 189.930  0.00  0.00    -0.391 OA
ATOM    216  H   UNL     1     140.941 168.226 190.594  0.00  0.00    +0.210 HD
ENDBRANCH  20 215
BRANCH  18 217
ATOM    217  O   UNL     1     144.895 167.515 191.726  0.00  0.00    -0.391 OA
ATOM    218  H   UNL     1     144.862 167.787 190.789  0.00  0.00    +0.210 HD
ENDBRANCH  18 217
BRANCH  10 219
ATOM    219  O   UNL     1     146.838 168.653 185.477  0.00  0.00    -0.391 OA
ATOM    220  H   UNL     1     145.918 168.832 185.218  0.00  0.00    +0.210 HD
ENDBRANCH  10 219
BRANCH  37 221
ATOM    221  O   UNL     1     144.844 158.106 188.311  0.00  0.00    -0.379 OA
BRANCH 221 222
ATOM    222  C   UNL     1     144.316 158.901 189.364  0.00  0.00    +0.037 C 
ATOM    223  H   UNL     1     145.010 158.853 190.208  0.00  0.00    +0.052 HD
ATOM    224  H   UNL     1     144.236 159.943 189.045  0.00  0.00    +0.052 HD
ATOM    225  H   UNL     1     143.340 158.534 189.694  0.00  0.00    +0.052 HD
ENDBRANCH 221 222
ENDBRANCH  37 221
BRANCH  16 226
ATOM    226  O   UNL     1     143.123 163.839 190.571  0.00  0.00    -0.379 OA
BRANCH 226 227
ATOM    227  C   UNL     1     142.396 163.826 189.348  0.00  0.00    +0.037 C 
ATOM    228  H   UNL     1     142.507 162.838 188.892  0.00  0.00    +0.052 HD
ATOM    229  H   UNL     1     141.333 164.007 189.530  0.00  0.00    +0.052 HD
ATOM    230  H   UNL     1     142.791 164.575 188.655  0.00  0.00    +0.052 HD
ENDBRANCH 226 227
ENDBRANCH  16 226
TORSDOF 40
ENDMDL
MODEL 6
REMARK VINA RESULT:      -5.3      2.433      3.765
REMARK  Name = Swinholide A_conf3
REMARK  40 active torsions:
REMARK  status: ('A' for Active; 'I' for Inactive)
REMARK    1  A    between atoms: C_1  and  C_2
REMARK    2  A    between atoms: C_4  and  C_10
REMARK    3  A    between atoms: C_6  and  O_8
REMARK    4  A    between atoms: O_8  and  C_9
REMARK    5  A    between atoms: C_10  and  C_11
REMARK    6  A    between atoms: C_11  and  C_12
REMARK    7  A    between atoms: C_12  and  C_13
REMARK    8  A    between atoms: C_12  and  C_98
REMARK    9  A    between atoms: C_13  and  O_14
REMARK   10  A    between atoms: C_13  and  C_15
REMARK   11  A    between atoms: C_15  and  C_16
REMARK   12  A    between atoms: C_15  and  C_97
REMARK   13  A    between atoms: C_22  and  C_96
REMARK   14  A    between atoms: C_25  and  O_95
REMARK   15  A    between atoms: C_31  and  O_90
REMARK   16  A    between atoms: C_32  and  C_89
REMARK   17  A    between atoms: C_33  and  O_88
REMARK   18  A    between atoms: C_35  and  O_87
REMARK   19  A    between atoms: C_36  and  C_86
REMARK   20  A    between atoms: C_37  and  C_69
REMARK   21  A    between atoms: C_43  and  C_68
REMARK   22  A    between atoms: C_46  and  O_67
REMARK   23  A    between atoms: C_52  and  O_62
REMARK   24  A    between atoms: C_53  and  C_61
REMARK   25  A    between atoms: C_54  and  O_60
REMARK   26  A    between atoms: C_56  and  O_59
REMARK   27  A    between atoms: C_57  and  C_58
REMARK   28  A    between atoms: O_62  and  C_63
REMARK   29  A    between atoms: C_69  and  C_70
REMARK   30  A    between atoms: C_69  and  C_85
REMARK   31  A    between atoms: C_70  and  O_71
REMARK   32  A    between atoms: C_70  and  C_72
REMARK   33  A    between atoms: C_72  and  C_73
REMARK   34  A    between atoms: C_72  and  C_84
REMARK   35  A    between atoms: C_73  and  C_74
REMARK   36  A    between atoms: C_74  and  C_75
REMARK   37  A    between atoms: C_77  and  C_83
REMARK   38  A    between atoms: C_79  and  O_81
REMARK   39  A    between atoms: O_81  and  C_82
REMARK   40  A    between atoms: O_90  and  C_91
REMARK                            x       y       z     vdW  Elec       q    Type
REMARK                         _______ _______ _______ _____ _____    ______ ____
ROOT
ATOM      1  C   UNL     1     154.541 165.308 188.130  0.00  0.00    +0.113 C 
ATOM      2  O   UNL     1     155.761 165.761 187.487  0.00  0.00    -0.458 OA
ATOM      3  C   UNL     1     155.568 166.595 186.430  0.00  0.00    +0.332 C 
ATOM      4  O   UNL     1     154.495 167.057 186.067  0.00  0.00    -0.246 OA
ATOM      5  C   UNL     1     156.790 166.905 185.683  0.00  0.00    +0.023 C 
ATOM      6  C   UNL     1     158.048 166.866 186.147  0.00  0.00    -0.052 C 
ATOM      7  C   UNL     1     159.173 167.323 185.336  0.00  0.00    -0.054 C 
ATOM      8  C   UNL     1     159.080 168.477 184.643  0.00  0.00    -0.079 C 
ATOM      9  C   UNL     1     160.072 169.081 183.695  0.00  0.00    -0.008 C 
ATOM     10  C   UNL     1     160.137 168.479 182.274  0.00  0.00    +0.061 C 
ATOM     11  C   UNL     1     158.916 167.701 181.767  0.00  0.00    +0.003 C 
ATOM     12  C   UNL     1     157.704 168.469 181.212  0.00  0.00    +0.080 C 
ATOM     13  O   UNL     1     156.770 167.425 180.865  0.00  0.00    -0.369 OA
ATOM     14  C   UNL     1     155.409 167.840 180.654  0.00  0.00    +0.065 C 
ATOM     15  C   UNL     1     155.311 168.688 179.375  0.00  0.00    +0.000 C 
ATOM     16  C   UNL     1     153.882 168.962 178.866  0.00  0.00    +0.066 C 
ATOM     17  C   UNL     1     153.935 169.658 177.474  0.00  0.00    +0.009 C 
ATOM     18  C   UNL     1     154.205 171.191 177.513  0.00  0.00    +0.063 C 
ATOM     19  C   UNL     1     155.116 171.683 176.364  0.00  0.00    -0.000 C 
ATOM     20  C   UNL     1     156.543 171.093 176.446  0.00  0.00    +0.064 C 
ATOM     21  C   UNL     1     157.658 172.145 176.197  0.00  0.00    +0.020 C 
ATOM     22  C   UNL     1     159.009 171.831 176.936  0.00  0.00    +0.113 C 
ATOM     23  O   UNL     1     159.047 170.480 177.431  0.00  0.00    -0.458 OA
ATOM     24  C   UNL     1     159.482 169.524 176.574  0.00  0.00    +0.332 C 
ATOM     25  O   UNL     1     160.050 169.701 175.509  0.00  0.00    -0.246 OA
ATOM     26  C   UNL     1     159.124 168.212 177.150  0.00  0.00    +0.023 C 
ATOM     27  C   UNL     1     159.389 167.085 176.473  0.00  0.00    -0.052 C 
ATOM     28  C   UNL     1     159.042 165.743 176.920  0.00  0.00    -0.054 C 
ATOM     29  C   UNL     1     157.836 165.471 177.459  0.00  0.00    -0.079 C 
ATOM     30  C   UNL     1     157.323 164.126 177.904  0.00  0.00    -0.008 C 
ATOM     31  C   UNL     1     157.612 163.857 179.394  0.00  0.00    +0.061 C 
ATOM     32  C   UNL     1     156.349 163.979 180.260  0.00  0.00    +0.003 C 
ATOM     33  C   UNL     1     156.652 164.011 181.769  0.00  0.00    +0.080 C 
ATOM     34  O   UNL     1     155.541 164.588 182.488  0.00  0.00    -0.369 OA
ATOM     35  C   UNL     1     154.493 163.658 182.828  0.00  0.00    +0.065 C 
ATOM     36  C   UNL     1     153.377 164.484 183.502  0.00  0.00    +0.000 C 
ATOM     37  C   UNL     1     152.172 163.665 184.011  0.00  0.00    +0.066 C 
ATOM     38  C   UNL     1     151.110 164.554 184.726  0.00  0.00    +0.009 C 
ATOM     39  C   UNL     1     151.588 165.285 186.011  0.00  0.00    +0.063 C 
ATOM     40  C   UNL     1     151.559 164.568 187.378  0.00  0.00    -0.000 C 
ATOM     41  C   UNL     1     152.652 163.542 187.710  0.00  0.00    +0.064 C 
ATOM     42  C   UNL     1     154.110 163.978 187.436  0.00  0.00    +0.020 C 
ATOM     43  C   UNL     1     155.064 162.588 183.771  0.00  0.00    -0.008 C 
ATOM     44  C   UNL     1     156.337 162.008 183.249  0.00  0.00    -0.083 C 
ATOM     45  C   UNL     1     157.056 162.671 182.336  0.00  0.00    -0.059 C 
ATOM     46  C   UNL     1     154.865 168.491 181.933  0.00  0.00    -0.008 C 
ATOM     47  C   UNL     1     155.807 169.514 182.480  0.00  0.00    -0.083 C 
ATOM     48  C   UNL     1     157.101 169.497 182.131  0.00  0.00    -0.059 C 
ATOM     49  H   UNL     1     153.753 166.039 187.918  0.00  0.00    +0.074 HD
ATOM     50  H   UNL     1     156.577 167.261 184.678  0.00  0.00    +0.069 HD
ATOM     51  H   UNL     1     158.270 166.501 187.146  0.00  0.00    +0.062 HD
ATOM     52  H   UNL     1     158.171 169.070 184.747  0.00  0.00    +0.058 HD
ATOM     53  H   UNL     1     161.076 169.048 184.139  0.00  0.00    +0.033 HD
ATOM     54  H   UNL     1     159.854 170.155 183.626  0.00  0.00    +0.033 HD
ATOM     55  H   UNL     1     160.977 167.771 182.273  0.00  0.00    +0.060 HD
ATOM     56  H   UNL     1     158.584 166.970 182.515  0.00  0.00    +0.032 HD
ATOM     57  H   UNL     1     159.266 167.070 180.934  0.00  0.00    +0.032 HD
ATOM     58  H   UNL     1     158.003 168.969 180.285  0.00  0.00    +0.064 HD
ATOM     59  H   UNL     1     154.847 166.914 180.493  0.00  0.00    +0.060 HD
ATOM     60  H   UNL     1     155.867 168.148 178.597  0.00  0.00    +0.032 HD
ATOM     61  H   UNL     1     155.848 169.627 179.513  0.00  0.00    +0.032 HD
ATOM     62  H   UNL     1     153.332 169.590 179.577  0.00  0.00    +0.060 HD
ATOM     63  H   UNL     1     154.734 169.164 176.909  0.00  0.00    +0.035 HD
ATOM     64  H   UNL     1     153.243 171.712 177.422  0.00  0.00    +0.060 HD
ATOM     65  H   UNL     1     155.166 172.776 176.448  0.00  0.00    +0.032 HD
ATOM     66  H   UNL     1     154.653 171.447 175.399  0.00  0.00    +0.032 HD
ATOM     67  H   UNL     1     156.674 170.665 177.438  0.00  0.00    +0.060 HD
ATOM     68  H   UNL     1     157.299 173.109 176.571  0.00  0.00    +0.036 HD
ATOM     69  H   UNL     1     159.843 171.948 176.231  0.00  0.00    +0.074 HD
ATOM     70  H   UNL     1     158.609 168.214 178.101  0.00  0.00    +0.069 HD
ATOM     71  H   UNL     1     159.906 167.146 175.514  0.00  0.00    +0.062 HD
ATOM     72  H   UNL     1     157.113 166.277 177.584  0.00  0.00    +0.058 HD
ATOM     73  H   UNL     1     156.243 164.093 177.706  0.00  0.00    +0.033 HD
ATOM     74  H   UNL     1     157.744 163.336 177.272  0.00  0.00    +0.033 HD
ATOM     75  H   UNL     1     158.379 164.547 179.767  0.00  0.00    +0.060 HD
ATOM     76  H   UNL     1     155.812 164.894 179.992  0.00  0.00    +0.032 HD
ATOM     77  H   UNL     1     155.666 163.147 180.041  0.00  0.00    +0.032 HD
ATOM     78  H   UNL     1     157.482 164.706 181.941  0.00  0.00    +0.064 HD
ATOM     79  H   UNL     1     154.108 163.204 181.906  0.00  0.00    +0.060 HD
ATOM     80  H   UNL     1     153.830 165.064 184.310  0.00  0.00    +0.032 HD
ATOM     81  H   UNL     1     153.029 165.228 182.771  0.00  0.00    +0.032 HD
ATOM     82  H   UNL     1     152.517 162.884 184.689  0.00  0.00    +0.060 HD
ATOM     83  H   UNL     1     150.845 165.337 183.998  0.00  0.00    +0.035 HD
ATOM     84  H   UNL     1     152.574 165.710 185.851  0.00  0.00    +0.060 HD
ATOM     85  H   UNL     1     150.577 164.095 187.509  0.00  0.00    +0.032 HD
ATOM     86  H   UNL     1     151.588 165.341 188.158  0.00  0.00    +0.032 HD
ATOM     87  H   UNL     1     152.552 163.290 188.773  0.00  0.00    +0.060 HD
ATOM     88  H   UNL     1     154.175 164.171 186.361  0.00  0.00    +0.036 HD
ATOM     89  H   UNL     1     154.342 161.781 183.924  0.00  0.00    +0.033 HD
ATOM     90  H   UNL     1     155.292 163.029 184.744  0.00  0.00    +0.033 HD
ATOM     91  H   UNL     1     156.680 161.054 183.639  0.00  0.00    +0.057 HD
ATOM     92  H   UNL     1     157.979 162.232 181.969  0.00  0.00    +0.059 HD
ATOM     93  H   UNL     1     154.732 167.721 182.704  0.00  0.00    +0.033 HD
ATOM     94  H   UNL     1     153.884 168.939 181.754  0.00  0.00    +0.033 HD
ATOM     95  H   UNL     1     155.418 170.280 183.144  0.00  0.00    +0.057 HD
ATOM     96  H   UNL     1     157.750 170.295 182.475  0.00  0.00    +0.059 HD
ENDROOT
BRANCH  28  97
ATOM     97  C   UNL     1     160.124 164.726 176.675  0.00  0.00    -0.040 C 
ATOM     98  H   UNL     1     159.769 163.836 176.151  0.00  0.00    +0.028 HD
ATOM     99  H   UNL     1     160.935 165.162 176.081  0.00  0.00    +0.028 HD
ATOM    100  H   UNL     1     160.542 164.381 177.629  0.00  0.00    +0.028 HD
ENDBRANCH  28  97
BRANCH  21 101
ATOM    101  C   UNL     1     157.922 172.379 174.702  0.00  0.00    -0.057 C 
ATOM    102  H   UNL     1     157.441 173.293 174.340  0.00  0.00    +0.023 HD
ATOM    103  H   UNL     1     157.535 171.545 174.108  0.00  0.00    +0.023 HD
ATOM    104  H   UNL     1     158.996 172.453 174.500  0.00  0.00    +0.023 HD
ENDBRANCH  21 101
BRANCH  42 105
ATOM    105  C   UNL     1     155.092 162.812 187.637  0.00  0.00    -0.057 C 
ATOM    106  H   UNL     1     154.679 162.080 188.340  0.00  0.00    +0.023 HD
ATOM    107  H   UNL     1     155.292 162.281 186.700  0.00  0.00    +0.023 HD
ATOM    108  H   UNL     1     156.036 163.142 188.073  0.00  0.00    +0.023 HD
ENDBRANCH  42 105
BRANCH  17 109
ATOM    109  C   UNL     1     152.671 169.407 176.633  0.00  0.00    -0.058 C 
ATOM    110  H   UNL     1     152.019 170.285 176.624  0.00  0.00    +0.023 HD
ATOM    111  H   UNL     1     152.097 168.556 177.017  0.00  0.00    +0.023 HD
ATOM    112  H   UNL     1     152.931 169.169 175.596  0.00  0.00    +0.023 HD
ENDBRANCH  17 109
BRANCH  38 113
ATOM    113  C   UNL     1     149.789 163.806 184.969  0.00  0.00    -0.058 C 
ATOM    114  H   UNL     1     149.278 164.175 185.863  0.00  0.00    +0.023 HD
ATOM    115  H   UNL     1     149.110 163.916 184.115  0.00  0.00    +0.023 HD
ATOM    116  H   UNL     1     149.963 162.733 185.095  0.00  0.00    +0.023 HD
ENDBRANCH  38 113
BRANCH   7 117
ATOM    117  C   UNL     1     160.372 166.421 185.330  0.00  0.00    -0.040 C 
ATOM    118  H   UNL     1     161.258 166.972 185.653  0.00  0.00    +0.028 HD
ATOM    119  H   UNL     1     160.584 166.012 184.339  0.00  0.00    +0.028 HD
ATOM    120  H   UNL     1     160.226 165.571 186.006  0.00  0.00    +0.028 HD
ENDBRANCH   7 117
BRANCH   1 121
ATOM    121  C   UNL     1     154.669 165.355 189.683  0.00  0.00    +0.020 C 
ATOM    122  H   UNL     1     154.162 164.457 190.059  0.00  0.00    +0.036 HD
BRANCH 121 123
ATOM    123  C   UNL     1     156.088 165.286 190.241  0.00  0.00    -0.057 C 
ATOM    124  H   UNL     1     156.726 166.075 189.839  0.00  0.00    +0.023 HD
ATOM    125  H   UNL     1     156.081 165.358 191.333  0.00  0.00    +0.023 HD
ATOM    126  H   UNL     1     156.549 164.319 190.033  0.00  0.00    +0.023 HD
ENDBRANCH 121 123
BRANCH 121 127
ATOM    127  C   UNL     1     153.885 166.581 190.260  0.00  0.00    +0.064 C 
ATOM    128  H   UNL     1     154.627 167.227 190.746  0.00  0.00    +0.060 HD
BRANCH 127 129
ATOM    129  C   UNL     1     152.725 166.281 191.267  0.00  0.00    -0.017 C 
ATOM    130  H   UNL     1     152.393 165.250 191.124  0.00  0.00    +0.032 HD
BRANCH 129 131
ATOM    131  C   UNL     1     153.277 166.366 192.699  0.00  0.00    -0.060 C 
ATOM    132  H   UNL     1     153.376 167.407 193.027  0.00  0.00    +0.023 HD
ATOM    133  H   UNL     1     154.266 165.897 192.766  0.00  0.00    +0.023 HD
ATOM    134  H   UNL     1     152.629 165.843 193.409  0.00  0.00    +0.023 HD
ENDBRANCH 129 131
BRANCH 129 135
ATOM    135  C   UNL     1     151.508 167.225 191.122  0.00  0.00    -0.046 C 
ATOM    136  H   UNL     1     150.589 166.708 191.413  0.00  0.00    +0.027 HD
ATOM    137  H   UNL     1     151.376 167.488 190.063  0.00  0.00    +0.027 HD
BRANCH 135 138
ATOM    138  C   UNL     1     151.575 168.543 191.913  0.00  0.00    -0.026 C 
ATOM    139  H   UNL     1     152.530 169.017 191.645  0.00  0.00    +0.029 HD
ATOM    140  H   UNL     1     151.629 168.335 192.988  0.00  0.00    +0.029 HD
BRANCH 138 143
ATOM    141  C   UNL     1     149.108 171.197 192.798  0.00  0.00    +0.059 C 
ATOM    142  O   UNL     1     150.308 170.415 192.749  0.00  0.00    -0.373 OA
ATOM    143  C   UNL     1     150.440 169.540 191.628  0.00  0.00    +0.061 C 
ATOM    144  C   UNL     1     149.132 168.791 191.359  0.00  0.00    -0.000 C 
ATOM    145  C   UNL     1     147.976 169.763 191.088  0.00  0.00    +0.063 C 
ATOM    146  C   UNL     1     148.334 171.194 191.486  0.00  0.00    -0.000 C 
ATOM    147  H   UNL     1     148.483 170.767 193.590  0.00  0.00    +0.059 HD
ATOM    148  H   UNL     1     150.710 170.137 190.750  0.00  0.00    +0.060 HD
ATOM    149  H   UNL     1     149.269 168.084 190.534  0.00  0.00    +0.032 HD
ATOM    150  H   UNL     1     148.874 168.210 192.253  0.00  0.00    +0.032 HD
ATOM    151  H   UNL     1     147.095 169.450 191.666  0.00  0.00    +0.060 HD
ATOM    152  H   UNL     1     147.419 171.794 191.565  0.00  0.00    +0.032 HD
ATOM    153  H   UNL     1     148.930 171.663 190.695  0.00  0.00    +0.032 HD
BRANCH 141 154
ATOM    154  C   UNL     1     149.491 172.613 193.207  0.00  0.00    -0.039 C 
ATOM    155  H   UNL     1     150.288 173.007 192.570  0.00  0.00    +0.025 HD
ATOM    156  H   UNL     1     148.627 173.281 193.138  0.00  0.00    +0.025 HD
ATOM    157  H   UNL     1     149.831 172.640 194.247  0.00  0.00    +0.025 HD
ENDBRANCH 141 154
BRANCH 145 158
ATOM    158  O   UNL     1     147.635 169.780 189.696  0.00  0.00    -0.380 OA
BRANCH 158 159
ATOM    159  C   UNL     1     146.531 170.625 189.399  0.00  0.00    +0.037 C 
ATOM    160  H   UNL     1     146.661 171.010 188.382  0.00  0.00    +0.052 HD
ATOM    161  H   UNL     1     145.585 170.078 189.444  0.00  0.00    +0.052 HD
ATOM    162  H   UNL     1     146.507 171.473 190.090  0.00  0.00    +0.052 HD
ENDBRANCH 158 159
ENDBRANCH 145 158
ENDBRANCH 138 143
ENDBRANCH 135 138
ENDBRANCH 129 135
ENDBRANCH 127 129
BRANCH 127 163
ATOM    163  O   UNL     1     153.394 167.341 189.148  0.00  0.00    -0.391 OA
ATOM    164  H   UNL     1     153.431 168.280 189.404  0.00  0.00    +0.210 HD
ENDBRANCH 127 163
ENDBRANCH 121 127
ENDBRANCH   1 121
BRANCH  41 165
ATOM    165  O   UNL     1     152.362 162.344 186.985  0.00  0.00    -0.391 OA
ATOM    166  H   UNL     1     152.604 161.594 187.553  0.00  0.00    +0.210 HD
ENDBRANCH  41 165
BRANCH  39 167
ATOM    167  O   UNL     1     150.719 166.431 186.183  0.00  0.00    -0.391 OA
ATOM    168  H   UNL     1     150.117 166.438 185.420  0.00  0.00    +0.210 HD
ENDBRANCH  39 167
BRANCH  31 169
ATOM    169  O   UNL     1     158.152 162.537 179.516  0.00  0.00    -0.391 OA
ATOM    170  H   UNL     1     157.419 161.911 179.367  0.00  0.00    +0.210 HD
ENDBRANCH  31 169
BRANCH  22 171
ATOM    171  C   UNL     1     159.310 172.827 178.121  0.00  0.00    +0.020 C 
ATOM    172  H   UNL     1     160.137 172.383 178.690  0.00  0.00    +0.036 HD
BRANCH 171 173
ATOM    173  C   UNL     1     159.800 174.150 177.494  0.00  0.00    -0.057 C 
ATOM    174  H   UNL     1     160.570 173.977 176.736  0.00  0.00    +0.023 HD
ATOM    175  H   UNL     1     158.982 174.699 177.017  0.00  0.00    +0.023 HD
ATOM    176  H   UNL     1     160.268 174.808 178.225  0.00  0.00    +0.023 HD
ENDBRANCH 171 173
BRANCH 171 177
ATOM    177  C   UNL     1     158.123 173.041 179.119  0.00  0.00    +0.064 C 
ATOM    178  H   UNL     1     157.308 173.546 178.586  0.00  0.00    +0.060 HD
BRANCH 177 179
ATOM    179  O   UNL     1     157.641 171.758 179.520  0.00  0.00    -0.391 OA
ATOM    180  H   UNL     1     157.019 171.426 178.841  0.00  0.00    +0.210 HD
ENDBRANCH 177 179
BRANCH 177 181
ATOM    181  C   UNL     1     158.401 173.823 180.443  0.00  0.00    -0.017 C 
ATOM    182  H   UNL     1     159.445 173.638 180.732  0.00  0.00    +0.032 HD
BRANCH 181 183
ATOM    183  C   UNL     1     158.219 175.336 180.333  0.00  0.00    -0.060 C 
ATOM    184  H   UNL     1     158.707 175.715 179.431  0.00  0.00    +0.023 HD
ATOM    185  H   UNL     1     158.705 175.876 181.150  0.00  0.00    +0.023 HD
ATOM    186  H   UNL     1     157.161 175.613 180.326  0.00  0.00    +0.023 HD
ENDBRANCH 181 183
BRANCH 181 187
ATOM    187  C   UNL     1     157.519 173.226 181.582  0.00  0.00    -0.046 C 
ATOM    188  H   UNL     1     158.166 172.945 182.422  0.00  0.00    +0.027 HD
ATOM    189  H   UNL     1     157.049 172.300 181.226  0.00  0.00    +0.027 HD
BRANCH 187 190
ATOM    190  C   UNL     1     156.427 174.166 182.112  0.00  0.00    -0.026 C 
ATOM    191  H   UNL     1     156.243 173.961 183.173  0.00  0.00    +0.029 HD
ATOM    192  H   UNL     1     156.788 175.199 182.024  0.00  0.00    +0.029 HD
BRANCH 190 193
ATOM    193  C   UNL     1     155.106 174.050 181.335  0.00  0.00    +0.061 C 
ATOM    194  O   UNL     1     154.709 175.360 180.917  0.00  0.00    -0.373 OA
ATOM    195  C   UNL     1     153.495 175.394 180.160  0.00  0.00    +0.059 C 
ATOM    196  C   UNL     1     152.336 174.769 180.944  0.00  0.00    -0.000 C 
ATOM    197  C   UNL     1     152.672 173.394 181.523  0.00  0.00    +0.063 C 
ATOM    198  C   UNL     1     154.026 173.437 182.231  0.00  0.00    -0.000 C 
ATOM    199  H   UNL     1     155.282 173.419 180.457  0.00  0.00    +0.060 HD
ATOM    200  H   UNL     1     153.260 176.458 180.030  0.00  0.00    +0.059 HD
ATOM    201  H   UNL     1     151.439 174.738 180.319  0.00  0.00    +0.032 HD
ATOM    202  H   UNL     1     152.114 175.432 181.792  0.00  0.00    +0.032 HD
ATOM    203  H   UNL     1     151.910 173.105 182.259  0.00  0.00    +0.060 HD
ATOM    204  H   UNL     1     154.325 172.427 182.534  0.00  0.00    +0.032 HD
ATOM    205  H   UNL     1     153.917 174.045 183.139  0.00  0.00    +0.032 HD
BRANCH 195 206
ATOM    206  C   UNL     1     153.682 174.825 178.755  0.00  0.00    -0.039 C 
ATOM    207  H   UNL     1     154.736 174.890 178.460  0.00  0.00    +0.025 HD
ATOM    208  H   UNL     1     153.083 175.380 178.027  0.00  0.00    +0.025 HD
ATOM    209  H   UNL     1     153.408 173.769 178.682  0.00  0.00    +0.025 HD
ENDBRANCH 195 206
BRANCH 197 210
ATOM    210  O   UNL     1     152.735 172.388 180.507  0.00  0.00    -0.380 OA
BRANCH 210 211
ATOM    211  C   UNL     1     151.472 172.079 179.935  0.00  0.00    +0.037 C 
ATOM    212  H   UNL     1     151.489 172.383 178.886  0.00  0.00    +0.052 HD
ATOM    213  H   UNL     1     151.287 171.001 179.981  0.00  0.00    +0.052 HD
ATOM    214  H   UNL     1     150.665 172.619 180.437  0.00  0.00    +0.052 HD
ENDBRANCH 210 211
ENDBRANCH 197 210
ENDBRANCH 190 193
ENDBRANCH 187 190
ENDBRANCH 181 187
ENDBRANCH 177 181
ENDBRANCH 171 177
ENDBRANCH  22 171
BRANCH  20 215
ATOM    215  O   UNL     1     156.647 169.993 175.540  0.00  0.00    -0.391 OA
ATOM    216  H   UNL     1     156.259 169.203 175.950  0.00  0.00    +0.210 HD
ENDBRANCH  20 215
BRANCH  18 217
ATOM    217  O   UNL     1     154.765 171.640 178.750  0.00  0.00    -0.391 OA
ATOM    218  H   UNL     1     154.994 172.581 178.632  0.00  0.00    +0.210 HD
ENDBRANCH  18 217
BRANCH  10 219
ATOM    219  O   UNL     1     160.492 169.519 181.360  0.00  0.00    -0.391 OA
ATOM    220  H   UNL     1     159.849 169.517 180.630  0.00  0.00    +0.210 HD
ENDBRANCH  10 219
BRANCH  37 221
ATOM    221  O   UNL     1     151.569 163.082 182.840  0.00  0.00    -0.379 OA
BRANCH 221 222
ATOM    222  C   UNL     1     151.554 161.661 182.859  0.00  0.00    +0.037 C 
ATOM    223  H   UNL     1     152.563 161.307 182.629  0.00  0.00    +0.052 HD
ATOM    224  H   UNL     1     151.284 161.301 183.855  0.00  0.00    +0.052 HD
ATOM    225  H   UNL     1     150.863 161.256 182.114  0.00  0.00    +0.052 HD
ENDBRANCH 221 222
ENDBRANCH  37 221
BRANCH  16 226
ATOM    226  O   UNL     1     153.241 167.683 178.720  0.00  0.00    -0.379 OA
BRANCH 226 227
ATOM    227  C   UNL     1     152.081 167.538 179.532  0.00  0.00    +0.037 C 
ATOM    228  H   UNL     1     151.411 168.378 179.329  0.00  0.00    +0.052 HD
ATOM    229  H   UNL     1     151.556 166.609 179.291  0.00  0.00    +0.052 HD
ATOM    230  H   UNL     1     152.347 167.554 180.594  0.00  0.00    +0.052 HD
ENDBRANCH 226 227
ENDBRANCH  16 226
TORSDOF 40
ENDMDL
MODEL 7
REMARK VINA RESULT:      -5.3     25.671     32.277
REMARK  Name = Swinholide A_conf3
REMARK  40 active torsions:
REMARK  status: ('A' for Active; 'I' for Inactive)
REMARK    1  A    between atoms: C_1  and  C_2
REMARK    2  A    between atoms: C_4  and  C_10
REMARK    3  A    between atoms: C_6  and  O_8
REMARK    4  A    between atoms: O_8  and  C_9
REMARK    5  A    between atoms: C_10  and  C_11
REMARK    6  A    between atoms: C_11  and  C_12
REMARK    7  A    between atoms: C_12  and  C_13
REMARK    8  A    between atoms: C_12  and  C_98
REMARK    9  A    between atoms: C_13  and  O_14
REMARK   10  A    between atoms: C_13  and  C_15
REMARK   11  A    between atoms: C_15  and  C_16
REMARK   12  A    between atoms: C_15  and  C_97
REMARK   13  A    between atoms: C_22  and  C_96
REMARK   14  A    between atoms: C_25  and  O_95
REMARK   15  A    between atoms: C_31  and  O_90
REMARK   16  A    between atoms: C_32  and  C_89
REMARK   17  A    between atoms: C_33  and  O_88
REMARK   18  A    between atoms: C_35  and  O_87
REMARK   19  A    between atoms: C_36  and  C_86
REMARK   20  A    between atoms: C_37  and  C_69
REMARK   21  A    between atoms: C_43  and  C_68
REMARK   22  A    between atoms: C_46  and  O_67
REMARK   23  A    between atoms: C_52  and  O_62
REMARK   24  A    between atoms: C_53  and  C_61
REMARK   25  A    between atoms: C_54  and  O_60
REMARK   26  A    between atoms: C_56  and  O_59
REMARK   27  A    between atoms: C_57  and  C_58
REMARK   28  A    between atoms: O_62  and  C_63
REMARK   29  A    between atoms: C_69  and  C_70
REMARK   30  A    between atoms: C_69  and  C_85
REMARK   31  A    between atoms: C_70  and  O_71
REMARK   32  A    between atoms: C_70  and  C_72
REMARK   33  A    between atoms: C_72  and  C_73
REMARK   34  A    between atoms: C_72  and  C_84
REMARK   35  A    between atoms: C_73  and  C_74
REMARK   36  A    between atoms: C_74  and  C_75
REMARK   37  A    between atoms: C_77  and  C_83
REMARK   38  A    between atoms: C_79  and  O_81
REMARK   39  A    between atoms: O_81  and  C_82
REMARK   40  A    between atoms: O_90  and  C_91
REMARK                            x       y       z     vdW  Elec       q    Type
REMARK                         _______ _______ _______ _____ _____    ______ ____
ROOT
ATOM      1  C   UNL     1     147.827 191.470 202.893  0.00  0.00    +0.113 C 
ATOM      2  O   UNL     1     146.513 191.324 203.493  0.00  0.00    -0.458 OA
ATOM      3  C   UNL     1     145.963 190.088 203.358  0.00  0.00    +0.332 C 
ATOM      4  O   UNL     1     146.516 189.103 202.887  0.00  0.00    -0.246 OA
ATOM      5  C   UNL     1     144.572 190.001 203.811  0.00  0.00    +0.023 C 
ATOM      6  C   UNL     1     143.968 190.790 204.711  0.00  0.00    -0.052 C 
ATOM      7  C   UNL     1     142.609 190.519 205.172  0.00  0.00    -0.054 C 
ATOM      8  C   UNL     1     142.246 189.262 205.496  0.00  0.00    -0.079 C 
ATOM      9  C   UNL     1     140.896 188.755 205.907  0.00  0.00    -0.008 C 
ATOM     10  C   UNL     1     139.858 188.539 204.783  0.00  0.00    +0.061 C 
ATOM     11  C   UNL     1     140.377 188.364 203.350  0.00  0.00    +0.003 C 
ATOM     12  C   UNL     1     140.911 186.995 202.899  0.00  0.00    +0.080 C 
ATOM     13  O   UNL     1     141.320 187.222 201.534  0.00  0.00    -0.369 OA
ATOM     14  C   UNL     1     142.185 186.227 200.959  0.00  0.00    +0.065 C 
ATOM     15  C   UNL     1     141.415 184.910 200.765  0.00  0.00    +0.000 C 
ATOM     16  C   UNL     1     142.122 183.846 199.902  0.00  0.00    +0.066 C 
ATOM     17  C   UNL     1     141.158 182.654 199.630  0.00  0.00    +0.009 C 
ATOM     18  C   UNL     1     141.043 181.621 200.789  0.00  0.00    +0.063 C 
ATOM     19  C   UNL     1     139.610 181.066 200.976  0.00  0.00    -0.000 C 
ATOM     20  C   UNL     1     138.604 182.158 201.402  0.00  0.00    +0.064 C 
ATOM     21  C   UNL     1     137.656 181.708 202.547  0.00  0.00    +0.020 C 
ATOM     22  C   UNL     1     137.162 182.882 203.467  0.00  0.00    +0.113 C 
ATOM     23  O   UNL     1     137.424 184.170 202.878  0.00  0.00    -0.458 OA
ATOM     24  C   UNL     1     136.488 184.658 202.029  0.00  0.00    +0.332 C 
ATOM     25  O   UNL     1     135.352 184.239 201.872  0.00  0.00    -0.246 OA
ATOM     26  C   UNL     1     137.095 185.788 201.297  0.00  0.00    +0.023 C 
ATOM     27  C   UNL     1     136.399 186.424 200.342  0.00  0.00    -0.052 C 
ATOM     28  C   UNL     1     136.911 187.518 199.528  0.00  0.00    -0.054 C 
ATOM     29  C   UNL     1     138.150 187.480 198.996  0.00  0.00    -0.079 C 
ATOM     30  C   UNL     1     138.780 188.505 198.090  0.00  0.00    -0.008 C 
ATOM     31  C   UNL     1     139.575 189.566 198.876  0.00  0.00    +0.061 C 
ATOM     32  C   UNL     1     141.093 189.366 198.746  0.00  0.00    +0.003 C 
ATOM     33  C   UNL     1     141.902 190.213 199.745  0.00  0.00    +0.080 C 
ATOM     34  O   UNL     1     143.224 189.660 199.912  0.00  0.00    -0.369 OA
ATOM     35  C   UNL     1     144.189 190.090 198.932  0.00  0.00    +0.065 C 
ATOM     36  C   UNL     1     145.493 189.322 199.233  0.00  0.00    +0.000 C 
ATOM     37  C   UNL     1     146.691 189.687 198.331  0.00  0.00    +0.066 C 
ATOM     38  C   UNL     1     147.986 188.913 198.725  0.00  0.00    +0.009 C 
ATOM     39  C   UNL     1     148.539 189.193 200.151  0.00  0.00    +0.063 C 
ATOM     40  C   UNL     1     149.467 190.400 200.408  0.00  0.00    -0.000 C 
ATOM     41  C   UNL     1     148.858 191.806 200.509  0.00  0.00    +0.064 C 
ATOM     42  C   UNL     1     147.622 191.956 201.424  0.00  0.00    +0.020 C 
ATOM     43  C   UNL     1     144.376 191.610 199.053  0.00  0.00    -0.008 C 
ATOM     44  C   UNL     1     143.070 192.333 199.077  0.00  0.00    -0.083 C 
ATOM     45  C   UNL     1     141.945 191.683 199.399  0.00  0.00    -0.059 C 
ATOM     46  C   UNL     1     143.479 186.132 201.781  0.00  0.00    -0.008 C 
ATOM     47  C   UNL     1     143.199 186.022 203.245  0.00  0.00    -0.083 C 
ATOM     48  C   UNL     1     142.015 186.411 203.739  0.00  0.00    -0.059 C 
ATOM     49  H   UNL     1     148.284 190.476 202.831  0.00  0.00    +0.074 HD
ATOM     50  H   UNL     1     144.056 189.145 203.385  0.00  0.00    +0.069 HD
ATOM     51  H   UNL     1     144.474 191.655 205.133  0.00  0.00    +0.062 HD
ATOM     52  H   UNL     1     143.001 188.477 205.450  0.00  0.00    +0.058 HD
ATOM     53  H   UNL     1     140.464 189.423 206.664  0.00  0.00    +0.033 HD
ATOM     54  H   UNL     1     141.047 187.812 206.449  0.00  0.00    +0.033 HD
ATOM     55  H   UNL     1     139.218 189.432 204.774  0.00  0.00    +0.060 HD
ATOM     56  H   UNL     1     141.104 189.148 203.102  0.00  0.00    +0.032 HD
ATOM     57  H   UNL     1     139.531 188.582 202.678  0.00  0.00    +0.032 HD
ATOM     58  H   UNL     1     140.078 186.284 202.882  0.00  0.00    +0.064 HD
ATOM     59  H   UNL     1     142.453 186.613 199.970  0.00  0.00    +0.060 HD
ATOM     60  H   UNL     1     140.459 185.172 200.293  0.00  0.00    +0.032 HD
ATOM     61  H   UNL     1     141.150 184.492 201.737  0.00  0.00    +0.032 HD
ATOM     62  H   UNL     1     143.031 183.487 200.399  0.00  0.00    +0.060 HD
ATOM     63  H   UNL     1     140.172 183.089 199.431  0.00  0.00    +0.035 HD
ATOM     64  H   UNL     1     141.702 180.774 200.562  0.00  0.00    +0.060 HD
ATOM     65  H   UNL     1     139.670 180.298 201.756  0.00  0.00    +0.032 HD
ATOM     66  H   UNL     1     139.283 180.574 200.052  0.00  0.00    +0.032 HD
ATOM     67  H   UNL     1     139.169 183.029 201.731  0.00  0.00    +0.060 HD
ATOM     68  H   UNL     1     138.207 181.007 203.182  0.00  0.00    +0.036 HD
ATOM     69  H   UNL     1     136.076 182.799 203.609  0.00  0.00    +0.074 HD
ATOM     70  H   UNL     1     138.120 186.038 201.537  0.00  0.00    +0.069 HD
ATOM     71  H   UNL     1     135.370 186.123 200.141  0.00  0.00    +0.062 HD
ATOM     72  H   UNL     1     138.792 186.622 199.199  0.00  0.00    +0.058 HD
ATOM     73  H   UNL     1     139.433 187.976 197.383  0.00  0.00    +0.033 HD
ATOM     74  H   UNL     1     138.013 188.972 197.461  0.00  0.00    +0.033 HD
ATOM     75  H   UNL     1     139.293 189.550 199.936  0.00  0.00    +0.060 HD
ATOM     76  H   UNL     1     141.335 188.311 198.907  0.00  0.00    +0.032 HD
ATOM     77  H   UNL     1     141.413 189.601 197.722  0.00  0.00    +0.032 HD
ATOM     78  H   UNL     1     141.437 190.122 200.733  0.00  0.00    +0.064 HD
ATOM     79  H   UNL     1     143.826 189.819 197.932  0.00  0.00    +0.060 HD
ATOM     80  H   UNL     1     145.733 189.472 200.289  0.00  0.00    +0.032 HD
ATOM     81  H   UNL     1     145.275 188.250 199.134  0.00  0.00    +0.032 HD
ATOM     82  H   UNL     1     146.873 190.761 198.376  0.00  0.00    +0.060 HD
ATOM     83  H   UNL     1     147.712 187.847 198.698  0.00  0.00    +0.035 HD
ATOM     84  H   UNL     1     147.725 189.209 200.868  0.00  0.00    +0.060 HD
ATOM     85  H   UNL     1     150.257 190.409 199.646  0.00  0.00    +0.032 HD
ATOM     86  H   UNL     1     150.005 190.209 201.347  0.00  0.00    +0.032 HD
ATOM     87  H   UNL     1     149.648 192.479 200.866  0.00  0.00    +0.060 HD
ATOM     88  H   UNL     1     146.848 191.307 201.003  0.00  0.00    +0.036 HD
ATOM     89  H   UNL     1     144.980 191.994 198.225  0.00  0.00    +0.033 HD
ATOM     90  H   UNL     1     144.889 191.851 199.987  0.00  0.00    +0.033 HD
ATOM     91  H   UNL     1     143.051 193.395 198.853  0.00  0.00    +0.057 HD
ATOM     92  H   UNL     1     141.005 192.226 199.411  0.00  0.00    +0.059 HD
ATOM     93  H   UNL     1     144.073 187.041 201.627  0.00  0.00    +0.033 HD
ATOM     94  H   UNL     1     144.088 185.289 201.449  0.00  0.00    +0.033 HD
ATOM     95  H   UNL     1     143.963 185.603 203.892  0.00  0.00    +0.057 HD
ATOM     96  H   UNL     1     141.803 186.248 204.790  0.00  0.00    +0.059 HD
ENDROOT
BRANCH  28  97
ATOM     97  C   UNL     1     135.917 188.628 199.316  0.00  0.00    -0.040 C 
ATOM     98  H   UNL     1     135.516 189.031 200.249  0.00  0.00    +0.028 HD
ATOM     99  H   UNL     1     136.377 189.456 198.765  0.00  0.00    +0.028 HD
ATOM    100  H   UNL     1     135.059 188.263 198.739  0.00  0.00    +0.028 HD
ENDBRANCH  28  97
BRANCH  21 101
ATOM    101  C   UNL     1     136.452 180.905 202.033  0.00  0.00    -0.057 C 
ATOM    102  H   UNL     1     135.529 181.170 202.557  0.00  0.00    +0.023 HD
ATOM    103  H   UNL     1     136.616 179.832 202.177  0.00  0.00    +0.023 HD
ATOM    104  H   UNL     1     136.299 181.070 200.961  0.00  0.00    +0.023 HD
ENDBRANCH  21 101
BRANCH  42 105
ATOM    105  C   UNL     1     147.000 193.357 201.303  0.00  0.00    -0.057 C 
ATOM    106  H   UNL     1     146.810 193.779 202.296  0.00  0.00    +0.023 HD
ATOM    107  H   UNL     1     147.662 194.054 200.778  0.00  0.00    +0.023 HD
ATOM    108  H   UNL     1     146.031 193.332 200.800  0.00  0.00    +0.023 HD
ENDBRANCH  42 105
BRANCH  17 109
ATOM    109  C   UNL     1     141.501 181.895 198.334  0.00  0.00    -0.058 C 
ATOM    110  H   UNL     1     142.559 181.999 198.081  0.00  0.00    +0.023 HD
ATOM    111  H   UNL     1     140.907 182.259 197.489  0.00  0.00    +0.023 HD
ATOM    112  H   UNL     1     141.282 180.826 198.437  0.00  0.00    +0.023 HD
ENDBRANCH  17 109
BRANCH  38 113
ATOM    113  C   UNL     1     149.090 189.043 197.664  0.00  0.00    -0.058 C 
ATOM    114  H   UNL     1     148.694 189.419 196.716  0.00  0.00    +0.023 HD
ATOM    115  H   UNL     1     149.882 189.723 198.000  0.00  0.00    +0.023 HD
ATOM    116  H   UNL     1     149.568 188.076 197.472  0.00  0.00    +0.023 HD
ENDBRANCH  38 113
BRANCH   7 117
ATOM    117  C   UNL     1     141.697 191.709 205.226  0.00  0.00    -0.040 C 
ATOM    118  H   UNL     1     140.790 191.514 204.648  0.00  0.00    +0.028 HD
ATOM    119  H   UNL     1     142.159 192.611 204.815  0.00  0.00    +0.028 HD
ATOM    120  H   UNL     1     141.408 191.935 206.258  0.00  0.00    +0.028 HD
ENDBRANCH   7 117
BRANCH   1 121
ATOM    121  C   UNL     1     148.794 192.253 203.832  0.00  0.00    +0.020 C 
ATOM    122  H   UNL     1     149.403 192.891 203.179  0.00  0.00    +0.036 HD
BRANCH 121 123
ATOM    123  C   UNL     1     148.137 193.202 204.830  0.00  0.00    -0.057 C 
ATOM    124  H   UNL     1     148.607 194.187 204.831  0.00  0.00    +0.023 HD
ATOM    125  H   UNL     1     147.070 193.319 204.614  0.00  0.00    +0.023 HD
ATOM    126  H   UNL     1     148.168 192.796 205.842  0.00  0.00    +0.023 HD
ENDBRANCH 121 123
BRANCH 121 127
ATOM    127  C   UNL     1     149.784 191.271 204.541  0.00  0.00    +0.064 C 
ATOM    128  H   UNL     1     149.829 191.577 205.594  0.00  0.00    +0.060 HD
BRANCH 127 129
ATOM    129  C   UNL     1     151.238 191.179 203.967  0.00  0.00    -0.017 C 
ATOM    130  H   UNL     1     151.295 190.326 203.287  0.00  0.00    +0.032 HD
BRANCH 129 131
ATOM    131  C   UNL     1     151.515 192.432 203.119  0.00  0.00    -0.060 C 
ATOM    132  H   UNL     1     150.628 193.071 203.051  0.00  0.00    +0.023 HD
ATOM    133  H   UNL     1     151.810 192.156 202.099  0.00  0.00    +0.023 HD
ATOM    134  H   UNL     1     152.333 193.025 203.538  0.00  0.00    +0.023 HD
ENDBRANCH 129 131
BRANCH 129 135
ATOM    135  C   UNL     1     152.333 191.033 205.051  0.00  0.00    -0.046 C 
ATOM    136  H   UNL     1     152.216 191.805 205.817  0.00  0.00    +0.027 HD
ATOM    137  H   UNL     1     153.318 191.212 204.599  0.00  0.00    +0.027 HD
BRANCH 135 138
ATOM    138  C   UNL     1     152.402 189.672 205.765  0.00  0.00    -0.026 C 
ATOM    139  H   UNL     1     153.076 189.042 205.167  0.00  0.00    +0.029 HD
ATOM    140  H   UNL     1     151.421 189.181 205.736  0.00  0.00    +0.029 HD
BRANCH 138 143
ATOM    141  C   UNL     1     152.405 188.770 209.384  0.00  0.00    +0.059 C 
ATOM    142  O   UNL     1     152.280 188.683 207.959  0.00  0.00    -0.373 OA
ATOM    143  C   UNL     1     152.926 189.712 207.209  0.00  0.00    +0.061 C 
ATOM    144  C   UNL     1     152.668 191.088 207.829  0.00  0.00    -0.000 C 
ATOM    145  C   UNL     1     153.167 191.152 209.278  0.00  0.00    +0.063 C 
ATOM    146  C   UNL     1     153.471 189.762 209.835  0.00  0.00    -0.000 C 
ATOM    147  H   UNL     1     151.428 189.087 209.768  0.00  0.00    +0.059 HD
ATOM    148  H   UNL     1     154.003 189.510 207.197  0.00  0.00    +0.060 HD
ATOM    149  H   UNL     1     153.123 191.868 207.209  0.00  0.00    +0.032 HD
ATOM    150  H   UNL     1     151.585 191.265 207.842  0.00  0.00    +0.032 HD
ATOM    151  H   UNL     1     152.396 191.618 209.907  0.00  0.00    +0.060 HD
ATOM    152  H   UNL     1     153.530 189.808 210.929  0.00  0.00    +0.032 HD
ATOM    153  H   UNL     1     154.459 189.433 209.496  0.00  0.00    +0.032 HD
BRANCH 141 154
ATOM    154  C   UNL     1     152.697 187.373 209.913  0.00  0.00    -0.039 C 
ATOM    155  H   UNL     1     151.971 187.078 210.678  0.00  0.00    +0.025 HD
ATOM    156  H   UNL     1     152.665 186.639 209.101  0.00  0.00    +0.025 HD
ATOM    157  H   UNL     1     153.700 187.321 210.348  0.00  0.00    +0.025 HD
ENDBRANCH 141 154
BRANCH 145 158
ATOM    158  O   UNL     1     154.371 191.922 209.374  0.00  0.00    -0.380 OA
BRANCH 158 159
ATOM    159  C   UNL     1     154.477 192.926 208.372  0.00  0.00    +0.037 C 
ATOM    160  H   UNL     1     154.867 193.835 208.842  0.00  0.00    +0.052 HD
ATOM    161  H   UNL     1     155.164 192.625 207.576  0.00  0.00    +0.052 HD
ATOM    162  H   UNL     1     153.491 193.147 207.953  0.00  0.00    +0.052 HD
ENDBRANCH 158 159
ENDBRANCH 145 158
ENDBRANCH 138 143
ENDBRANCH 135 138
ENDBRANCH 129 135
ENDBRANCH 127 129
BRANCH 127 163
ATOM    163  O   UNL     1     149.173 189.974 204.552  0.00  0.00    -0.391 OA
ATOM    164  H   UNL     1     148.935 189.776 205.475  0.00  0.00    +0.210 HD
ENDBRANCH 127 163
ENDBRANCH 121 127
ENDBRANCH   1 121
BRANCH  41 165
ATOM    165  O   UNL     1     148.533 192.237 199.184  0.00  0.00    -0.391 OA
ATOM    166  H   UNL     1     149.304 192.055 198.622  0.00  0.00    +0.210 HD
ENDBRANCH  41 165
BRANCH  39 167
ATOM    167  O   UNL     1     149.332 188.040 200.521  0.00  0.00    -0.391 OA
ATOM    168  H   UNL     1     148.752 187.264 200.428  0.00  0.00    +0.210 HD
ENDBRANCH  39 167
BRANCH  31 169
ATOM    169  O   UNL     1     139.218 190.858 198.375  0.00  0.00    -0.391 OA
ATOM    170  H   UNL     1     138.539 190.724 197.687  0.00  0.00    +0.210 HD
ENDBRANCH  31 169
BRANCH  22 171
ATOM    171  C   UNL     1     137.786 182.836 204.915  0.00  0.00    +0.020 C 
ATOM    172  H   UNL     1     137.728 183.861 205.304  0.00  0.00    +0.036 HD
BRANCH 171 173
ATOM    173  C   UNL     1     136.878 181.932 205.776  0.00  0.00    -0.057 C 
ATOM    174  H   UNL     1     136.160 181.378 205.162  0.00  0.00    +0.023 HD
ATOM    175  H   UNL     1     137.459 181.201 206.346  0.00  0.00    +0.023 HD
ATOM    176  H   UNL     1     136.268 182.501 206.476  0.00  0.00    +0.023 HD
ENDBRANCH 171 173
BRANCH 171 177
ATOM    177  C   UNL     1     139.289 182.404 204.971  0.00  0.00    +0.064 C 
ATOM    178  H   UNL     1     139.697 182.436 203.952  0.00  0.00    +0.060 HD
BRANCH 177 179
ATOM    179  O   UNL     1     140.002 183.365 205.748  0.00  0.00    -0.391 OA
ATOM    180  H   UNL     1     140.174 182.990 206.636  0.00  0.00    +0.210 HD
ENDBRANCH 177 179
BRANCH 177 181
ATOM    181  C   UNL     1     139.635 181.012 205.593  0.00  0.00    -0.017 C 
ATOM    182  H   UNL     1     138.691 180.515 205.856  0.00  0.00    +0.032 HD
BRANCH 181 183
ATOM    183  C   UNL     1     140.401 180.076 204.660  0.00  0.00    -0.060 C 
ATOM    184  H   UNL     1     141.221 180.610 204.172  0.00  0.00    +0.023 HD
ATOM    185  H   UNL     1     139.783 179.714 203.833  0.00  0.00    +0.023 HD
ATOM    186  H   UNL     1     140.791 179.206 205.196  0.00  0.00    +0.023 HD
ENDBRANCH 181 183
BRANCH 181 187
ATOM    187  C   UNL     1     140.402 181.232 206.933  0.00  0.00    -0.046 C 
ATOM    188  H   UNL     1     139.689 181.553 207.702  0.00  0.00    +0.027 HD
ATOM    189  H   UNL     1     141.119 182.054 206.807  0.00  0.00    +0.027 HD
BRANCH 187 190
ATOM    190  C   UNL     1     141.150 179.998 207.458  0.00  0.00    -0.026 C 
ATOM    191  H   UNL     1     140.629 179.086 207.144  0.00  0.00    +0.029 HD
ATOM    192  H   UNL     1     142.152 179.986 207.011  0.00  0.00    +0.029 HD
BRANCH 190 193
ATOM    193  C   UNL     1     141.304 179.995 208.987  0.00  0.00    +0.061 C 
ATOM    194  O   UNL     1     141.492 181.344 209.428  0.00  0.00    -0.373 OA
ATOM    195  C   UNL     1     141.630 181.487 210.845  0.00  0.00    +0.059 C 
ATOM    196  C   UNL     1     142.793 180.643 211.376  0.00  0.00    -0.000 C 
ATOM    197  C   UNL     1     142.752 179.191 210.897  0.00  0.00    +0.063 C 
ATOM    198  C   UNL     1     142.509 179.141 209.389  0.00  0.00    -0.000 C 
ATOM    199  H   UNL     1     140.383 179.590 209.421  0.00  0.00    +0.060 HD
ATOM    200  H   UNL     1     141.894 182.540 211.008  0.00  0.00    +0.059 HD
ATOM    201  H   UNL     1     142.832 180.708 212.466  0.00  0.00    +0.032 HD
ATOM    202  H   UNL     1     143.724 181.084 210.993  0.00  0.00    +0.032 HD
ATOM    203  H   UNL     1     143.714 178.704 211.105  0.00  0.00    +0.060 HD
ATOM    204  H   UNL     1     142.353 178.105 209.066  0.00  0.00    +0.032 HD
ATOM    205  H   UNL     1     143.408 179.520 208.885  0.00  0.00    +0.032 HD
BRANCH 195 206
ATOM    206  C   UNL     1     140.307 181.262 211.573  0.00  0.00    -0.039 C 
ATOM    207  H   UNL     1     139.673 180.576 210.999  0.00  0.00    +0.025 HD
ATOM    208  H   UNL     1     139.768 182.206 211.702  0.00  0.00    +0.025 HD
ATOM    209  H   UNL     1     140.433 180.808 212.559  0.00  0.00    +0.025 HD
ENDBRANCH 195 206
BRANCH 197 210
ATOM    210  O   UNL     1     141.712 178.446 211.537  0.00  0.00    -0.380 OA
BRANCH 210 211
ATOM    211  C   UNL     1     142.031 178.050 212.864  0.00  0.00    +0.037 C 
ATOM    212  H   UNL     1     142.787 178.737 213.253  0.00  0.00    +0.052 HD
ATOM    213  H   UNL     1     141.146 178.111 213.503  0.00  0.00    +0.052 HD
ATOM    214  H   UNL     1     142.442 177.037 212.888  0.00  0.00    +0.052 HD
ENDBRANCH 210 211
ENDBRANCH 197 210
ENDBRANCH 190 193
ENDBRANCH 187 190
ENDBRANCH 181 187
ENDBRANCH 177 181
ENDBRANCH 171 177
ENDBRANCH  22 171
BRANCH  20 215
ATOM    215  O   UNL     1     137.871 182.592 200.255  0.00  0.00    -0.391 OA
ATOM    216  H   UNL     1     136.933 182.687 200.490  0.00  0.00    +0.210 HD
ENDBRANCH  20 215
BRANCH  18 217
ATOM    217  O   UNL     1     141.493 182.126 202.050  0.00  0.00    -0.391 OA
ATOM    218  H   UNL     1     141.815 181.361 202.562  0.00  0.00    +0.210 HD
ENDBRANCH  18 217
BRANCH  10 219
ATOM    219  O   UNL     1     139.012 187.448 205.153  0.00  0.00    -0.391 OA
ATOM    220  H   UNL     1     139.127 186.737 204.500  0.00  0.00    +0.210 HD
ENDBRANCH  10 219
BRANCH  37 221
ATOM    221  O   UNL     1     146.313 189.298 196.997  0.00  0.00    -0.379 OA
BRANCH 221 222
ATOM    222  C   UNL     1     146.286 190.381 196.078  0.00  0.00    +0.037 C 
ATOM    223  H   UNL     1     147.213 190.950 196.196  0.00  0.00    +0.052 HD
ATOM    224  H   UNL     1     146.244 190.004 195.053  0.00  0.00    +0.052 HD
ATOM    225  H   UNL     1     145.441 191.049 196.267  0.00  0.00    +0.052 HD
ENDBRANCH 221 222
ENDBRANCH  37 221
BRANCH  16 226
ATOM    226  O   UNL     1     142.446 184.476 198.650  0.00  0.00    -0.379 OA
BRANCH 226 227
ATOM    227  C   UNL     1     143.843 184.519 198.385  0.00  0.00    +0.037 C 
ATOM    228  H   UNL     1     144.377 184.361 199.327  0.00  0.00    +0.052 HD
ATOM    229  H   UNL     1     144.128 183.725 197.689  0.00  0.00    +0.052 HD
ATOM    230  H   UNL     1     144.131 185.494 197.980  0.00  0.00    +0.052 HD
ENDBRANCH 226 227
ENDBRANCH  16 226
TORSDOF 40
ENDMDL
MODEL 8
REMARK VINA RESULT:      -5.2      3.412     12.210
REMARK  Name = Swinholide A_conf3
REMARK  40 active torsions:
REMARK  status: ('A' for Active; 'I' for Inactive)
REMARK    1  A    between atoms: C_1  and  C_2
REMARK    2  A    between atoms: C_4  and  C_10
REMARK    3  A    between atoms: C_6  and  O_8
REMARK    4  A    between atoms: O_8  and  C_9
REMARK    5  A    between atoms: C_10  and  C_11
REMARK    6  A    between atoms: C_11  and  C_12
REMARK    7  A    between atoms: C_12  and  C_13
REMARK    8  A    between atoms: C_12  and  C_98
REMARK    9  A    between atoms: C_13  and  O_14
REMARK   10  A    between atoms: C_13  and  C_15
REMARK   11  A    between atoms: C_15  and  C_16
REMARK   12  A    between atoms: C_15  and  C_97
REMARK   13  A    between atoms: C_22  and  C_96
REMARK   14  A    between atoms: C_25  and  O_95
REMARK   15  A    between atoms: C_31  and  O_90
REMARK   16  A    between atoms: C_32  and  C_89
REMARK   17  A    between atoms: C_33  and  O_88
REMARK   18  A    between atoms: C_35  and  O_87
REMARK   19  A    between atoms: C_36  and  C_86
REMARK   20  A    between atoms: C_37  and  C_69
REMARK   21  A    between atoms: C_43  and  C_68
REMARK   22  A    between atoms: C_46  and  O_67
REMARK   23  A    between atoms: C_52  and  O_62
REMARK   24  A    between atoms: C_53  and  C_61
REMARK   25  A    between atoms: C_54  and  O_60
REMARK   26  A    between atoms: C_56  and  O_59
REMARK   27  A    between atoms: C_57  and  C_58
REMARK   28  A    between atoms: O_62  and  C_63
REMARK   29  A    between atoms: C_69  and  C_70
REMARK   30  A    between atoms: C_69  and  C_85
REMARK   31  A    between atoms: C_70  and  O_71
REMARK   32  A    between atoms: C_70  and  C_72
REMARK   33  A    between atoms: C_72  and  C_73
REMARK   34  A    between atoms: C_72  and  C_84
REMARK   35  A    between atoms: C_73  and  C_74
REMARK   36  A    between atoms: C_74  and  C_75
REMARK   37  A    between atoms: C_77  and  C_83
REMARK   38  A    between atoms: C_79  and  O_81
REMARK   39  A    between atoms: O_81  and  C_82
REMARK   40  A    between atoms: O_90  and  C_91
REMARK                            x       y       z     vdW  Elec       q    Type
REMARK                         _______ _______ _______ _____ _____    ______ ____
ROOT
ATOM      1  C   UNL     1     157.391 170.821 181.428  0.00  0.00    +0.113 C 
ATOM      2  O   UNL     1     156.588 169.621 181.581  0.00  0.00    -0.458 OA
ATOM      3  C   UNL     1     156.871 168.887 182.690  0.00  0.00    +0.332 C 
ATOM      4  O   UNL     1     157.642 169.207 183.585  0.00  0.00    -0.246 OA
ATOM      5  C   UNL     1     156.181 167.596 182.743  0.00  0.00    +0.023 C 
ATOM      6  C   UNL     1     155.032 167.271 182.133  0.00  0.00    -0.052 C 
ATOM      7  C   UNL     1     154.379 165.987 182.369  0.00  0.00    -0.054 C 
ATOM      8  C   UNL     1     154.266 165.510 183.626  0.00  0.00    -0.079 C 
ATOM      9  C   UNL     1     153.713 164.192 184.079  0.00  0.00    -0.008 C 
ATOM     10  C   UNL     1     154.628 162.957 183.919  0.00  0.00    +0.061 C 
ATOM     11  C   UNL     1     156.139 163.194 183.802  0.00  0.00    +0.003 C 
ATOM     12  C   UNL     1     156.969 163.445 185.072  0.00  0.00    +0.080 C 
ATOM     13  O   UNL     1     158.308 163.642 184.570  0.00  0.00    -0.369 OA
ATOM     14  C   UNL     1     159.241 164.248 185.482  0.00  0.00    +0.065 C 
ATOM     15  C   UNL     1     159.555 163.277 186.633  0.00  0.00    +0.000 C 
ATOM     16  C   UNL     1     160.748 163.669 187.527  0.00  0.00    +0.066 C 
ATOM     17  C   UNL     1     161.072 162.515 188.521  0.00  0.00    +0.009 C 
ATOM     18  C   UNL     1     160.160 162.454 189.781  0.00  0.00    +0.063 C 
ATOM     19  C   UNL     1     159.816 161.010 190.221  0.00  0.00    -0.000 C 
ATOM     20  C   UNL     1     158.975 160.256 189.165  0.00  0.00    +0.064 C 
ATOM     21  C   UNL     1     157.788 159.463 189.777  0.00  0.00    +0.020 C 
ATOM     22  C   UNL     1     156.560 159.305 188.811  0.00  0.00    +0.113 C 
ATOM     23  O   UNL     1     156.900 159.641 187.453  0.00  0.00    -0.458 OA
ATOM     24  C   UNL     1     157.423 158.652 186.688  0.00  0.00    +0.332 C 
ATOM     25  O   UNL     1     157.437 157.460 186.944  0.00  0.00    -0.246 OA
ATOM     26  C   UNL     1     158.003 159.280 185.482  0.00  0.00    +0.023 C 
ATOM     27  C   UNL     1     158.642 158.528 184.574  0.00  0.00    -0.052 C 
ATOM     28  C   UNL     1     159.289 159.043 183.375  0.00  0.00    -0.054 C 
ATOM     29  C   UNL     1     160.051 160.155 183.408  0.00  0.00    -0.079 C 
ATOM     30  C   UNL     1     160.825 160.760 182.266  0.00  0.00    -0.008 C 
ATOM     31  C   UNL     1     160.004 161.819 181.504  0.00  0.00    +0.061 C 
ATOM     32  C   UNL     1     160.472 163.249 181.817  0.00  0.00    +0.003 C 
ATOM     33  C   UNL     1     159.496 164.328 181.314  0.00  0.00    +0.080 C 
ATOM     34  O   UNL     1     159.716 165.568 182.019  0.00  0.00    -0.369 OA
ATOM     35  C   UNL     1     160.754 166.402 181.466  0.00  0.00    +0.065 C 
ATOM     36  C   UNL     1     160.887 167.617 182.409  0.00  0.00    +0.000 C 
ATOM     37  C   UNL     1     161.910 168.683 181.963  0.00  0.00    +0.066 C 
ATOM     38  C   UNL     1     161.955 169.903 182.931  0.00  0.00    +0.009 C 
ATOM     39  C   UNL     1     160.641 170.725 183.051  0.00  0.00    +0.063 C 
ATOM     40  C   UNL     1     160.321 171.845 182.038  0.00  0.00    -0.000 C 
ATOM     41  C   UNL     1     159.804 171.467 180.642  0.00  0.00    +0.064 C 
ATOM     42  C   UNL     1     158.651 170.439 180.591  0.00  0.00    +0.020 C 
ATOM     43  C   UNL     1     160.350 166.820 180.044  0.00  0.00    -0.008 C 
ATOM     44  C   UNL     1     159.914 165.653 179.223  0.00  0.00    -0.083 C 
ATOM     45  C   UNL     1     159.522 164.519 179.816  0.00  0.00    -0.059 C 
ATOM     46  C   UNL     1     158.732 165.636 185.896  0.00  0.00    -0.008 C 
ATOM     47  C   UNL     1     157.299 165.598 186.320  0.00  0.00    -0.083 C 
ATOM     48  C   UNL     1     156.508 164.582 185.944  0.00  0.00    -0.059 C 
ATOM     49  H   UNL     1     157.753 171.115 182.419  0.00  0.00    +0.074 HD
ATOM     50  H   UNL     1     156.669 166.898 183.419  0.00  0.00    +0.069 HD
ATOM     51  H   UNL     1     154.544 167.959 181.447  0.00  0.00    +0.062 HD
ATOM     52  H   UNL     1     154.627 166.128 184.448  0.00  0.00    +0.058 HD
ATOM     53  H   UNL     1     152.761 163.994 183.569  0.00  0.00    +0.033 HD
ATOM     54  H   UNL     1     153.426 164.298 185.134  0.00  0.00    +0.033 HD
ATOM     55  H   UNL     1     154.320 162.459 182.991  0.00  0.00    +0.060 HD
ATOM     56  H   UNL     1     156.353 163.972 183.057  0.00  0.00    +0.032 HD
ATOM     57  H   UNL     1     156.568 162.286 183.349  0.00  0.00    +0.032 HD
ATOM     58  H   UNL     1     156.972 162.530 185.672  0.00  0.00    +0.064 HD
ATOM     59  H   UNL     1     160.158 164.395 184.901  0.00  0.00    +0.060 HD
ATOM     60  H   UNL     1     159.761 162.302 186.174  0.00  0.00    +0.032 HD
ATOM     61  H   UNL     1     158.662 163.126 187.241  0.00  0.00    +0.032 HD
ATOM     62  H   UNL     1     160.529 164.590 188.082  0.00  0.00    +0.060 HD
ATOM     63  H   UNL     1     160.973 161.580 187.956  0.00  0.00    +0.035 HD
ATOM     64  H   UNL     1     160.689 162.938 190.612  0.00  0.00    +0.060 HD
ATOM     65  H   UNL     1     159.245 161.093 191.153  0.00  0.00    +0.032 HD
ATOM     66  H   UNL     1     160.740 160.464 190.445  0.00  0.00    +0.032 HD
ATOM     67  H   UNL     1     158.587 160.986 188.457  0.00  0.00    +0.060 HD
ATOM     68  H   UNL     1     157.440 160.010 190.659  0.00  0.00    +0.036 HD
ATOM     69  H   UNL     1     156.226 158.258 188.817  0.00  0.00    +0.074 HD
ATOM     70  H   UNL     1     157.923 160.356 185.399  0.00  0.00    +0.069 HD
ATOM     71  H   UNL     1     158.695 157.448 184.716  0.00  0.00    +0.062 HD
ATOM     72  H   UNL     1     160.167 160.694 184.349  0.00  0.00    +0.058 HD
ATOM     73  H   UNL     1     161.743 161.201 182.675  0.00  0.00    +0.033 HD
ATOM     74  H   UNL     1     161.174 159.971 181.590  0.00  0.00    +0.033 HD
ATOM     75  H   UNL     1     158.938 161.723 181.742  0.00  0.00    +0.060 HD
ATOM     76  H   UNL     1     160.591 163.364 182.899  0.00  0.00    +0.032 HD
ATOM     77  H   UNL     1     161.465 163.420 181.379  0.00  0.00    +0.032 HD
ATOM     78  H   UNL     1     158.478 164.030 181.590  0.00  0.00    +0.064 HD
ATOM     79  H   UNL     1     161.696 165.839 181.457  0.00  0.00    +0.060 HD
ATOM     80  H   UNL     1     159.893 168.052 182.537  0.00  0.00    +0.032 HD
ATOM     81  H   UNL     1     161.168 167.236 183.401  0.00  0.00    +0.032 HD
ATOM     82  H   UNL     1     161.674 169.020 180.953  0.00  0.00    +0.060 HD
ATOM     83  H   UNL     1     162.155 169.481 183.928  0.00  0.00    +0.035 HD
ATOM     84  H   UNL     1     159.791 170.056 183.126  0.00  0.00    +0.060 HD
ATOM     85  H   UNL     1     161.205 172.486 181.927  0.00  0.00    +0.032 HD
ATOM     86  H   UNL     1     159.570 172.503 182.497  0.00  0.00    +0.032 HD
ATOM     87  H   UNL     1     159.476 172.393 180.153  0.00  0.00    +0.060 HD
ATOM     88  H   UNL     1     159.039 169.520 181.042  0.00  0.00    +0.036 HD
ATOM     89  H   UNL     1     161.180 167.322 179.538  0.00  0.00    +0.033 HD
ATOM     90  H   UNL     1     159.507 167.514 180.083  0.00  0.00    +0.033 HD
ATOM     91  H   UNL     1     159.898 165.746 178.141  0.00  0.00    +0.057 HD
ATOM     92  H   UNL     1     159.208 163.681 179.200  0.00  0.00    +0.059 HD
ATOM     93  H   UNL     1     158.802 166.318 185.039  0.00  0.00    +0.033 HD
ATOM     94  H   UNL     1     159.350 166.055 186.693  0.00  0.00    +0.033 HD
ATOM     95  H   UNL     1     156.921 166.394 186.954  0.00  0.00    +0.057 HD
ATOM     96  H   UNL     1     155.496 164.532 186.329  0.00  0.00    +0.059 HD
ENDROOT
BRANCH  28  97
ATOM     97  C   UNL     1     159.058 158.194 182.153  0.00  0.00    -0.040 C 
ATOM     98  H   UNL     1     159.204 158.738 181.217  0.00  0.00    +0.028 HD
ATOM     99  H   UNL     1     159.736 157.334 182.148  0.00  0.00    +0.028 HD
ATOM    100  H   UNL     1     158.027 157.823 182.141  0.00  0.00    +0.028 HD
ENDBRANCH  28  97
BRANCH  21 101
ATOM    101  C   UNL     1     158.213 158.088 190.314  0.00  0.00    -0.057 C 
ATOM    102  H   UNL     1     158.882 157.568 189.622  0.00  0.00    +0.023 HD
ATOM    103  H   UNL     1     157.337 157.449 190.469  0.00  0.00    +0.023 HD
ATOM    104  H   UNL     1     158.723 158.184 191.278  0.00  0.00    +0.023 HD
ENDBRANCH  21 101
BRANCH  42 105
ATOM    105  C   UNL     1     158.346 170.009 179.146  0.00  0.00    -0.057 C 
ATOM    106  H   UNL     1     158.785 170.718 178.435  0.00  0.00    +0.023 HD
ATOM    107  H   UNL     1     158.761 169.022 178.917  0.00  0.00    +0.023 HD
ATOM    108  H   UNL     1     157.274 170.006 178.938  0.00  0.00    +0.023 HD
ENDBRANCH  42 105
BRANCH  17 109
ATOM    109  C   UNL     1     162.541 162.520 188.982  0.00  0.00    -0.058 C 
ATOM    110  H   UNL     1     162.739 161.708 189.686  0.00  0.00    +0.023 HD
ATOM    111  H   UNL     1     162.805 163.467 189.464  0.00  0.00    +0.023 HD
ATOM    112  H   UNL     1     163.219 162.400 188.129  0.00  0.00    +0.023 HD
ENDBRANCH  17 109
BRANCH  38 113
ATOM    113  C   UNL     1     163.162 170.818 182.664  0.00  0.00    -0.058 C 
ATOM    114  H   UNL     1     164.036 170.509 183.245  0.00  0.00    +0.023 HD
ATOM    115  H   UNL     1     163.434 170.811 181.602  0.00  0.00    +0.023 HD
ATOM    116  H   UNL     1     162.933 171.857 182.922  0.00  0.00    +0.023 HD
ENDBRANCH  38 113
BRANCH   7 117
ATOM    117  C   UNL     1     153.893 165.275 181.141  0.00  0.00    -0.040 C 
ATOM    118  H   UNL     1     152.859 164.948 181.281  0.00  0.00    +0.028 HD
ATOM    119  H   UNL     1     154.487 164.388 180.907  0.00  0.00    +0.028 HD
ATOM    120  H   UNL     1     153.934 165.931 180.265  0.00  0.00    +0.028 HD
ENDBRANCH   7 117
BRANCH   1 121
ATOM    121  C   UNL     1     156.518 172.034 180.988  0.00  0.00    +0.020 C 
ATOM    122  H   UNL     1     157.194 172.727 180.472  0.00  0.00    +0.036 HD
BRANCH 121 123
ATOM    123  C   UNL     1     155.405 171.732 179.988  0.00  0.00    -0.057 C 
ATOM    124  H   UNL     1     154.499 172.304 180.197  0.00  0.00    +0.023 HD
ATOM    125  H   UNL     1     155.731 171.947 178.965  0.00  0.00    +0.023 HD
ATOM    126  H   UNL     1     155.157 170.670 179.979  0.00  0.00    +0.023 HD
ENDBRANCH 121 123
BRANCH 121 127
ATOM    127  C   UNL     1     155.971 172.798 182.240  0.00  0.00    +0.064 C 
ATOM    128  H   UNL     1     154.885 172.884 182.105  0.00  0.00    +0.060 HD
BRANCH 127 129
ATOM    129  C   UNL     1     156.568 174.215 182.532  0.00  0.00    -0.017 C 
ATOM    130  H   UNL     1     155.829 174.972 182.261  0.00  0.00    +0.032 HD
BRANCH 129 131
ATOM    131  C   UNL     1     156.796 174.353 184.047  0.00  0.00    -0.060 C 
ATOM    132  H   UNL     1     155.861 174.577 184.572  0.00  0.00    +0.023 HD
ATOM    133  H   UNL     1     157.506 175.160 184.264  0.00  0.00    +0.023 HD
ATOM    134  H   UNL     1     157.217 173.437 184.473  0.00  0.00    +0.023 HD
ENDBRANCH 129 131
BRANCH 129 135
ATOM    135  C   UNL     1     157.888 174.508 181.779  0.00  0.00    -0.046 C 
ATOM    136  H   UNL     1     158.409 173.575 181.547  0.00  0.00    +0.027 HD
ATOM    137  H   UNL     1     158.565 175.070 182.437  0.00  0.00    +0.027 HD
BRANCH 135 138
ATOM    138  C   UNL     1     157.757 175.310 180.472  0.00  0.00    -0.026 C 
ATOM    139  H   UNL     1     157.893 174.590 179.652  0.00  0.00    +0.029 HD
ATOM    140  H   UNL     1     158.581 176.029 180.387  0.00  0.00    +0.029 HD
BRANCH 138 143
ATOM    141  C   UNL     1     154.392 175.813 178.945  0.00  0.00    +0.059 C 
ATOM    142  O   UNL     1     155.558 175.187 179.494  0.00  0.00    -0.373 OA
ATOM    143  C   UNL     1     156.413 176.027 180.271  0.00  0.00    +0.061 C 
ATOM    144  C   UNL     1     156.629 177.377 179.583  0.00  0.00    -0.000 C 
ATOM    145  C   UNL     1     155.301 178.109 179.354  0.00  0.00    +0.063 C 
ATOM    146  C   UNL     1     154.102 177.182 179.550  0.00  0.00    -0.000 C 
ATOM    147  H   UNL     1     154.569 175.921 177.868  0.00  0.00    +0.059 HD
ATOM    148  H   UNL     1     155.950 176.185 181.252  0.00  0.00    +0.060 HD
ATOM    149  H   UNL     1     157.332 177.985 180.163  0.00  0.00    +0.032 HD
ATOM    150  H   UNL     1     157.083 177.197 178.599  0.00  0.00    +0.032 HD
ATOM    151  H   UNL     1     155.274 178.501 178.328  0.00  0.00    +0.060 HD
ATOM    152  H   UNL     1     153.210 177.633 179.098  0.00  0.00    +0.032 HD
ATOM    153  H   UNL     1     153.878 177.082 180.617  0.00  0.00    +0.032 HD
BRANCH 141 154
ATOM    154  C   UNL     1     153.217 174.866 179.143  0.00  0.00    -0.039 C 
ATOM    155  H   UNL     1     152.775 174.575 178.185  0.00  0.00    +0.025 HD
ATOM    156  H   UNL     1     153.536 173.960 179.669  0.00  0.00    +0.025 HD
ATOM    157  H   UNL     1     152.439 175.331 179.757  0.00  0.00    +0.025 HD
ENDBRANCH 141 154
BRANCH 145 158
ATOM    158  O   UNL     1     155.150 179.199 180.271  0.00  0.00    -0.380 OA
BRANCH 158 159
ATOM    159  C   UNL     1     155.259 180.474 179.650  0.00  0.00    +0.037 C 
ATOM    160  H   UNL     1     156.157 180.965 180.039  0.00  0.00    +0.052 HD
ATOM    161  H   UNL     1     155.355 180.384 178.565  0.00  0.00    +0.052 HD
ATOM    162  H   UNL     1     154.390 181.091 179.900  0.00  0.00    +0.052 HD
ENDBRANCH 158 159
ENDBRANCH 145 158
ENDBRANCH 138 143
ENDBRANCH 135 138
ENDBRANCH 129 135
ENDBRANCH 127 129
BRANCH 127 163
ATOM    163  O   UNL     1     156.143 171.942 183.377  0.00  0.00    -0.391 OA
ATOM    164  H   UNL     1     155.769 171.074 183.143  0.00  0.00    +0.210 HD
ENDBRANCH 127 163
ENDBRANCH 121 127
ENDBRANCH   1 121
BRANCH  41 165
ATOM    165  O   UNL     1     160.915 170.985 179.881  0.00  0.00    -0.391 OA
ATOM    166  H   UNL     1     160.837 170.017 179.832  0.00  0.00    +0.210 HD
ENDBRANCH  41 165
BRANCH  39 167
ATOM    167  O   UNL     1     160.690 171.399 184.332  0.00  0.00    -0.391 OA
ATOM    168  H   UNL     1     160.688 172.353 184.143  0.00  0.00    +0.210 HD
ENDBRANCH  39 167
BRANCH  31 169
ATOM    169  O   UNL     1     160.137 161.568 180.101  0.00  0.00    -0.391 OA
ATOM    170  H   UNL     1     159.637 162.264 179.635  0.00  0.00    +0.210 HD
ENDBRANCH  31 169
BRANCH  22 171
ATOM    171  C   UNL     1     155.308 160.153 189.259  0.00  0.00    +0.020 C 
ATOM    172  H   UNL     1     155.294 160.119 190.356  0.00  0.00    +0.036 HD
BRANCH 171 173
ATOM    173  C   UNL     1     155.560 161.610 188.815  0.00  0.00    -0.057 C 
ATOM    174  H   UNL     1     154.977 161.868 187.925  0.00  0.00    +0.023 HD
ATOM    175  H   UNL     1     155.297 162.324 189.601  0.00  0.00    +0.023 HD
ATOM    176  H   UNL     1     156.597 161.785 188.532  0.00  0.00    +0.023 HD
ENDBRANCH 171 173
BRANCH 171 177
ATOM    177  C   UNL     1     153.929 159.604 188.761  0.00  0.00    +0.064 C 
ATOM    178  H   UNL     1     154.080 158.590 188.370  0.00  0.00    +0.060 HD
BRANCH 177 179
ATOM    179  O   UNL     1     153.056 159.504 189.886  0.00  0.00    -0.391 OA
ATOM    180  H   UNL     1     153.492 159.910 190.663  0.00  0.00    +0.210 HD
ENDBRANCH 177 179
BRANCH 177 181
ATOM    181  C   UNL     1     153.148 160.431 187.689  0.00  0.00    -0.017 C 
ATOM    182  H   UNL     1     153.874 161.054 187.148  0.00  0.00    +0.032 HD
BRANCH 181 183
ATOM    183  C   UNL     1     152.411 159.585 186.653  0.00  0.00    -0.060 C 
ATOM    184  H   UNL     1     152.734 159.851 185.643  0.00  0.00    +0.023 HD
ATOM    185  H   UNL     1     151.333 159.774 186.650  0.00  0.00    +0.023 HD
ATOM    186  H   UNL     1     152.566 158.516 186.823  0.00  0.00    +0.023 HD
ENDBRANCH 181 183
BRANCH 181 187
ATOM    187  C   UNL     1     152.179 161.415 188.413  0.00  0.00    -0.046 C 
ATOM    188  H   UNL     1     152.640 161.740 189.353  0.00  0.00    +0.027 HD
ATOM    189  H   UNL     1     151.259 160.880 188.684  0.00  0.00    +0.027 HD
BRANCH 187 190
ATOM    190  C   UNL     1     151.805 162.666 187.604  0.00  0.00    -0.026 C 
ATOM    191  H   UNL     1     152.249 162.608 186.603  0.00  0.00    +0.029 HD
ATOM    192  H   UNL     1     150.714 162.689 187.490  0.00  0.00    +0.029 HD
BRANCH 190 193
ATOM    193  C   UNL     1     152.246 163.972 188.281  0.00  0.00    +0.061 C 
ATOM    194  O   UNL     1     153.284 164.565 187.493  0.00  0.00    -0.373 OA
ATOM    195  C   UNL     1     153.776 165.807 188.005  0.00  0.00    +0.059 C 
ATOM    196  C   UNL     1     154.293 165.650 189.438  0.00  0.00    -0.000 C 
ATOM    197  C   UNL     1     153.301 164.944 190.363  0.00  0.00    +0.063 C 
ATOM    198  C   UNL     1     152.763 163.681 189.692  0.00  0.00    -0.000 C 
ATOM    199  H   UNL     1     151.382 164.645 188.319  0.00  0.00    +0.060 HD
ATOM    200  H   UNL     1     154.639 166.062 187.376  0.00  0.00    +0.059 HD
ATOM    201  H   UNL     1     154.593 166.624 189.834  0.00  0.00    +0.032 HD
ATOM    202  H   UNL     1     155.197 165.027 189.398  0.00  0.00    +0.032 HD
ATOM    203  H   UNL     1     153.805 164.651 191.293  0.00  0.00    +0.060 HD
ATOM    204  H   UNL     1     151.961 163.244 190.298  0.00  0.00    +0.032 HD
ATOM    205  H   UNL     1     153.580 162.950 189.637  0.00  0.00    +0.032 HD
BRANCH 195 206
ATOM    206  C   UNL     1     152.767 166.939 187.821  0.00  0.00    -0.039 C 
ATOM    207  H   UNL     1     151.769 166.608 188.129  0.00  0.00    +0.025 HD
ATOM    208  H   UNL     1     152.721 167.253 186.774  0.00  0.00    +0.025 HD
ATOM    209  H   UNL     1     152.998 167.819 188.427  0.00  0.00    +0.025 HD
ENDBRANCH 195 206
BRANCH 197 210
ATOM    210  O   UNL     1     152.186 165.780 190.688  0.00  0.00    -0.380 OA
BRANCH 210 211
ATOM    211  C   UNL     1     152.475 166.749 191.687  0.00  0.00    +0.037 C 
ATOM    212  H   UNL     1     152.141 167.724 191.324  0.00  0.00    +0.052 HD
ATOM    213  H   UNL     1     151.934 166.518 192.609  0.00  0.00    +0.052 HD
ATOM    214  H   UNL     1     153.549 166.806 191.887  0.00  0.00    +0.052 HD
ENDBRANCH 210 211
ENDBRANCH 197 210
ENDBRANCH 190 193
ENDBRANCH 187 190
ENDBRANCH 181 187
ENDBRANCH 177 181
ENDBRANCH 171 177
ENDBRANCH  22 171
BRANCH  20 215
ATOM    215  O   UNL     1     159.835 159.407 188.403  0.00  0.00    -0.391 OA
ATOM    216  H   UNL     1     159.301 158.736 187.946  0.00  0.00    +0.210 HD
ENDBRANCH  20 215
BRANCH  18 217
ATOM    217  O   UNL     1     158.936 163.179 189.635  0.00  0.00    -0.391 OA
ATOM    218  H   UNL     1     158.707 163.529 190.517  0.00  0.00    +0.210 HD
ENDBRANCH  18 217
BRANCH  10 219
ATOM    219  O   UNL     1     154.339 162.042 184.978  0.00  0.00    -0.391 OA
ATOM    220  H   UNL     1     153.454 162.246 185.326  0.00  0.00    +0.210 HD
ENDBRANCH  10 219
BRANCH  37 221
ATOM    221  O   UNL     1     163.194 168.031 181.986  0.00  0.00    -0.379 OA
BRANCH 221 222
ATOM    222  C   UNL     1     163.835 167.997 180.718  0.00  0.00    +0.037 C 
ATOM    223  H   UNL     1     164.898 167.799 180.879  0.00  0.00    +0.052 HD
ATOM    224  H   UNL     1     163.424 167.186 180.111  0.00  0.00    +0.052 HD
ATOM    225  H   UNL     1     163.733 168.950 180.190  0.00  0.00    +0.052 HD
ENDBRANCH 221 222
ENDBRANCH  37 221
BRANCH  16 226
ATOM    226  O   UNL     1     161.875 163.861 186.655  0.00  0.00    -0.379 OA
BRANCH 226 227
ATOM    227  C   UNL     1     162.408 165.179 186.703  0.00  0.00    +0.037 C 
ATOM    228  H   UNL     1     162.781 165.364 187.715  0.00  0.00    +0.052 HD
ATOM    229  H   UNL     1     163.241 165.284 186.002  0.00  0.00    +0.052 HD
ATOM    230  H   UNL     1     161.633 165.918 186.478  0.00  0.00    +0.052 HD
ENDBRANCH 226 227
ENDBRANCH  16 226
TORSDOF 40
ENDMDL
MODEL 9
REMARK VINA RESULT:      -5.2      9.545     14.918
REMARK  Name = Swinholide A_conf3
REMARK  40 active torsions:
REMARK  status: ('A' for Active; 'I' for Inactive)
REMARK    1  A    between atoms: C_1  and  C_2
REMARK    2  A    between atoms: C_4  and  C_10
REMARK    3  A    between atoms: C_6  and  O_8
REMARK    4  A    between atoms: O_8  and  C_9
REMARK    5  A    between atoms: C_10  and  C_11
REMARK    6  A    between atoms: C_11  and  C_12
REMARK    7  A    between atoms: C_12  and  C_13
REMARK    8  A    between atoms: C_12  and  C_98
REMARK    9  A    between atoms: C_13  and  O_14
REMARK   10  A    between atoms: C_13  and  C_15
REMARK   11  A    between atoms: C_15  and  C_16
REMARK   12  A    between atoms: C_15  and  C_97
REMARK   13  A    between atoms: C_22  and  C_96
REMARK   14  A    between atoms: C_25  and  O_95
REMARK   15  A    between atoms: C_31  and  O_90
REMARK   16  A    between atoms: C_32  and  C_89
REMARK   17  A    between atoms: C_33  and  O_88
REMARK   18  A    between atoms: C_35  and  O_87
REMARK   19  A    between atoms: C_36  and  C_86
REMARK   20  A    between atoms: C_37  and  C_69
REMARK   21  A    between atoms: C_43  and  C_68
REMARK   22  A    between atoms: C_46  and  O_67
REMARK   23  A    between atoms: C_52  and  O_62
REMARK   24  A    between atoms: C_53  and  C_61
REMARK   25  A    between atoms: C_54  and  O_60
REMARK   26  A    between atoms: C_56  and  O_59
REMARK   27  A    between atoms: C_57  and  C_58
REMARK   28  A    between atoms: O_62  and  C_63
REMARK   29  A    between atoms: C_69  and  C_70
REMARK   30  A    between atoms: C_69  and  C_85
REMARK   31  A    between atoms: C_70  and  O_71
REMARK   32  A    between atoms: C_70  and  C_72
REMARK   33  A    between atoms: C_72  and  C_73
REMARK   34  A    between atoms: C_72  and  C_84
REMARK   35  A    between atoms: C_73  and  C_74
REMARK   36  A    between atoms: C_74  and  C_75
REMARK   37  A    between atoms: C_77  and  C_83
REMARK   38  A    between atoms: C_79  and  O_81
REMARK   39  A    between atoms: O_81  and  C_82
REMARK   40  A    between atoms: O_90  and  C_91
REMARK                            x       y       z     vdW  Elec       q    Type
REMARK                         _______ _______ _______ _____ _____    ______ ____
ROOT
ATOM      1  C   UNL     1     146.599 166.739 187.662  0.00  0.00    +0.113 C 
ATOM      2  O   UNL     1     146.675 167.597 186.493  0.00  0.00    -0.458 OA
ATOM      3  C   UNL     1     146.444 168.914 186.742  0.00  0.00    +0.332 C 
ATOM      4  O   UNL     1     146.293 169.421 187.845  0.00  0.00    -0.246 OA
ATOM      5  C   UNL     1     146.349 169.741 185.535  0.00  0.00    +0.023 C 
ATOM      6  C   UNL     1     146.892 169.481 184.337  0.00  0.00    -0.052 C 
ATOM      7  C   UNL     1     146.832 170.451 183.247  0.00  0.00    -0.054 C 
ATOM      8  C   UNL     1     147.096 171.752 183.487  0.00  0.00    -0.079 C 
ATOM      9  C   UNL     1     147.012 172.913 182.542  0.00  0.00    -0.008 C 
ATOM     10  C   UNL     1     145.603 173.472 182.245  0.00  0.00    +0.061 C 
ATOM     11  C   UNL     1     144.486 173.180 183.256  0.00  0.00    +0.003 C 
ATOM     12  C   UNL     1     144.378 174.028 184.533  0.00  0.00    +0.080 C 
ATOM     13  O   UNL     1     143.251 173.455 185.228  0.00  0.00    -0.369 OA
ATOM     14  C   UNL     1     143.123 173.802 186.619  0.00  0.00    +0.065 C 
ATOM     15  C   UNL     1     142.761 175.291 186.757  0.00  0.00    +0.000 C 
ATOM     16  C   UNL     1     142.312 175.738 188.162  0.00  0.00    +0.066 C 
ATOM     17  C   UNL     1     141.796 177.206 188.115  0.00  0.00    +0.009 C 
ATOM     18  C   UNL     1     142.906 178.297 188.133  0.00  0.00    +0.063 C 
ATOM     19  C   UNL     1     142.588 179.512 187.229  0.00  0.00    -0.000 C 
ATOM     20  C   UNL     1     142.519 179.133 185.732  0.00  0.00    +0.064 C 
ATOM     21  C   UNL     1     143.259 180.139 184.808  0.00  0.00    +0.020 C 
ATOM     22  C   UNL     1     143.831 179.497 183.493  0.00  0.00    +0.113 C 
ATOM     23  O   UNL     1     143.282 178.188 183.253  0.00  0.00    -0.458 OA
ATOM     24  C   UNL     1     142.108 178.128 182.579  0.00  0.00    +0.332 C 
ATOM     25  O   UNL     1     141.573 179.034 181.961  0.00  0.00    -0.246 OA
ATOM     26  C   UNL     1     141.569 176.763 182.742  0.00  0.00    +0.023 C 
ATOM     27  C   UNL     1     140.376 176.444 182.218  0.00  0.00    -0.052 C 
ATOM     28  C   UNL     1     139.727 175.147 182.353  0.00  0.00    -0.054 C 
ATOM     29  C   UNL     1     139.701 174.492 183.532  0.00  0.00    -0.079 C 
ATOM     30  C   UNL     1     139.017 173.183 183.829  0.00  0.00    -0.008 C 
ATOM     31  C   UNL     1     139.956 171.978 183.627  0.00  0.00    +0.061 C 
ATOM     32  C   UNL     1     140.419 171.375 184.963  0.00  0.00    +0.003 C 
ATOM     33  C   UNL     1     141.577 170.373 184.804  0.00  0.00    +0.080 C 
ATOM     34  O   UNL     1     142.269 170.208 186.059  0.00  0.00    -0.369 OA
ATOM     35  C   UNL     1     141.689 169.231 186.946  0.00  0.00    +0.065 C 
ATOM     36  C   UNL     1     142.517 169.277 188.248  0.00  0.00    +0.000 C 
ATOM     37  C   UNL     1     142.101 168.251 189.324  0.00  0.00    +0.066 C 
ATOM     38  C   UNL     1     143.011 168.317 190.589  0.00  0.00    +0.009 C 
ATOM     39  C   UNL     1     144.512 167.983 190.365  0.00  0.00    +0.063 C 
ATOM     40  C   UNL     1     145.001 166.519 190.383  0.00  0.00    -0.000 C 
ATOM     41  C   UNL     1     144.754 165.631 189.155  0.00  0.00    +0.064 C 
ATOM     42  C   UNL     1     145.127 166.237 187.783  0.00  0.00    +0.020 C 
ATOM     43  C   UNL     1     141.750 167.851 186.275  0.00  0.00    -0.008 C 
ATOM     44  C   UNL     1     141.227 167.888 184.877  0.00  0.00    -0.083 C 
ATOM     45  C   UNL     1     141.156 169.047 184.214  0.00  0.00    -0.059 C 
ATOM     46  C   UNL     1     144.373 173.342 187.382  0.00  0.00    -0.008 C 
ATOM     47  C   UNL     1     145.631 173.764 186.693  0.00  0.00    -0.083 C 
ATOM     48  C   UNL     1     145.614 174.085 185.391  0.00  0.00    -0.059 C 
ATOM     49  H   UNL     1     146.792 167.354 188.548  0.00  0.00    +0.074 HD
ATOM     50  H   UNL     1     145.830 170.678 185.721  0.00  0.00    +0.069 HD
ATOM     51  H   UNL     1     147.402 168.542 184.141  0.00  0.00    +0.062 HD
ATOM     52  H   UNL     1     147.398 172.041 184.494  0.00  0.00    +0.058 HD
ATOM     53  H   UNL     1     147.497 172.653 181.592  0.00  0.00    +0.033 HD
ATOM     54  H   UNL     1     147.644 173.715 182.945  0.00  0.00    +0.033 HD
ATOM     55  H   UNL     1     145.284 173.025 181.294  0.00  0.00    +0.060 HD
ATOM     56  H   UNL     1     144.467 172.113 183.514  0.00  0.00    +0.032 HD
ATOM     57  H   UNL     1     143.532 173.330 182.725  0.00  0.00    +0.032 HD
ATOM     58  H   UNL     1     144.108 175.051 184.250  0.00  0.00    +0.064 HD
ATOM     59  H   UNL     1     142.278 173.210 186.987  0.00  0.00    +0.060 HD
ATOM     60  H   UNL     1     141.946 175.483 186.046  0.00  0.00    +0.032 HD
ATOM     61  H   UNL     1     143.593 175.905 186.413  0.00  0.00    +0.032 HD
ATOM     62  H   UNL     1     143.140 175.656 188.877  0.00  0.00    +0.060 HD
ATOM     63  H   UNL     1     141.209 177.301 187.193  0.00  0.00    +0.035 HD
ATOM     64  H   UNL     1     143.011 178.665 189.162  0.00  0.00    +0.060 HD
ATOM     65  H   UNL     1     143.393 180.240 187.386  0.00  0.00    +0.032 HD
ATOM     66  H   UNL     1     141.652 179.979 187.556  0.00  0.00    +0.032 HD
ATOM     67  H   UNL     1     142.964 178.147 185.612  0.00  0.00    +0.060 HD
ATOM     68  H   UNL     1     144.108 180.545 185.368  0.00  0.00    +0.036 HD
ATOM     69  H   UNL     1     143.563 180.129 182.635  0.00  0.00    +0.074 HD
ATOM     70  H   UNL     1     142.153 176.068 183.329  0.00  0.00    +0.069 HD
ATOM     71  H   UNL     1     139.829 177.190 181.639  0.00  0.00    +0.062 HD
ATOM     72  H   UNL     1     140.197 174.933 184.398  0.00  0.00    +0.058 HD
ATOM     73  H   UNL     1     138.650 173.221 184.864  0.00  0.00    +0.033 HD
ATOM     74  H   UNL     1     138.113 173.086 183.218  0.00  0.00    +0.033 HD
ATOM     75  H   UNL     1     140.832 172.268 183.034  0.00  0.00    +0.060 HD
ATOM     76  H   UNL     1     140.742 172.178 185.631  0.00  0.00    +0.032 HD
ATOM     77  H   UNL     1     139.574 170.882 185.462  0.00  0.00    +0.032 HD
ATOM     78  H   UNL     1     142.324 170.810 184.131  0.00  0.00    +0.064 HD
ATOM     79  H   UNL     1     140.652 169.518 187.161  0.00  0.00    +0.060 HD
ATOM     80  H   UNL     1     143.570 169.164 187.980  0.00  0.00    +0.032 HD
ATOM     81  H   UNL     1     142.429 170.292 188.660  0.00  0.00    +0.032 HD
ATOM     82  H   UNL     1     142.125 167.245 188.903  0.00  0.00    +0.060 HD
ATOM     83  H   UNL     1     142.968 169.364 190.927  0.00  0.00    +0.035 HD
ATOM     84  H   UNL     1     144.870 168.468 189.463  0.00  0.00    +0.060 HD
ATOM     85  H   UNL     1     144.591 166.019 191.270  0.00  0.00    +0.032 HD
ATOM     86  H   UNL     1     146.085 166.534 190.563  0.00  0.00    +0.032 HD
ATOM     87  H   UNL     1     145.325 164.705 189.300  0.00  0.00    +0.060 HD
ATOM     88  H   UNL     1     144.500 167.126 187.660  0.00  0.00    +0.036 HD
ATOM     89  H   UNL     1     141.180 167.115 186.849  0.00  0.00    +0.033 HD
ATOM     90  H   UNL     1     142.785 167.508 186.217  0.00  0.00    +0.033 HD
ATOM     91  H   UNL     1     140.928 166.958 184.402  0.00  0.00    +0.057 HD
ATOM     92  H   UNL     1     140.772 169.053 183.197  0.00  0.00    +0.059 HD
ATOM     93  H   UNL     1     144.381 172.247 187.439  0.00  0.00    +0.033 HD
ATOM     94  H   UNL     1     144.362 173.718 188.408  0.00  0.00    +0.033 HD
ATOM     95  H   UNL     1     146.548 173.824 187.271  0.00  0.00    +0.057 HD
ATOM     96  H   UNL     1     146.519 174.465 184.931  0.00  0.00    +0.059 HD
ENDROOT
BRANCH  28  97
ATOM     97  C   UNL     1     139.071 174.665 181.087  0.00  0.00    -0.040 C 
ATOM     98  H   UNL     1     139.749 174.647 180.231  0.00  0.00    +0.028 HD
ATOM     99  H   UNL     1     138.675 173.652 181.220  0.00  0.00    +0.028 HD
ATOM    100  H   UNL     1     138.242 175.328 180.815  0.00  0.00    +0.028 HD
ENDBRANCH  28  97
BRANCH  21 101
ATOM    101  C   UNL     1     142.398 181.363 184.462  0.00  0.00    -0.057 C 
ATOM    102  H   UNL     1     141.830 181.216 183.538  0.00  0.00    +0.023 HD
ATOM    103  H   UNL     1     143.027 182.249 184.324  0.00  0.00    +0.023 HD
ATOM    104  H   UNL     1     141.691 181.586 185.268  0.00  0.00    +0.023 HD
ENDBRANCH  21 101
BRANCH  42 105
ATOM    105  C   UNL     1     144.670 165.332 186.626  0.00  0.00    -0.057 C 
ATOM    106  H   UNL     1     145.030 165.724 185.668  0.00  0.00    +0.023 HD
ATOM    107  H   UNL     1     145.061 164.313 186.725  0.00  0.00    +0.023 HD
ATOM    108  H   UNL     1     143.582 165.293 186.541  0.00  0.00    +0.023 HD
ENDBRANCH  42 105
BRANCH  17 109
ATOM    109  C   UNL     1     140.787 177.520 189.234  0.00  0.00    -0.058 C 
ATOM    110  H   UNL     1     140.834 178.572 189.529  0.00  0.00    +0.023 HD
ATOM    111  H   UNL     1     140.970 176.905 190.122  0.00  0.00    +0.023 HD
ATOM    112  H   UNL     1     139.762 177.306 188.909  0.00  0.00    +0.023 HD
ENDBRANCH  17 109
BRANCH  38 113
ATOM    113  C   UNL     1     142.432 167.518 191.768  0.00  0.00    -0.058 C 
ATOM    114  H   UNL     1     141.875 166.642 191.424  0.00  0.00    +0.023 HD
ATOM    115  H   UNL     1     143.227 167.179 192.442  0.00  0.00    +0.023 HD
ATOM    116  H   UNL     1     141.755 168.136 192.367  0.00  0.00    +0.023 HD
ENDBRANCH  38 113
BRANCH   7 117
ATOM    117  C   UNL     1     146.446 169.894 181.909  0.00  0.00    -0.040 C 
ATOM    118  H   UNL     1     147.275 169.321 181.487  0.00  0.00    +0.028 HD
ATOM    119  H   UNL     1     146.187 170.674 181.188  0.00  0.00    +0.028 HD
ATOM    120  H   UNL     1     145.577 169.233 181.995  0.00  0.00    +0.028 HD
ENDBRANCH   7 117
BRANCH   1 121
ATOM    121  C   UNL     1     147.765 165.705 187.681  0.00  0.00    +0.020 C 
ATOM    122  H   UNL     1     147.397 164.839 188.245  0.00  0.00    +0.036 HD
BRANCH 121 123
ATOM    123  C   UNL     1     148.195 165.154 186.324  0.00  0.00    -0.057 C 
ATOM    124  H   UNL     1     149.044 165.700 185.909  0.00  0.00    +0.023 HD
ATOM    125  H   UNL     1     148.458 164.094 186.399  0.00  0.00    +0.023 HD
ATOM    126  H   UNL     1     147.373 165.182 185.606  0.00  0.00    +0.023 HD
ENDBRANCH 121 123
BRANCH 121 127
ATOM    127  C   UNL     1     148.985 166.270 188.482  0.00  0.00    +0.064 C 
ATOM    128  H   UNL     1     149.739 165.473 188.509  0.00  0.00    +0.060 HD
BRANCH 127 129
ATOM    129  C   UNL     1     148.715 166.774 189.939  0.00  0.00    -0.017 C 
ATOM    130  H   UNL     1     147.866 166.223 190.350  0.00  0.00    +0.032 HD
BRANCH 129 131
ATOM    131  C   UNL     1     149.928 166.423 190.818  0.00  0.00    -0.060 C 
ATOM    132  H   UNL     1     150.259 165.393 190.646  0.00  0.00    +0.023 HD
ATOM    133  H   UNL     1     149.684 166.525 191.881  0.00  0.00    +0.023 HD
ATOM    134  H   UNL     1     150.772 167.091 190.619  0.00  0.00    +0.023 HD
ENDBRANCH 129 131
BRANCH 129 135
ATOM    135  C   UNL     1     148.425 168.290 190.036  0.00  0.00    -0.046 C 
ATOM    136  H   UNL     1     147.365 168.487 189.850  0.00  0.00    +0.027 HD
ATOM    137  H   UNL     1     148.968 168.816 189.239  0.00  0.00    +0.027 HD
BRANCH 135 138
ATOM    138  C   UNL     1     148.800 168.969 191.365  0.00  0.00    -0.026 C 
ATOM    139  H   UNL     1     149.897 169.039 191.378  0.00  0.00    +0.029 HD
ATOM    140  H   UNL     1     148.526 168.324 192.208  0.00  0.00    +0.029 HD
BRANCH 138 143
ATOM    141  C   UNL     1     146.565 171.851 190.582  0.00  0.00    +0.059 C 
ATOM    142  O   UNL     1     147.053 170.515 190.760  0.00  0.00    -0.373 OA
ATOM    143  C   UNL     1     148.220 170.377 191.571  0.00  0.00    +0.061 C 
ATOM    144  C   UNL     1     149.265 171.439 191.216  0.00  0.00    -0.000 C 
ATOM    145  C   UNL     1     148.707 172.856 191.396  0.00  0.00    +0.063 C 
ATOM    146  C   UNL     1     147.186 172.852 191.547  0.00  0.00    -0.000 C 
ATOM    147  H   UNL     1     146.806 172.140 189.552  0.00  0.00    +0.059 HD
ATOM    148  H   UNL     1     147.929 170.486 192.622  0.00  0.00    +0.060 HD
ATOM    149  H   UNL     1     150.173 171.282 191.807  0.00  0.00    +0.032 HD
ATOM    150  H   UNL     1     149.534 171.320 190.158  0.00  0.00    +0.032 HD
ATOM    151  H   UNL     1     148.969 173.464 190.519  0.00  0.00    +0.060 HD
ATOM    152  H   UNL     1     146.796 173.863 191.374  0.00  0.00    +0.032 HD
ATOM    153  H   UNL     1     146.915 172.600 192.578  0.00  0.00    +0.032 HD
BRANCH 141 154
ATOM    154  C   UNL     1     145.050 171.816 190.726  0.00  0.00    -0.039 C 
ATOM    155  H   UNL     1     144.625 172.824 190.698  0.00  0.00    +0.025 HD
ATOM    156  H   UNL     1     144.599 171.225 189.922  0.00  0.00    +0.025 HD
ATOM    157  H   UNL     1     144.758 171.342 191.670  0.00  0.00    +0.025 HD
ENDBRANCH 141 154
BRANCH 145 158
ATOM    158  O   UNL     1     149.250 173.476 192.568  0.00  0.00    -0.380 OA
BRANCH 158 159
ATOM    159  C   UNL     1     149.457 172.566 193.641  0.00  0.00    +0.037 C 
ATOM    160  H   UNL     1     150.240 171.862 193.342  0.00  0.00    +0.052 HD
ATOM    161  H   UNL     1     149.784 173.084 194.547  0.00  0.00    +0.052 HD
ATOM    162  H   UNL     1     148.540 172.002 193.840  0.00  0.00    +0.052 HD
ENDBRANCH 158 159
ENDBRANCH 145 158
ENDBRANCH 138 143
ENDBRANCH 135 138
ENDBRANCH 129 135
ENDBRANCH 127 129
BRANCH 127 163
ATOM    163  O   UNL     1     149.571 167.316 187.696  0.00  0.00    -0.391 OA
ATOM    164  H   UNL     1     150.002 167.933 188.314  0.00  0.00    +0.210 HD
ENDBRANCH 127 163
ENDBRANCH 121 127
ENDBRANCH   1 121
BRANCH  41 165
ATOM    165  O   UNL     1     143.374 165.255 189.158  0.00  0.00    -0.391 OA
ATOM    166  H   UNL     1     143.283 164.479 188.580  0.00  0.00    +0.210 HD
ENDBRANCH  41 165
BRANCH  39 167
ATOM    167  O   UNL     1     145.243 168.623 191.439  0.00  0.00    -0.391 OA
ATOM    168  H   UNL     1     145.950 168.007 191.698  0.00  0.00    +0.210 HD
ENDBRANCH  39 167
BRANCH  31 169
ATOM    169  O   UNL     1     139.256 170.985 182.870  0.00  0.00    -0.391 OA
ATOM    170  H   UNL     1     139.846 170.708 182.144  0.00  0.00    +0.210 HD
ENDBRANCH  31 169
BRANCH  22 171
ATOM    171  C   UNL     1     145.406 179.411 183.483  0.00  0.00    +0.020 C 
ATOM    172  H   UNL     1     145.716 179.378 184.535  0.00  0.00    +0.036 HD
BRANCH 171 173
ATOM    173  C   UNL     1     145.786 178.071 182.816  0.00  0.00    -0.057 C 
ATOM    174  H   UNL     1     146.070 177.317 183.557  0.00  0.00    +0.023 HD
ATOM    175  H   UNL     1     144.958 177.663 182.228  0.00  0.00    +0.023 HD
ATOM    176  H   UNL     1     146.653 178.164 182.163  0.00  0.00    +0.023 HD
ENDBRANCH 171 173
BRANCH 171 177
ATOM    177  C   UNL     1     146.128 180.634 182.825  0.00  0.00    +0.064 C 
ATOM    178  H   UNL     1     146.984 180.263 182.248  0.00  0.00    +0.060 HD
BRANCH 177 179
ATOM    179  O   UNL     1     145.223 181.243 181.904  0.00  0.00    -0.391 OA
ATOM    180  H   UNL     1     144.682 181.905 182.382  0.00  0.00    +0.210 HD
ENDBRANCH 177 179
BRANCH 177 181
ATOM    181  C   UNL     1     146.627 181.786 183.756  0.00  0.00    -0.017 C 
ATOM    182  H   UNL     1     147.619 182.100 183.403  0.00  0.00    +0.032 HD
BRANCH 181 183
ATOM    183  C   UNL     1     145.732 183.023 183.765  0.00  0.00    -0.060 C 
ATOM    184  H   UNL     1     144.870 182.866 184.419  0.00  0.00    +0.023 HD
ATOM    185  H   UNL     1     145.293 183.228 182.784  0.00  0.00    +0.023 HD
ATOM    186  H   UNL     1     146.281 183.914 184.083  0.00  0.00    +0.023 HD
ENDBRANCH 181 183
BRANCH 181 187
ATOM    187  C   UNL     1     146.832 181.223 185.196  0.00  0.00    -0.046 C 
ATOM    188  H   UNL     1     147.168 180.180 185.125  0.00  0.00    +0.027 HD
ATOM    189  H   UNL     1     145.866 181.205 185.717  0.00  0.00    +0.027 HD
BRANCH 187 190
ATOM    190  C   UNL     1     147.846 181.995 186.053  0.00  0.00    -0.026 C 
ATOM    191  H   UNL     1     148.812 181.477 186.044  0.00  0.00    +0.029 HD
ATOM    192  H   UNL     1     147.989 182.987 185.606  0.00  0.00    +0.029 HD
BRANCH 190 193
ATOM    193  C   UNL     1     147.383 182.184 187.506  0.00  0.00    +0.061 C 
ATOM    194  O   UNL     1     147.957 181.143 188.304  0.00  0.00    -0.373 OA
ATOM    195  C   UNL     1     147.620 181.213 189.693  0.00  0.00    +0.059 C 
ATOM    196  C   UNL     1     146.102 181.191 189.897  0.00  0.00    -0.000 C 
ATOM    197  C   UNL     1     145.362 182.206 189.024  0.00  0.00    +0.063 C 
ATOM    198  C   UNL     1     145.855 182.118 187.580  0.00  0.00    -0.000 C 
ATOM    199  H   UNL     1     147.744 183.158 187.854  0.00  0.00    +0.060 HD
ATOM    200  H   UNL     1     148.019 180.292 190.138  0.00  0.00    +0.059 HD
ATOM    201  H   UNL     1     145.867 181.321 190.957  0.00  0.00    +0.032 HD
ATOM    202  H   UNL     1     145.743 180.193 189.608  0.00  0.00    +0.032 HD
ATOM    203  H   UNL     1     144.286 181.988 189.032  0.00  0.00    +0.060 HD
ATOM    204  H   UNL     1     145.420 182.927 186.983  0.00  0.00    +0.032 HD
ATOM    205  H   UNL     1     145.511 181.164 187.160  0.00  0.00    +0.032 HD
BRANCH 195 206
ATOM    206  C   UNL     1     148.332 182.367 190.396  0.00  0.00    -0.039 C 
ATOM    207  H   UNL     1     148.679 183.100 189.658  0.00  0.00    +0.025 HD
ATOM    208  H   UNL     1     149.197 182.006 190.959  0.00  0.00    +0.025 HD
ATOM    209  H   UNL     1     147.684 182.912 191.087  0.00  0.00    +0.025 HD
ENDBRANCH 195 206
BRANCH 197 210
ATOM    210  O   UNL     1     145.563 183.548 189.479  0.00  0.00    -0.380 OA
BRANCH 210 211
ATOM    211  C   UNL     1     144.881 183.845 190.690  0.00  0.00    +0.037 C 
ATOM    212  H   UNL     1     145.072 183.034 191.396  0.00  0.00    +0.052 HD
ATOM    213  H   UNL     1     145.259 184.776 191.121  0.00  0.00    +0.052 HD
ATOM    214  H   UNL     1     143.802 183.916 190.531  0.00  0.00    +0.052 HD
ENDBRANCH 210 211
ENDBRANCH 197 210
ENDBRANCH 190 193
ENDBRANCH 187 190
ENDBRANCH 181 187
ENDBRANCH 177 181
ENDBRANCH 171 177
ENDBRANCH  22 171
BRANCH  20 215
ATOM    215  O   UNL     1     141.150 178.981 185.351  0.00  0.00    -0.391 OA
ATOM    216  H   UNL     1     140.868 178.068 185.526  0.00  0.00    +0.210 HD
ENDBRANCH  20 215
BRANCH  18 217
ATOM    217  O   UNL     1     144.199 177.801 187.774  0.00  0.00    -0.391 OA
ATOM    218  H   UNL     1     144.853 178.334 188.264  0.00  0.00    +0.210 HD
ENDBRANCH  18 217
BRANCH  10 219
ATOM    219  O   UNL     1     145.716 174.877 182.006  0.00  0.00    -0.391 OA
ATOM    220  H   UNL     1     145.358 175.067 181.123  0.00  0.00    +0.210 HD
ENDBRANCH  10 219
BRANCH  37 221
ATOM    221  O   UNL     1     140.758 168.602 189.707  0.00  0.00    -0.379 OA
BRANCH 221 222
ATOM    222  C   UNL     1     140.633 169.941 190.168  0.00  0.00    +0.037 C 
ATOM    223  H   UNL     1     139.843 169.968 190.923  0.00  0.00    +0.052 HD
ATOM    224  H   UNL     1     141.565 170.266 190.636  0.00  0.00    +0.052 HD
ATOM    225  H   UNL     1     140.363 170.623 189.356  0.00  0.00    +0.052 HD
ENDBRANCH 221 222
ENDBRANCH  37 221
BRANCH  16 226
ATOM    226  O   UNL     1     141.226 174.877 188.545  0.00  0.00    -0.379 OA
BRANCH 226 227
ATOM    227  C   UNL     1     141.497 174.113 189.715  0.00  0.00    +0.037 C 
ATOM    228  H   UNL     1     140.665 174.243 190.412  0.00  0.00    +0.052 HD
ATOM    229  H   UNL     1     141.582 173.050 189.470  0.00  0.00    +0.052 HD
ATOM    230  H   UNL     1     142.415 174.460 190.200  0.00  0.00    +0.052 HD
ENDBRANCH 226 227
ENDBRANCH  16 226
TORSDOF 40
ENDMDL
MODEL 10
REMARK VINA RESULT:      -5.2      2.789     11.783
REMARK  Name = Swinholide A_conf3
REMARK  40 active torsions:
REMARK  status: ('A' for Active; 'I' for Inactive)
REMARK    1  A    between atoms: C_1  and  C_2
REMARK    2  A    between atoms: C_4  and  C_10
REMARK    3  A    between atoms: C_6  and  O_8
REMARK    4  A    between atoms: O_8  and  C_9
REMARK    5  A    between atoms: C_10  and  C_11
REMARK    6  A    between atoms: C_11  and  C_12
REMARK    7  A    between atoms: C_12  and  C_13
REMARK    8  A    between atoms: C_12  and  C_98
REMARK    9  A    between atoms: C_13  and  O_14
REMARK   10  A    between atoms: C_13  and  C_15
REMARK   11  A    between atoms: C_15  and  C_16
REMARK   12  A    between atoms: C_15  and  C_97
REMARK   13  A    between atoms: C_22  and  C_96
REMARK   14  A    between atoms: C_25  and  O_95
REMARK   15  A    between atoms: C_31  and  O_90
REMARK   16  A    between atoms: C_32  and  C_89
REMARK   17  A    between atoms: C_33  and  O_88
REMARK   18  A    between atoms: C_35  and  O_87
REMARK   19  A    between atoms: C_36  and  C_86
REMARK   20  A    between atoms: C_37  and  C_69
REMARK   21  A    between atoms: C_43  and  C_68
REMARK   22  A    between atoms: C_46  and  O_67
REMARK   23  A    between atoms: C_52  and  O_62
REMARK   24  A    between atoms: C_53  and  C_61
REMARK   25  A    between atoms: C_54  and  O_60
REMARK   26  A    between atoms: C_56  and  O_59
REMARK   27  A    between atoms: C_57  and  C_58
REMARK   28  A    between atoms: O_62  and  C_63
REMARK   29  A    between atoms: C_69  and  C_70
REMARK   30  A    between atoms: C_69  and  C_85
REMARK   31  A    between atoms: C_70  and  O_71
REMARK   32  A    between atoms: C_70  and  C_72
REMARK   33  A    between atoms: C_72  and  C_73
REMARK   34  A    between atoms: C_72  and  C_84
REMARK   35  A    between atoms: C_73  and  C_74
REMARK   36  A    between atoms: C_74  and  C_75
REMARK   37  A    between atoms: C_77  and  C_83
REMARK   38  A    between atoms: C_79  and  O_81
REMARK   39  A    between atoms: O_81  and  C_82
REMARK   40  A    between atoms: O_90  and  C_91
REMARK                            x       y       z     vdW  Elec       q    Type
REMARK                         _______ _______ _______ _____ _____    ______ ____
ROOT
ATOM      1  C   UNL     1     158.968 171.658 180.440  0.00  0.00    +0.113 C 
ATOM      2  O   UNL     1     157.960 170.614 180.398  0.00  0.00    -0.458 OA
ATOM      3  C   UNL     1     157.862 169.876 181.535  0.00  0.00    +0.332 C 
ATOM      4  O   UNL     1     158.457 170.088 182.583  0.00  0.00    -0.246 OA
ATOM      5  C   UNL     1     156.968 168.720 181.421  0.00  0.00    +0.023 C 
ATOM      6  C   UNL     1     155.946 168.574 180.567  0.00  0.00    -0.052 C 
ATOM      7  C   UNL     1     155.049 167.424 180.640  0.00  0.00    -0.054 C 
ATOM      8  C   UNL     1     154.581 167.009 181.835  0.00  0.00    -0.079 C 
ATOM      9  C   UNL     1     153.726 165.816 182.141  0.00  0.00    -0.008 C 
ATOM     10  C   UNL     1     154.432 164.442 182.178  0.00  0.00    +0.061 C 
ATOM     11  C   UNL     1     155.949 164.419 182.403  0.00  0.00    +0.003 C 
ATOM     12  C   UNL     1     156.507 164.565 183.829  0.00  0.00    +0.080 C 
ATOM     13  O   UNL     1     157.937 164.521 183.641  0.00  0.00    -0.369 OA
ATOM     14  C   UNL     1     158.734 164.988 184.743  0.00  0.00    +0.065 C 
ATOM     15  C   UNL     1     158.616 164.013 185.927  0.00  0.00    +0.000 C 
ATOM     16  C   UNL     1     159.630 164.225 187.068  0.00  0.00    +0.066 C 
ATOM     17  C   UNL     1     159.525 163.062 188.098  0.00  0.00    +0.009 C 
ATOM     18  C   UNL     1     158.360 163.191 189.122  0.00  0.00    +0.063 C 
ATOM     19  C   UNL     1     157.688 161.839 189.461  0.00  0.00    -0.000 C 
ATOM     20  C   UNL     1     156.987 161.205 188.237  0.00  0.00    +0.064 C 
ATOM     21  C   UNL     1     155.577 160.640 188.561  0.00  0.00    +0.020 C 
ATOM     22  C   UNL     1     154.584 160.661 187.343  0.00  0.00    +0.113 C 
ATOM     23  O   UNL     1     155.269 160.896 186.099  0.00  0.00    -0.458 OA
ATOM     24  C   UNL     1     155.774 159.812 185.461  0.00  0.00    +0.332 C 
ATOM     25  O   UNL     1     155.528 158.642 185.702  0.00  0.00    -0.246 OA
ATOM     26  C   UNL     1     156.703 160.299 184.421  0.00  0.00    +0.023 C 
ATOM     27  C   UNL     1     157.392 159.425 183.672  0.00  0.00    -0.052 C 
ATOM     28  C   UNL     1     158.366 159.790 182.652  0.00  0.00    -0.054 C 
ATOM     29  C   UNL     1     159.279 160.759 182.865  0.00  0.00    -0.079 C 
ATOM     30  C   UNL     1     160.377 161.193 181.930  0.00  0.00    -0.008 C 
ATOM     31  C   UNL     1     159.937 162.352 181.014  0.00  0.00    +0.061 C 
ATOM     32  C   UNL     1     160.559 163.693 181.437  0.00  0.00    +0.003 C 
ATOM     33  C   UNL     1     159.916 164.904 180.738  0.00  0.00    +0.080 C 
ATOM     34  O   UNL     1     160.181 166.110 181.486  0.00  0.00    -0.369 OA
ATOM     35  C   UNL     1     161.441 166.742 181.187  0.00  0.00    +0.065 C 
ATOM     36  C   UNL     1     161.566 167.944 182.147  0.00  0.00    +0.000 C 
ATOM     37  C   UNL     1     162.828 168.811 181.950  0.00  0.00    +0.066 C 
ATOM     38  C   UNL     1     162.863 170.035 182.915  0.00  0.00    +0.009 C 
ATOM     39  C   UNL     1     161.714 171.068 182.747  0.00  0.00    +0.063 C 
ATOM     40  C   UNL     1     161.820 172.195 181.698  0.00  0.00    -0.000 C 
ATOM     41  C   UNL     1     161.570 171.869 180.218  0.00  0.00    +0.064 C 
ATOM     42  C   UNL     1     160.299 171.047 179.901  0.00  0.00    +0.020 C 
ATOM     43  C   UNL     1     161.439 167.181 179.715  0.00  0.00    -0.008 C 
ATOM     44  C   UNL     1     161.005 166.079 178.805  0.00  0.00    -0.083 C 
ATOM     45  C   UNL     1     160.305 165.045 179.286  0.00  0.00    -0.059 C 
ATOM     46  C   UNL     1     158.388 166.453 185.045  0.00  0.00    -0.008 C 
ATOM     47  C   UNL     1     156.912 166.667 185.139  0.00  0.00    -0.083 C 
ATOM     48  C   UNL     1     156.064 165.788 184.586  0.00  0.00    -0.059 C 
ATOM     49  H   UNL     1     159.146 171.916 181.489  0.00  0.00    +0.074 HD
ATOM     50  H   UNL     1     157.169 167.970 182.183  0.00  0.00    +0.069 HD
ATOM     51  H   UNL     1     155.745 169.314 179.796  0.00  0.00    +0.062 HD
ATOM     52  H   UNL     1     154.850 167.582 182.723  0.00  0.00    +0.058 HD
ATOM     53  H   UNL     1     152.891 165.765 181.430  0.00  0.00    +0.033 HD
ATOM     54  H   UNL     1     153.235 165.999 183.106  0.00  0.00    +0.033 HD
ATOM     55  H   UNL     1     154.257 163.975 181.200  0.00  0.00    +0.060 HD
ATOM     56  H   UNL     1     156.451 165.128 181.732  0.00  0.00    +0.032 HD
ATOM     57  H   UNL     1     156.307 163.439 182.049  0.00  0.00    +0.032 HD
ATOM     58  H   UNL     1     156.221 163.679 184.406  0.00  0.00    +0.064 HD
ATOM     59  H   UNL     1     159.768 164.964 184.383  0.00  0.00    +0.060 HD
ATOM     60  H   UNL     1     158.751 163.003 185.516  0.00  0.00    +0.032 HD
ATOM     61  H   UNL     1     157.598 164.030 186.318  0.00  0.00    +0.032 HD
ATOM     62  H   UNL     1     159.452 165.185 187.569  0.00  0.00    +0.060 HD
ATOM     63  H   UNL     1     159.398 162.142 187.517  0.00  0.00    +0.035 HD
ATOM     64  H   UNL     1     158.765 163.604 190.055  0.00  0.00    +0.060 HD
ATOM     65  H   UNL     1     156.947 162.043 190.243  0.00  0.00    +0.032 HD
ATOM     66  H   UNL     1     158.432 161.153 189.881  0.00  0.00    +0.032 HD
ATOM     67  H   UNL     1     156.894 161.969 187.467  0.00  0.00    +0.060 HD
ATOM     68  H   UNL     1     155.139 161.263 189.348  0.00  0.00    +0.036 HD
ATOM     69  H   UNL     1     154.085 159.685 187.266  0.00  0.00    +0.074 HD
ATOM     70  H   UNL     1     156.827 161.370 184.332  0.00  0.00    +0.069 HD
ATOM     71  H   UNL     1     157.228 158.356 183.812  0.00  0.00    +0.062 HD
ATOM     72  H   UNL     1     159.273 161.299 183.813  0.00  0.00    +0.058 HD
ATOM     73  H   UNL     1     161.243 161.487 182.538  0.00  0.00    +0.033 HD
ATOM     74  H   UNL     1     160.729 160.338 181.342  0.00  0.00    +0.033 HD
ATOM     75  H   UNL     1     158.844 162.443 181.007  0.00  0.00    +0.060 HD
ATOM     76  H   UNL     1     160.453 163.816 182.519  0.00  0.00    +0.032 HD
ATOM     77  H   UNL     1     161.638 163.683 181.233  0.00  0.00    +0.032 HD
ATOM     78  H   UNL     1     158.826 164.789 180.777  0.00  0.00    +0.064 HD
ATOM     79  H   UNL     1     162.252 166.030 181.383  0.00  0.00    +0.060 HD
ATOM     80  H   UNL     1     160.656 168.543 182.054  0.00  0.00    +0.032 HD
ATOM     81  H   UNL     1     161.551 167.551 183.173  0.00  0.00    +0.032 HD
ATOM     82  H   UNL     1     162.882 169.154 180.916  0.00  0.00    +0.060 HD
ATOM     83  H   UNL     1     162.762 169.614 183.927  0.00  0.00    +0.035 HD
ATOM     84  H   UNL     1     160.767 170.552 182.623  0.00  0.00    +0.060 HD
ATOM     85  H   UNL     1     162.802 172.677 181.793  0.00  0.00    +0.032 HD
ATOM     86  H   UNL     1     161.109 172.982 181.984  0.00  0.00    +0.032 HD
ATOM     87  H   UNL     1     161.519 172.822 179.677  0.00  0.00    +0.060 HD
ATOM     88  H   UNL     1     160.416 170.090 180.420  0.00  0.00    +0.036 HD
ATOM     89  H   UNL     1     162.433 167.522 179.411  0.00  0.00    +0.033 HD
ATOM     90  H   UNL     1     160.739 168.006 179.570  0.00  0.00    +0.033 HD
ATOM     91  H   UNL     1     161.245 166.143 177.749  0.00  0.00    +0.057 HD
ATOM     92  H   UNL     1     159.998 164.253 178.608  0.00  0.00    +0.059 HD
ATOM     93  H   UNL     1     158.761 167.089 184.233  0.00  0.00    +0.033 HD
ATOM     94  H   UNL     1     158.876 166.786 185.965  0.00  0.00    +0.033 HD
ATOM     95  H   UNL     1     156.543 167.534 185.679  0.00  0.00    +0.057 HD
ATOM     96  H   UNL     1     154.998 165.918 184.735  0.00  0.00    +0.059 HD
ENDROOT
BRANCH  28  97
ATOM     97  C   UNL     1     158.271 158.957 181.402  0.00  0.00    -0.040 C 
ATOM     98  H   UNL     1     157.477 159.283 180.726  0.00  0.00    +0.028 HD
ATOM     99  H   UNL     1     159.215 158.987 180.846  0.00  0.00    +0.028 HD
ATOM    100  H   UNL     1     158.054 157.913 181.658  0.00  0.00    +0.028 HD
ENDBRANCH  28  97
BRANCH  21 101
ATOM    101  C   UNL     1     155.633 159.229 189.166  0.00  0.00    -0.057 C 
ATOM    102  H   UNL     1     155.032 159.150 190.077  0.00  0.00    +0.023 HD
ATOM    103  H   UNL     1     156.663 158.963 189.427  0.00  0.00    +0.023 HD
ATOM    104  H   UNL     1     155.273 158.481 188.452  0.00  0.00    +0.023 HD
ENDBRANCH  21 101
BRANCH  42 105
ATOM    105  C   UNL     1     160.253 170.633 178.421  0.00  0.00    -0.057 C 
ATOM    106  H   UNL     1     159.292 170.162 178.185  0.00  0.00    +0.023 HD
ATOM    107  H   UNL     1     160.363 171.493 177.752  0.00  0.00    +0.023 HD
ATOM    108  H   UNL     1     161.015 169.889 178.180  0.00  0.00    +0.023 HD
ENDBRANCH  42 105
BRANCH  17 109
ATOM    109  C   UNL     1     160.834 162.836 188.875  0.00  0.00    -0.058 C 
ATOM    110  H   UNL     1     160.940 161.791 189.181  0.00  0.00    +0.023 HD
ATOM    111  H   UNL     1     160.881 163.463 189.772  0.00  0.00    +0.023 HD
ATOM    112  H   UNL     1     161.704 163.097 188.262  0.00  0.00    +0.023 HD
ENDBRANCH  17 109
BRANCH  38 113
ATOM    113  C   UNL     1     164.235 170.726 182.933  0.00  0.00    -0.058 C 
ATOM    114  H   UNL     1     165.043 170.020 182.719  0.00  0.00    +0.023 HD
ATOM    115  H   UNL     1     164.280 171.534 182.193  0.00  0.00    +0.023 HD
ATOM    116  H   UNL     1     164.433 171.184 183.908  0.00  0.00    +0.023 HD
ENDBRANCH  38 113
BRANCH   7 117
ATOM    117  C   UNL     1     154.733 166.768 179.328  0.00  0.00    -0.040 C 
ATOM    118  H   UNL     1     153.720 166.361 179.345  0.00  0.00    +0.028 HD
ATOM    119  H   UNL     1     155.413 165.944 179.096  0.00  0.00    +0.028 HD
ATOM    120  H   UNL     1     154.804 167.486 178.503  0.00  0.00    +0.028 HD
ENDBRANCH   7 117
BRANCH   1 121
ATOM    121  C   UNL     1     158.432 172.987 179.827  0.00  0.00    +0.020 C 
ATOM    122  H   UNL     1     159.206 173.337 179.132  0.00  0.00    +0.036 HD
BRANCH 121 123
ATOM    123  C   UNL     1     157.158 172.876 178.994  0.00  0.00    -0.057 C 
ATOM    124  H   UNL     1     156.928 171.841 178.733  0.00  0.00    +0.023 HD
ATOM    125  H   UNL     1     156.304 173.304 179.529  0.00  0.00    +0.023 HD
ATOM    126  H   UNL     1     157.230 173.463 178.078  0.00  0.00    +0.023 HD
ENDBRANCH 121 123
BRANCH 121 127
ATOM    127  C   UNL     1     158.300 174.086 180.933  0.00  0.00    +0.064 C 
ATOM    128  H   UNL     1     159.254 174.628 180.952  0.00  0.00    +0.060 HD
BRANCH 127 129
ATOM    129  C   UNL     1     157.950 173.607 182.382  0.00  0.00    -0.017 C 
ATOM    130  H   UNL     1     157.956 172.515 182.402  0.00  0.00    +0.032 HD
BRANCH 129 131
ATOM    131  C   UNL     1     159.064 174.066 183.338  0.00  0.00    -0.060 C 
ATOM    132  H   UNL     1     159.941 174.422 182.786  0.00  0.00    +0.023 HD
ATOM    133  H   UNL     1     159.386 173.243 183.987  0.00  0.00    +0.023 HD
ATOM    134  H   UNL     1     158.720 174.873 183.993  0.00  0.00    +0.023 HD
ENDBRANCH 129 131
BRANCH 129 135
ATOM    135  C   UNL     1     156.581 174.112 182.897  0.00  0.00    -0.046 C 
ATOM    136  H   UNL     1     156.125 174.786 182.166  0.00  0.00    +0.027 HD
ATOM    137  H   UNL     1     156.734 174.716 183.802  0.00  0.00    +0.027 HD
BRANCH 135 138
ATOM    138  C   UNL     1     155.546 173.028 183.244  0.00  0.00    -0.026 C 
ATOM    139  H   UNL     1     155.224 173.225 184.276  0.00  0.00    +0.029 HD
ATOM    140  H   UNL     1     156.023 172.041 183.256  0.00  0.00    +0.029 HD
BRANCH 138 143
ATOM    141  C   UNL     1     153.463 171.811 180.399  0.00  0.00    +0.059 C 
ATOM    142  O   UNL     1     154.367 171.839 181.511  0.00  0.00    -0.373 OA
ATOM    143  C   UNL     1     154.300 172.996 182.344  0.00  0.00    +0.061 C 
ATOM    144  C   UNL     1     154.219 174.274 181.505  0.00  0.00    -0.000 C 
ATOM    145  C   UNL     1     152.993 174.262 180.583  0.00  0.00    +0.063 C 
ATOM    146  C   UNL     1     152.371 172.870 180.486  0.00  0.00    -0.000 C 
ATOM    147  H   UNL     1     154.065 171.981 179.498  0.00  0.00    +0.059 HD
ATOM    148  H   UNL     1     153.411 172.918 182.980  0.00  0.00    +0.060 HD
ATOM    149  H   UNL     1     154.227 175.152 182.159  0.00  0.00    +0.032 HD
ATOM    150  H   UNL     1     155.112 174.328 180.868  0.00  0.00    +0.032 HD
ATOM    151  H   UNL     1     153.293 174.582 179.575  0.00  0.00    +0.060 HD
ATOM    152  H   UNL     1     151.705 172.825 179.614  0.00  0.00    +0.032 HD
ATOM    153  H   UNL     1     151.734 172.685 181.357  0.00  0.00    +0.032 HD
BRANCH 141 154
ATOM    154  C   UNL     1     152.866 170.413 180.318  0.00  0.00    -0.039 C 
ATOM    155  H   UNL     1     152.171 170.229 181.144  0.00  0.00    +0.025 HD
ATOM    156  H   UNL     1     152.330 170.276 179.374  0.00  0.00    +0.025 HD
ATOM    157  H   UNL     1     153.652 169.651 180.349  0.00  0.00    +0.025 HD
ENDBRANCH 141 154
BRANCH 145 158
ATOM    158  O   UNL     1     151.978 175.150 181.068  0.00  0.00    -0.380 OA
BRANCH 158 159
ATOM    159  C   UNL     1     150.966 174.490 181.818  0.00  0.00    +0.037 C 
ATOM    160  H   UNL     1     150.165 175.209 182.015  0.00  0.00    +0.052 HD
ATOM    161  H   UNL     1     150.545 173.646 181.265  0.00  0.00    +0.052 HD
ATOM    162  H   UNL     1     151.368 174.148 182.776  0.00  0.00    +0.052 HD
ENDBRANCH 158 159
ENDBRANCH 145 158
ENDBRANCH 138 143
ENDBRANCH 135 138
ENDBRANCH 129 135
ENDBRANCH 127 129
BRANCH 127 163
ATOM    163  O   UNL     1     157.333 175.042 180.479  0.00  0.00    -0.391 OA
ATOM    164  H   UNL     1     156.636 174.546 180.014  0.00  0.00    +0.210 HD
ENDBRANCH 127 163
ENDBRANCH 121 127
ENDBRANCH   1 121
BRANCH  41 165
ATOM    165  O   UNL     1     162.723 171.186 179.720  0.00  0.00    -0.391 OA
ATOM    166  H   UNL     1     163.474 171.434 180.284  0.00  0.00    +0.210 HD
ENDBRANCH  41 165
BRANCH  39 167
ATOM    167  O   UNL     1     161.591 171.760 184.012  0.00  0.00    -0.391 OA
ATOM    168  H   UNL     1     162.307 172.418 184.038  0.00  0.00    +0.210 HD
ENDBRANCH  39 167
BRANCH  31 169
ATOM    169  O   UNL     1     160.333 162.042 179.674  0.00  0.00    -0.391 OA
ATOM    170  H   UNL     1     161.307 162.014 179.660  0.00  0.00    +0.210 HD
ENDBRANCH  31 169
BRANCH  22 171
ATOM    171  C   UNL     1     153.426 161.719 187.509  0.00  0.00    +0.020 C 
ATOM    172  H   UNL     1     152.909 161.757 186.541  0.00  0.00    +0.036 HD
BRANCH 171 173
ATOM    173  C   UNL     1     152.449 161.167 188.568  0.00  0.00    -0.057 C 
ATOM    174  H   UNL     1     152.776 161.409 189.584  0.00  0.00    +0.023 HD
ATOM    175  H   UNL     1     151.441 161.572 188.439  0.00  0.00    +0.023 HD
ATOM    176  H   UNL     1     152.383 160.079 188.546  0.00  0.00    +0.023 HD
ENDBRANCH 171 173
BRANCH 171 177
ATOM    177  C   UNL     1     153.906 163.173 187.835  0.00  0.00    +0.064 C 
ATOM    178  H   UNL     1     155.001 163.171 187.898  0.00  0.00    +0.060 HD
BRANCH 177 179
ATOM    179  O   UNL     1     153.540 164.019 186.745  0.00  0.00    -0.391 OA
ATOM    180  H   UNL     1     153.692 163.538 185.905  0.00  0.00    +0.210 HD
ENDBRANCH 177 179
BRANCH 177 181
ATOM    181  C   UNL     1     153.343 163.866 189.118  0.00  0.00    -0.017 C 
ATOM    182  H   UNL     1     152.475 163.287 189.462  0.00  0.00    +0.032 HD
BRANCH 181 183
ATOM    183  C   UNL     1     154.332 163.941 190.280  0.00  0.00    -0.060 C 
ATOM    184  H   UNL     1     154.946 163.037 190.318  0.00  0.00    +0.023 HD
ATOM    185  H   UNL     1     153.832 163.969 191.253  0.00  0.00    +0.023 HD
ATOM    186  H   UNL     1     154.974 164.823 190.205  0.00  0.00    +0.023 HD
ENDBRANCH 181 183
BRANCH 181 187
ATOM    187  C   UNL     1     152.805 165.279 188.738  0.00  0.00    -0.046 C 
ATOM    188  H   UNL     1     152.724 165.347 187.646  0.00  0.00    +0.027 HD
ATOM    189  H   UNL     1     153.536 166.038 189.045  0.00  0.00    +0.027 HD
BRANCH 187 190
ATOM    190  C   UNL     1     151.438 165.633 189.342  0.00  0.00    -0.026 C 
ATOM    191  H   UNL     1     150.862 166.237 188.630  0.00  0.00    +0.029 HD
ATOM    192  H   UNL     1     150.887 164.700 189.517  0.00  0.00    +0.029 HD
BRANCH 190 193
ATOM    193  C   UNL     1     151.547 166.386 190.676  0.00  0.00    +0.061 C 
ATOM    194  O   UNL     1     151.584 165.427 191.738  0.00  0.00    -0.373 OA
ATOM    195  C   UNL     1     151.706 165.999 193.044  0.00  0.00    +0.059 C 
ATOM    196  C   UNL     1     150.566 166.982 193.327  0.00  0.00    -0.000 C 
ATOM    197  C   UNL     1     150.367 168.011 192.212  0.00  0.00    +0.063 C 
ATOM    198  C   UNL     1     150.343 167.315 190.852  0.00  0.00    -0.000 C 
ATOM    199  H   UNL     1     152.480 166.962 190.666  0.00  0.00    +0.060 HD
ATOM    200  H   UNL     1     151.589 165.160 193.743  0.00  0.00    +0.059 HD
ATOM    201  H   UNL     1     150.721 167.462 194.297  0.00  0.00    +0.032 HD
ATOM    202  H   UNL     1     149.637 166.401 193.400  0.00  0.00    +0.032 HD
ATOM    203  H   UNL     1     149.409 168.527 192.351  0.00  0.00    +0.060 HD
ATOM    204  H   UNL     1     150.329 168.060 190.048  0.00  0.00    +0.032 HD
ATOM    205  H   UNL     1     149.418 166.728 190.785  0.00  0.00    +0.032 HD
BRANCH 195 206
ATOM    206  C   UNL     1     153.102 166.566 193.291  0.00  0.00    -0.039 C 
ATOM    207  H   UNL     1     153.253 167.469 192.688  0.00  0.00    +0.025 HD
ATOM    208  H   UNL     1     153.872 165.837 193.022  0.00  0.00    +0.025 HD
ATOM    209  H   UNL     1     153.266 166.861 194.330  0.00  0.00    +0.025 HD
ENDBRANCH 195 206
BRANCH 197 210
ATOM    210  O   UNL     1     151.416 168.985 192.192  0.00  0.00    -0.380 OA
BRANCH 210 211
ATOM    211  C   UNL     1     150.957 170.307 191.943  0.00  0.00    +0.037 C 
ATOM    212  H   UNL     1     151.650 171.004 192.421  0.00  0.00    +0.052 HD
ATOM    213  H   UNL     1     150.947 170.511 190.869  0.00  0.00    +0.052 HD
ATOM    214  H   UNL     1     149.961 170.468 192.365  0.00  0.00    +0.052 HD
ENDBRANCH 210 211
ENDBRANCH 197 210
ENDBRANCH 190 193
ENDBRANCH 187 190
ENDBRANCH 181 187
ENDBRANCH 177 181
ENDBRANCH 171 177
ENDBRANCH  22 171
BRANCH  20 215
ATOM    215  O   UNL     1     157.838 160.202 187.678  0.00  0.00    -0.391 OA
ATOM    216  H   UNL     1     157.561 159.330 188.003  0.00  0.00    +0.210 HD
ENDBRANCH  20 215
BRANCH  18 217
ATOM    217  O   UNL     1     157.339 164.106 188.713  0.00  0.00    -0.391 OA
ATOM    218  H   UNL     1     157.243 164.009 187.747  0.00  0.00    +0.210 HD
ENDBRANCH  18 217
BRANCH  10 219
ATOM    219  O   UNL     1     153.764 163.618 183.137  0.00  0.00    -0.391 OA
ATOM    220  H   UNL     1     152.854 163.467 182.829  0.00  0.00    +0.210 HD
ENDBRANCH  10 219
BRANCH  37 221
ATOM    221  O   UNL     1     163.945 167.955 182.253  0.00  0.00    -0.379 OA
BRANCH 221 222
ATOM    222  C   UNL     1     163.884 167.384 183.553  0.00  0.00    +0.037 C 
ATOM    223  H   UNL     1     164.870 166.977 183.793  0.00  0.00    +0.052 HD
ATOM    224  H   UNL     1     163.642 168.153 184.291  0.00  0.00    +0.052 HD
ATOM    225  H   UNL     1     163.151 166.573 183.602  0.00  0.00    +0.052 HD
ENDBRANCH 221 222
ENDBRANCH  37 221
BRANCH  16 226
ATOM    226  O   UNL     1     160.938 164.201 186.472  0.00  0.00    -0.379 OA
BRANCH 226 227
ATOM    227  C   UNL     1     161.650 165.423 186.622  0.00  0.00    +0.037 C 
ATOM    228  H   UNL     1     161.893 165.805 185.627  0.00  0.00    +0.052 HD
ATOM    229  H   UNL     1     161.034 166.166 187.137  0.00  0.00    +0.052 HD
ATOM    230  H   UNL     1     162.583 165.264 187.172  0.00  0.00    +0.052 HD
ENDBRANCH 226 227
ENDBRANCH  16 226
TORSDOF 40
ENDMDL
