MODEL 1
REMARK VINA RESULT:      -4.9      0.000      0.000
REMARK  Name = Swinholide A_conf2
REMARK  40 active torsions:
REMARK  status: ('A' for Active; 'I' for Inactive)
REMARK    1  A    between atoms: C_1  and  C_2
REMARK    2  A    between atoms: C_4  and  C_10
REMARK    3  A    between atoms: C_6  and  O_8
REMARK    4  A    between atoms: O_8  and  C_9
REMARK    5  A    between atoms: C_10  and  C_11
REMARK    6  A    between atoms: C_11  and  C_12
REMARK    7  A    between atoms: C_12  and  C_13
REMARK    8  A    between atoms: C_12  and  C_98
REMARK    9  A    between atoms: C_13  and  O_14
REMARK   10  A    between atoms: C_13  and  C_15
REMARK   11  A    between atoms: C_15  and  C_16
REMARK   12  A    between atoms: C_15  and  C_97
REMARK   13  A    between atoms: C_22  and  C_96
REMARK   14  A    between atoms: C_25  and  O_95
REMARK   15  A    between atoms: C_31  and  O_90
REMARK   16  A    between atoms: C_32  and  C_89
REMARK   17  A    between atoms: C_33  and  O_88
REMARK   18  A    between atoms: C_35  and  O_87
REMARK   19  A    between atoms: C_36  and  C_86
REMARK   20  A    between atoms: C_37  and  C_69
REMARK   21  A    between atoms: C_43  and  C_68
REMARK   22  A    between atoms: C_46  and  O_67
REMARK   23  A    between atoms: C_52  and  O_62
REMARK   24  A    between atoms: C_53  and  C_61
REMARK   25  A    between atoms: C_54  and  O_60
REMARK   26  A    between atoms: C_56  and  O_59
REMARK   27  A    between atoms: C_57  and  C_58
REMARK   28  A    between atoms: O_62  and  C_63
REMARK   29  A    between atoms: C_69  and  C_70
REMARK   30  A    between atoms: C_69  and  C_85
REMARK   31  A    between atoms: C_70  and  O_71
REMARK   32  A    between atoms: C_70  and  C_72
REMARK   33  A    between atoms: C_72  and  C_73
REMARK   34  A    between atoms: C_72  and  C_84
REMARK   35  A    between atoms: C_73  and  C_74
REMARK   36  A    between atoms: C_74  and  C_75
REMARK   37  A    between atoms: C_77  and  C_83
REMARK   38  A    between atoms: C_79  and  O_81
REMARK   39  A    between atoms: O_81  and  C_82
REMARK   40  A    between atoms: O_90  and  C_91
REMARK                            x       y       z     vdW  Elec       q    Type
REMARK                         _______ _______ _______ _____ _____    ______ ____
ROOT
ATOM      1  C   UNL     1     159.522 168.720 183.212  0.00  0.00    +0.113 C 
ATOM      2  O   UNL     1     160.256 167.468 183.230  0.00  0.00    -0.458 OA
ATOM      3  C   UNL     1     159.869 166.538 182.323  0.00  0.00    +0.332 C 
ATOM      4  O   UNL     1     159.000 166.654 181.477  0.00  0.00    -0.246 OA
ATOM      5  C   UNL     1     160.656 165.305 182.548  0.00  0.00    +0.023 C 
ATOM      6  C   UNL     1     160.510 164.273 181.703  0.00  0.00    -0.052 C 
ATOM      7  C   UNL     1     161.139 162.963 181.825  0.00  0.00    -0.054 C 
ATOM      8  C   UNL     1     162.359 162.793 182.372  0.00  0.00    -0.079 C 
ATOM      9  C   UNL     1     163.117 161.494 182.479  0.00  0.00    -0.008 C 
ATOM     10  C   UNL     1     163.335 161.004 183.926  0.00  0.00    +0.061 C 
ATOM     11  C   UNL     1     162.036 160.507 184.579  0.00  0.00    +0.003 C 
ATOM     12  C   UNL     1     162.234 159.799 185.936  0.00  0.00    +0.080 C 
ATOM     13  O   UNL     1     161.046 159.924 186.750  0.00  0.00    -0.369 OA
ATOM     14  C   UNL     1     159.990 159.012 186.391  0.00  0.00    +0.065 C 
ATOM     15  C   UNL     1     158.771 159.382 187.254  0.00  0.00    +0.000 C 
ATOM     16  C   UNL     1     157.557 158.437 187.106  0.00  0.00    +0.066 C 
ATOM     17  C   UNL     1     156.254 158.988 187.781  0.00  0.00    +0.009 C 
ATOM     18  C   UNL     1     155.819 160.383 187.266  0.00  0.00    +0.063 C 
ATOM     19  C   UNL     1     154.484 160.879 187.879  0.00  0.00    -0.000 C 
ATOM     20  C   UNL     1     154.039 162.174 187.183  0.00  0.00    +0.064 C 
ATOM     21  C   UNL     1     153.078 163.053 188.026  0.00  0.00    +0.020 C 
ATOM     22  C   UNL     1     152.966 164.513 187.482  0.00  0.00    +0.113 C 
ATOM     23  O   UNL     1     152.422 164.363 186.141  0.00  0.00    -0.458 OA
ATOM     24  C   UNL     1     151.446 165.188 185.706  0.00  0.00    +0.332 C 
ATOM     25  O   UNL     1     151.035 166.202 186.271  0.00  0.00    -0.246 OA
ATOM     26  C   UNL     1     150.900 164.726 184.411  0.00  0.00    +0.023 C 
ATOM     27  C   UNL     1     151.421 163.701 183.704  0.00  0.00    -0.052 C 
ATOM     28  C   UNL     1     150.969 163.183 182.416  0.00  0.00    -0.054 C 
ATOM     29  C   UNL     1     151.702 162.212 181.832  0.00  0.00    -0.079 C 
ATOM     30  C   UNL     1     151.503 161.575 180.486  0.00  0.00    -0.008 C 
ATOM     31  C   UNL     1     152.761 161.470 179.601  0.00  0.00    +0.061 C 
ATOM     32  C   UNL     1     153.407 162.797 179.152  0.00  0.00    +0.003 C 
ATOM     33  C   UNL     1     154.458 163.505 180.031  0.00  0.00    +0.080 C 
ATOM     34  O   UNL     1     153.835 164.080 181.183  0.00  0.00    -0.369 OA
ATOM     35  C   UNL     1     154.734 164.630 182.152  0.00  0.00    +0.065 C 
ATOM     36  C   UNL     1     155.486 165.878 181.657  0.00  0.00    +0.000 C 
ATOM     37  C   UNL     1     154.536 167.085 181.468  0.00  0.00    +0.066 C 
ATOM     38  C   UNL     1     155.306 168.430 181.597  0.00  0.00    +0.009 C 
ATOM     39  C   UNL     1     155.496 168.874 183.078  0.00  0.00    +0.063 C 
ATOM     40  C   UNL     1     156.607 169.947 183.229  0.00  0.00    -0.000 C 
ATOM     41  C   UNL     1     157.522 169.853 184.458  0.00  0.00    +0.064 C 
ATOM     42  C   UNL     1     158.562 168.706 184.443  0.00  0.00    +0.020 C 
ATOM     43  C   UNL     1     155.667 163.532 182.691  0.00  0.00    -0.008 C 
ATOM     44  C   UNL     1     156.192 162.634 181.612  0.00  0.00    -0.083 C 
ATOM     45  C   UNL     1     155.637 162.641 180.397  0.00  0.00    -0.059 C 
ATOM     46  C   UNL     1     160.442 157.561 186.613  0.00  0.00    -0.008 C 
ATOM     47  C   UNL     1     161.824 157.324 186.085  0.00  0.00    -0.083 C 
ATOM     48  C   UNL     1     162.634 158.349 185.798  0.00  0.00    -0.059 C 
ATOM     49  H   UNL     1     158.871 168.741 182.339  0.00  0.00    +0.074 HD
ATOM     50  H   UNL     1     161.297 165.278 183.416  0.00  0.00    +0.069 HD
ATOM     51  H   UNL     1     159.823 164.375 180.863  0.00  0.00    +0.062 HD
ATOM     52  H   UNL     1     162.909 163.660 182.737  0.00  0.00    +0.058 HD
ATOM     53  H   UNL     1     164.094 161.651 182.004  0.00  0.00    +0.033 HD
ATOM     54  H   UNL     1     162.658 160.693 181.892  0.00  0.00    +0.033 HD
ATOM     55  H   UNL     1     163.752 161.815 184.528  0.00  0.00    +0.060 HD
ATOM     56  H   UNL     1     161.355 161.356 184.712  0.00  0.00    +0.032 HD
ATOM     57  H   UNL     1     161.522 159.820 183.896  0.00  0.00    +0.032 HD
ATOM     58  H   UNL     1     163.015 160.317 186.502  0.00  0.00    +0.064 HD
ATOM     59  H   UNL     1     159.733 159.175 185.337  0.00  0.00    +0.060 HD
ATOM     60  H   UNL     1     159.065 159.434 188.309  0.00  0.00    +0.032 HD
ATOM     61  H   UNL     1     158.497 160.406 186.973  0.00  0.00    +0.032 HD
ATOM     62  H   UNL     1     157.815 157.491 187.605  0.00  0.00    +0.060 HD
ATOM     63  H   UNL     1     155.447 158.293 187.526  0.00  0.00    +0.035 HD
ATOM     64  H   UNL     1     156.579 161.127 187.533  0.00  0.00    +0.060 HD
ATOM     65  H   UNL     1     154.620 161.057 188.954  0.00  0.00    +0.032 HD
ATOM     66  H   UNL     1     153.717 160.109 187.754  0.00  0.00    +0.032 HD
ATOM     67  H   UNL     1     154.942 162.745 186.967  0.00  0.00    +0.060 HD
ATOM     68  H   UNL     1     153.485 163.086 189.041  0.00  0.00    +0.036 HD
ATOM     69  H   UNL     1     152.256 165.069 188.107  0.00  0.00    +0.074 HD
ATOM     70  H   UNL     1     150.054 165.302 184.056  0.00  0.00    +0.069 HD
ATOM     71  H   UNL     1     152.308 163.207 184.103  0.00  0.00    +0.062 HD
ATOM     72  H   UNL     1     152.588 161.848 182.358  0.00  0.00    +0.058 HD
ATOM     73  H   UNL     1     151.129 160.559 180.671  0.00  0.00    +0.033 HD
ATOM     74  H   UNL     1     150.734 162.092 179.909  0.00  0.00    +0.033 HD
ATOM     75  H   UNL     1     152.400 161.003 178.676  0.00  0.00    +0.060 HD
ATOM     76  H   UNL     1     152.602 163.511 178.933  0.00  0.00    +0.032 HD
ATOM     77  H   UNL     1     153.901 162.593 178.197  0.00  0.00    +0.032 HD
ATOM     78  H   UNL     1     154.834 164.333 179.421  0.00  0.00    +0.064 HD
ATOM     79  H   UNL     1     154.111 164.942 183.001  0.00  0.00    +0.060 HD
ATOM     80  H   UNL     1     156.009 165.672 180.716  0.00  0.00    +0.032 HD
ATOM     81  H   UNL     1     156.266 166.110 182.391  0.00  0.00    +0.032 HD
ATOM     82  H   UNL     1     153.734 167.066 182.218  0.00  0.00    +0.060 HD
ATOM     83  H   UNL     1     156.294 168.278 181.143  0.00  0.00    +0.035 HD
ATOM     84  H   UNL     1     154.552 169.317 183.423  0.00  0.00    +0.060 HD
ATOM     85  H   UNL     1     156.092 170.919 183.269  0.00  0.00    +0.032 HD
ATOM     86  H   UNL     1     157.208 170.003 182.319  0.00  0.00    +0.032 HD
ATOM     87  H   UNL     1     158.062 170.798 184.570  0.00  0.00    +0.060 HD
ATOM     88  H   UNL     1     158.022 167.750 184.385  0.00  0.00    +0.036 HD
ATOM     89  H   UNL     1     156.502 163.972 183.249  0.00  0.00    +0.033 HD
ATOM     90  H   UNL     1     155.107 162.893 183.386  0.00  0.00    +0.033 HD
ATOM     91  H   UNL     1     157.001 161.954 181.854  0.00  0.00    +0.057 HD
ATOM     92  H   UNL     1     156.029 161.979 179.624  0.00  0.00    +0.059 HD
ATOM     93  H   UNL     1     160.438 157.314 187.680  0.00  0.00    +0.033 HD
ATOM     94  H   UNL     1     159.746 156.876 186.116  0.00  0.00    +0.033 HD
ATOM     95  H   UNL     1     162.160 156.302 185.964  0.00  0.00    +0.057 HD
ATOM     96  H   UNL     1     163.634 158.146 185.422  0.00  0.00    +0.059 HD
ENDROOT
BRANCH  28  97
ATOM     97  C   UNL     1     149.723 163.784 181.816  0.00  0.00    -0.040 C 
ATOM     98  H   UNL     1     149.960 164.288 180.874  0.00  0.00    +0.028 HD
ATOM     99  H   UNL     1     149.254 164.544 182.447  0.00  0.00    +0.028 HD
ATOM    100  H   UNL     1     148.970 163.011 181.624  0.00  0.00    +0.028 HD
ENDBRANCH  28  97
BRANCH  21 101
ATOM    101  C   UNL     1     151.677 162.437 188.151  0.00  0.00    -0.057 C 
ATOM    102  H   UNL     1     151.602 161.505 187.585  0.00  0.00    +0.023 HD
ATOM    103  H   UNL     1     151.458 162.207 189.195  0.00  0.00    +0.023 HD
ATOM    104  H   UNL     1     150.891 163.108 187.793  0.00  0.00    +0.023 HD
ENDBRANCH  21 101
BRANCH  42 105
ATOM    105  C   UNL     1     159.282 168.617 185.800  0.00  0.00    -0.057 C 
ATOM    106  H   UNL     1     158.690 168.067 186.533  0.00  0.00    +0.023 HD
ATOM    107  H   UNL     1     159.530 169.605 186.197  0.00  0.00    +0.023 HD
ATOM    108  H   UNL     1     160.220 168.067 185.689  0.00  0.00    +0.023 HD
ENDBRANCH  42 105
BRANCH  17 109
ATOM    109  C   UNL     1     156.390 158.973 189.307  0.00  0.00    -0.058 C 
ATOM    110  H   UNL     1     155.490 159.350 189.791  0.00  0.00    +0.023 HD
ATOM    111  H   UNL     1     157.215 159.620 189.624  0.00  0.00    +0.023 HD
ATOM    112  H   UNL     1     156.590 157.970 189.685  0.00  0.00    +0.023 HD
ENDBRANCH  17 109
BRANCH  38 113
ATOM    113  C   UNL     1     154.642 169.582 180.822  0.00  0.00    -0.058 C 
ATOM    114  H   UNL     1     153.548 169.511 180.830  0.00  0.00    +0.023 HD
ATOM    115  H   UNL     1     154.921 170.555 181.255  0.00  0.00    +0.023 HD
ATOM    116  H   UNL     1     154.951 169.586 179.773  0.00  0.00    +0.023 HD
ENDBRANCH  38 113
BRANCH   7 117
ATOM    117  C   UNL     1     160.328 161.829 181.254  0.00  0.00    -0.040 C 
ATOM    118  H   UNL     1     159.264 162.079 181.268  0.00  0.00    +0.028 HD
ATOM    119  H   UNL     1     160.466 160.910 181.831  0.00  0.00    +0.028 HD
ATOM    120  H   UNL     1     160.618 161.594 180.224  0.00  0.00    +0.028 HD
ENDBRANCH   7 117
BRANCH   1 121
ATOM    121  C   UNL     1     160.502 169.919 183.053  0.00  0.00    +0.020 C 
ATOM    122  H   UNL     1     160.479 170.516 183.970  0.00  0.00    +0.036 HD
BRANCH 121 123
ATOM    123  C   UNL     1     161.970 169.500 182.850  0.00  0.00    -0.057 C 
ATOM    124  H   UNL     1     162.178 169.190 181.823  0.00  0.00    +0.023 HD
ATOM    125  H   UNL     1     162.652 170.317 183.103  0.00  0.00    +0.023 HD
ATOM    126  H   UNL     1     162.241 168.685 183.524  0.00  0.00    +0.023 HD
ENDBRANCH 121 123
BRANCH 121 127
ATOM    127  C   UNL     1     160.107 170.867 181.869  0.00  0.00    +0.064 C 
ATOM    128  H   UNL     1     161.026 171.196 181.368  0.00  0.00    +0.060 HD
BRANCH 127 129
ATOM    129  C   UNL     1     159.318 172.149 182.265  0.00  0.00    -0.017 C 
ATOM    130  H   UNL     1     158.290 171.879 182.521  0.00  0.00    +0.032 HD
BRANCH 129 131
ATOM    131  C   UNL     1     159.950 172.845 183.475  0.00  0.00    -0.060 C 
ATOM    132  H   UNL     1     159.557 173.854 183.626  0.00  0.00    +0.023 HD
ATOM    133  H   UNL     1     159.777 172.275 184.395  0.00  0.00    +0.023 HD
ATOM    134  H   UNL     1     161.033 172.949 183.341  0.00  0.00    +0.023 HD
ENDBRANCH 129 131
BRANCH 129 135
ATOM    135  C   UNL     1     159.227 173.189 181.119  0.00  0.00    -0.046 C 
ATOM    136  H   UNL     1     159.504 174.167 181.531  0.00  0.00    +0.027 HD
ATOM    137  H   UNL     1     159.964 172.964 180.338  0.00  0.00    +0.027 HD
BRANCH 135 138
ATOM    138  C   UNL     1     157.836 173.308 180.480  0.00  0.00    -0.026 C 
ATOM    139  H   UNL     1     157.935 173.454 179.401  0.00  0.00    +0.029 HD
ATOM    140  H   UNL     1     157.296 172.364 180.626  0.00  0.00    +0.029 HD
BRANCH 138 143
ATOM    141  C   UNL     1     155.941 173.342 182.877  0.00  0.00    +0.059 C 
ATOM    142  O   UNL     1     156.831 174.384 182.460  0.00  0.00    -0.373 OA
ATOM    143  C   UNL     1     157.025 174.486 181.046  0.00  0.00    +0.061 C 
ATOM    144  C   UNL     1     155.681 174.674 180.341  0.00  0.00    -0.000 C 
ATOM    145  C   UNL     1     154.683 173.583 180.723  0.00  0.00    +0.063 C 
ATOM    146  C   UNL     1     154.566 173.515 182.243  0.00  0.00    -0.000 C 
ATOM    147  H   UNL     1     156.371 172.373 182.602  0.00  0.00    +0.059 HD
ATOM    148  H   UNL     1     157.618 175.397 180.890  0.00  0.00    +0.060 HD
ATOM    149  H   UNL     1     155.262 175.649 180.630  0.00  0.00    +0.032 HD
ATOM    150  H   UNL     1     155.810 174.714 179.253  0.00  0.00    +0.032 HD
ATOM    151  H   UNL     1     155.028 172.621 180.325  0.00  0.00    +0.060 HD
ATOM    152  H   UNL     1     153.902 172.697 182.548  0.00  0.00    +0.032 HD
ATOM    153  H   UNL     1     154.096 174.442 182.602  0.00  0.00    +0.032 HD
BRANCH 141 154
ATOM    154  C   UNL     1     155.856 173.401 184.394  0.00  0.00    -0.039 C 
ATOM    155  H   UNL     1     154.861 173.709 184.730  0.00  0.00    +0.025 HD
ATOM    156  H   UNL     1     156.084 172.421 184.830  0.00  0.00    +0.025 HD
ATOM    157  H   UNL     1     156.597 174.101 184.799  0.00  0.00    +0.025 HD
ENDBRANCH 141 154
BRANCH 145 158
ATOM    158  O   UNL     1     153.436 173.910 180.102  0.00  0.00    -0.380 OA
BRANCH 158 159
ATOM    159  C   UNL     1     153.109 175.292 180.186  0.00  0.00    +0.037 C 
ATOM    160  H   UNL     1     153.741 175.833 179.479  0.00  0.00    +0.052 HD
ATOM    161  H   UNL     1     153.313 175.675 181.187  0.00  0.00    +0.052 HD
ATOM    162  H   UNL     1     152.064 175.473 179.918  0.00  0.00    +0.052 HD
ENDBRANCH 158 159
ENDBRANCH 145 158
ENDBRANCH 138 143
ENDBRANCH 135 138
ENDBRANCH 129 135
ENDBRANCH 127 129
BRANCH 127 163
ATOM    163  O   UNL     1     159.359 170.131 180.903  0.00  0.00    -0.391 OA
ATOM    164  H   UNL     1     159.246 169.225 181.233  0.00  0.00    +0.210 HD
ENDBRANCH 127 163
ENDBRANCH 121 127
ENDBRANCH   1 121
BRANCH  41 165
ATOM    165  O   UNL     1     156.683 169.714 185.616  0.00  0.00    -0.391 OA
ATOM    166  H   UNL     1     156.010 170.418 185.570  0.00  0.00    +0.210 HD
ENDBRANCH  41 165
BRANCH  39 167
ATOM    167  O   UNL     1     155.713 167.762 183.926  0.00  0.00    -0.391 OA
ATOM    168  H   UNL     1     155.910 166.992 183.351  0.00  0.00    +0.210 HD
ENDBRANCH  39 167
BRANCH  31 169
ATOM    169  O   UNL     1     153.720 160.545 180.106  0.00  0.00    -0.391 OA
ATOM    170  H   UNL     1     153.620 159.702 179.627  0.00  0.00    +0.210 HD
ENDBRANCH  31 169
BRANCH  22 171
ATOM    171  C   UNL     1     154.312 165.305 187.406  0.00  0.00    +0.020 C 
ATOM    172  H   UNL     1     155.104 164.620 187.717  0.00  0.00    +0.036 HD
BRANCH 171 173
ATOM    173  C   UNL     1     154.677 165.645 185.948  0.00  0.00    -0.057 C 
ATOM    174  H   UNL     1     154.079 165.054 185.245  0.00  0.00    +0.023 HD
ATOM    175  H   UNL     1     154.483 166.703 185.729  0.00  0.00    +0.023 HD
ATOM    176  H   UNL     1     155.738 165.469 185.746  0.00  0.00    +0.023 HD
ENDBRANCH 171 173
BRANCH 171 177
ATOM    177  C   UNL     1     154.415 166.626 188.243  0.00  0.00    +0.064 C 
ATOM    178  H   UNL     1     154.962 167.379 187.657  0.00  0.00    +0.060 HD
BRANCH 177 179
ATOM    179  O   UNL     1     153.124 167.195 188.457  0.00  0.00    -0.391 OA
ATOM    180  H   UNL     1     153.157 168.122 188.164  0.00  0.00    +0.210 HD
ENDBRANCH 177 179
BRANCH 177 181
ATOM    181  C   UNL     1     155.152 166.462 189.618  0.00  0.00    -0.017 C 
ATOM    182  H   UNL     1     155.273 167.462 190.059  0.00  0.00    +0.032 HD
BRANCH 181 183
ATOM    183  C   UNL     1     154.337 165.587 190.585  0.00  0.00    -0.060 C 
ATOM    184  H   UNL     1     153.702 166.223 191.210  0.00  0.00    +0.023 HD
ATOM    185  H   UNL     1     154.964 164.980 191.242  0.00  0.00    +0.023 HD
ATOM    186  H   UNL     1     153.705 164.875 190.051  0.00  0.00    +0.023 HD
ENDBRANCH 181 183
BRANCH 181 187
ATOM    187  C   UNL     1     156.577 165.861 189.428  0.00  0.00    -0.046 C 
ATOM    188  H   UNL     1     157.310 166.528 189.890  0.00  0.00    +0.027 HD
ATOM    189  H   UNL     1     156.788 165.831 188.353  0.00  0.00    +0.027 HD
BRANCH 187 190
ATOM    190  C   UNL     1     156.756 164.451 190.024  0.00  0.00    -0.026 C 
ATOM    191  H   UNL     1     155.812 164.156 190.492  0.00  0.00    +0.029 HD
ATOM    192  H   UNL     1     157.508 164.500 190.820  0.00  0.00    +0.029 HD
BRANCH 190 193
ATOM    193  C   UNL     1     157.120 163.292 189.069  0.00  0.00    +0.061 C 
ATOM    194  O   UNL     1     158.026 162.351 189.645  0.00  0.00    -0.373 OA
ATOM    195  C   UNL     1     159.412 162.644 189.520  0.00  0.00    +0.059 C 
ATOM    196  C   UNL     1     159.810 162.858 188.066  0.00  0.00    -0.000 C 
ATOM    197  C   UNL     1     158.968 163.976 187.443  0.00  0.00    +0.063 C 
ATOM    198  C   UNL     1     157.484 163.668 187.633  0.00  0.00    -0.000 C 
ATOM    199  H   UNL     1     156.184 162.720 188.990  0.00  0.00    +0.060 HD
ATOM    200  H   UNL     1     159.645 163.532 190.116  0.00  0.00    +0.059 HD
ATOM    201  H   UNL     1     160.876 163.101 187.999  0.00  0.00    +0.032 HD
ATOM    202  H   UNL     1     159.662 161.944 187.480  0.00  0.00    +0.032 HD
ATOM    203  H   UNL     1     159.217 164.928 187.918  0.00  0.00    +0.060 HD
ATOM    204  H   UNL     1     157.250 162.807 186.990  0.00  0.00    +0.032 HD
ATOM    205  H   UNL     1     156.860 164.489 187.261  0.00  0.00    +0.032 HD
BRANCH 195 206
ATOM    206  C   UNL     1     160.181 161.466 190.105  0.00  0.00    -0.039 C 
ATOM    207  H   UNL     1     160.580 161.711 191.090  0.00  0.00    +0.025 HD
ATOM    208  H   UNL     1     159.536 160.590 190.199  0.00  0.00    +0.025 HD
ATOM    209  H   UNL     1     161.011 161.177 189.457  0.00  0.00    +0.025 HD
ENDBRANCH 195 206
BRANCH 197 210
ATOM    210  O   UNL     1     159.187 164.123 186.035  0.00  0.00    -0.380 OA
BRANCH 210 211
ATOM    211  C   UNL     1     158.283 165.009 185.395  0.00  0.00    +0.037 C 
ATOM    212  H   UNL     1     158.826 165.678 184.726  0.00  0.00    +0.052 HD
ATOM    213  H   UNL     1     157.596 164.416 184.785  0.00  0.00    +0.052 HD
ATOM    214  H   UNL     1     157.703 165.581 186.121  0.00  0.00    +0.052 HD
ENDBRANCH 210 211
ENDBRANCH 197 210
ENDBRANCH 190 193
ENDBRANCH 187 190
ENDBRANCH 181 187
ENDBRANCH 177 181
ENDBRANCH 171 177
ENDBRANCH  22 171
BRANCH  20 215
ATOM    215  O   UNL     1     153.487 161.793 185.916  0.00  0.00    -0.391 OA
ATOM    216  H   UNL     1     154.089 161.159 185.490  0.00  0.00    +0.210 HD
ENDBRANCH  20 215
BRANCH  18 217
ATOM    217  O   UNL     1     155.747 160.353 185.844  0.00  0.00    -0.391 OA
ATOM    218  H   UNL     1     156.575 159.981 185.472  0.00  0.00    +0.210 HD
ENDBRANCH  18 217
BRANCH  10 219
ATOM    219  O   UNL     1     164.316 159.965 183.889  0.00  0.00    -0.391 OA
ATOM    220  H   UNL     1     165.187 160.383 183.768  0.00  0.00    +0.210 HD
ENDBRANCH  10 219
BRANCH  37 221
ATOM    221  O   UNL     1     153.986 166.983 180.145  0.00  0.00    -0.379 OA
BRANCH 221 222
ATOM    222  C   UNL     1     152.565 166.937 180.149  0.00  0.00    +0.037 C 
ATOM    223  H   UNL     1     152.203 166.192 179.433  0.00  0.00    +0.052 HD
ATOM    224  H   UNL     1     152.137 167.916 179.910  0.00  0.00    +0.052 HD
ATOM    225  H   UNL     1     152.226 166.650 181.150  0.00  0.00    +0.052 HD
ENDBRANCH 221 222
ENDBRANCH  37 221
BRANCH  16 226
ATOM    226  O   UNL     1     157.402 158.147 185.712  0.00  0.00    -0.379 OA
BRANCH 226 227
ATOM    227  C   UNL     1     156.743 156.921 185.428  0.00  0.00    +0.037 C 
ATOM    228  H   UNL     1     157.151 156.159 186.096  0.00  0.00    +0.052 HD
ATOM    229  H   UNL     1     155.666 156.998 185.618  0.00  0.00    +0.052 HD
ATOM    230  H   UNL     1     156.927 156.599 184.400  0.00  0.00    +0.052 HD
ENDBRANCH 226 227
ENDBRANCH  16 226
TORSDOF 40
ENDMDL
MODEL 2
REMARK VINA RESULT:      -4.8      2.690      5.923
REMARK  Name = Swinholide A_conf2
REMARK  40 active torsions:
REMARK  status: ('A' for Active; 'I' for Inactive)
REMARK    1  A    between atoms: C_1  and  C_2
REMARK    2  A    between atoms: C_4  and  C_10
REMARK    3  A    between atoms: C_6  and  O_8
REMARK    4  A    between atoms: O_8  and  C_9
REMARK    5  A    between atoms: C_10  and  C_11
REMARK    6  A    between atoms: C_11  and  C_12
REMARK    7  A    between atoms: C_12  and  C_13
REMARK    8  A    between atoms: C_12  and  C_98
REMARK    9  A    between atoms: C_13  and  O_14
REMARK   10  A    between atoms: C_13  and  C_15
REMARK   11  A    between atoms: C_15  and  C_16
REMARK   12  A    between atoms: C_15  and  C_97
REMARK   13  A    between atoms: C_22  and  C_96
REMARK   14  A    between atoms: C_25  and  O_95
REMARK   15  A    between atoms: C_31  and  O_90
REMARK   16  A    between atoms: C_32  and  C_89
REMARK   17  A    between atoms: C_33  and  O_88
REMARK   18  A    between atoms: C_35  and  O_87
REMARK   19  A    between atoms: C_36  and  C_86
REMARK   20  A    between atoms: C_37  and  C_69
REMARK   21  A    between atoms: C_43  and  C_68
REMARK   22  A    between atoms: C_46  and  O_67
REMARK   23  A    between atoms: C_52  and  O_62
REMARK   24  A    between atoms: C_53  and  C_61
REMARK   25  A    between atoms: C_54  and  O_60
REMARK   26  A    between atoms: C_56  and  O_59
REMARK   27  A    between atoms: C_57  and  C_58
REMARK   28  A    between atoms: O_62  and  C_63
REMARK   29  A    between atoms: C_69  and  C_70
REMARK   30  A    between atoms: C_69  and  C_85
REMARK   31  A    between atoms: C_70  and  O_71
REMARK   32  A    between atoms: C_70  and  C_72
REMARK   33  A    between atoms: C_72  and  C_73
REMARK   34  A    between atoms: C_72  and  C_84
REMARK   35  A    between atoms: C_73  and  C_74
REMARK   36  A    between atoms: C_74  and  C_75
REMARK   37  A    between atoms: C_77  and  C_83
REMARK   38  A    between atoms: C_79  and  O_81
REMARK   39  A    between atoms: O_81  and  C_82
REMARK   40  A    between atoms: O_90  and  C_91
REMARK                            x       y       z     vdW  Elec       q    Type
REMARK                         _______ _______ _______ _____ _____    ______ ____
ROOT
ATOM      1  C   UNL     1     157.344 167.031 184.507  0.00  0.00    +0.113 C 
ATOM      2  O   UNL     1     158.493 166.806 185.364  0.00  0.00    -0.458 OA
ATOM      3  C   UNL     1     159.385 165.882 184.933  0.00  0.00    +0.332 C 
ATOM      4  O   UNL     1     159.344 165.250 183.892  0.00  0.00    -0.246 OA
ATOM      5  C   UNL     1     160.430 165.717 185.967  0.00  0.00    +0.023 C 
ATOM      6  C   UNL     1     161.478 164.917 185.717  0.00  0.00    -0.052 C 
ATOM      7  C   UNL     1     162.547 164.577 186.650  0.00  0.00    -0.054 C 
ATOM      8  C   UNL     1     162.982 165.434 187.595  0.00  0.00    -0.079 C 
ATOM      9  C   UNL     1     164.122 165.200 188.555  0.00  0.00    -0.008 C 
ATOM     10  C   UNL     1     163.696 165.116 190.035  0.00  0.00    +0.061 C 
ATOM     11  C   UNL     1     162.928 163.823 190.352  0.00  0.00    +0.003 C 
ATOM     12  C   UNL     1     162.677 163.581 191.856  0.00  0.00    +0.080 C 
ATOM     13  O   UNL     1     161.493 162.775 192.048  0.00  0.00    -0.369 OA
ATOM     14  C   UNL     1     161.699 161.367 191.823  0.00  0.00    +0.065 C 
ATOM     15  C   UNL     1     160.319 160.694 191.929  0.00  0.00    +0.000 C 
ATOM     16  C   UNL     1     160.337 159.152 191.836  0.00  0.00    +0.066 C 
ATOM     17  C   UNL     1     158.912 158.521 191.674  0.00  0.00    +0.009 C 
ATOM     18  C   UNL     1     158.123 159.048 190.449  0.00  0.00    +0.063 C 
ATOM     19  C   UNL     1     156.751 158.356 190.253  0.00  0.00    -0.000 C 
ATOM     20  C   UNL     1     156.123 158.805 188.925  0.00  0.00    +0.064 C 
ATOM     21  C   UNL     1     154.581 158.653 188.864  0.00  0.00    +0.020 C 
ATOM     22  C   UNL     1     153.943 159.470 187.696  0.00  0.00    +0.113 C 
ATOM     23  O   UNL     1     154.525 158.902 186.490  0.00  0.00    -0.458 OA
ATOM     24  C   UNL     1     153.752 158.653 185.412  0.00  0.00    +0.332 C 
ATOM     25  O   UNL     1     152.581 159.001 185.251  0.00  0.00    -0.246 OA
ATOM     26  C   UNL     1     154.498 157.887 184.390  0.00  0.00    +0.023 C 
ATOM     27  C   UNL     1     155.817 157.612 184.479  0.00  0.00    -0.052 C 
ATOM     28  C   UNL     1     156.643 156.883 183.521  0.00  0.00    -0.054 C 
ATOM     29  C   UNL     1     157.970 156.811 183.757  0.00  0.00    -0.079 C 
ATOM     30  C   UNL     1     159.039 156.200 182.896  0.00  0.00    -0.008 C 
ATOM     31  C   UNL     1     160.290 157.070 182.660  0.00  0.00    +0.061 C 
ATOM     32  C   UNL     1     160.082 158.392 181.892  0.00  0.00    +0.003 C 
ATOM     33  C   UNL     1     159.696 159.688 182.635  0.00  0.00    +0.080 C 
ATOM     34  O   UNL     1     158.340 159.617 183.085  0.00  0.00    -0.369 OA
ATOM     35  C   UNL     1     157.917 160.698 183.922  0.00  0.00    +0.065 C 
ATOM     36  C   UNL     1     157.841 162.051 183.192  0.00  0.00    +0.000 C 
ATOM     37  C   UNL     1     156.704 162.074 182.142  0.00  0.00    +0.066 C 
ATOM     38  C   UNL     1     156.214 163.526 181.879  0.00  0.00    +0.009 C 
ATOM     39  C   UNL     1     155.181 164.014 182.938  0.00  0.00    +0.063 C 
ATOM     40  C   UNL     1     155.027 165.558 182.938  0.00  0.00    -0.000 C 
ATOM     41  C   UNL     1     154.857 166.254 184.295  0.00  0.00    +0.064 C 
ATOM     42  C   UNL     1     156.124 166.330 185.182  0.00  0.00    +0.020 C 
ATOM     43  C   UNL     1     158.775 160.745 185.199  0.00  0.00    -0.008 C 
ATOM     44  C   UNL     1     160.234 160.538 184.926  0.00  0.00    -0.083 C 
ATOM     45  C   UNL     1     160.642 160.066 183.746  0.00  0.00    -0.059 C 
ATOM     46  C   UNL     1     162.700 160.806 192.843  0.00  0.00    -0.008 C 
ATOM     47  C   UNL     1     163.891 161.702 193.001  0.00  0.00    -0.083 C 
ATOM     48  C   UNL     1     163.861 162.966 192.565  0.00  0.00    -0.059 C 
ATOM     49  H   UNL     1     157.492 166.507 183.564  0.00  0.00    +0.074 HD
ATOM     50  H   UNL     1     160.283 166.229 186.906  0.00  0.00    +0.069 HD
ATOM     51  H   UNL     1     161.539 164.417 184.750  0.00  0.00    +0.062 HD
ATOM     52  H   UNL     1     162.531 166.423 187.672  0.00  0.00    +0.058 HD
ATOM     53  H   UNL     1     164.823 166.036 188.433  0.00  0.00    +0.033 HD
ATOM     54  H   UNL     1     164.710 164.315 188.298  0.00  0.00    +0.033 HD
ATOM     55  H   UNL     1     163.070 165.976 190.286  0.00  0.00    +0.060 HD
ATOM     56  H   UNL     1     161.967 163.840 189.826  0.00  0.00    +0.032 HD
ATOM     57  H   UNL     1     163.473 162.964 189.945  0.00  0.00    +0.032 HD
ATOM     58  H   UNL     1     162.447 164.536 192.340  0.00  0.00    +0.064 HD
ATOM     59  H   UNL     1     162.075 161.230 190.801  0.00  0.00    +0.060 HD
ATOM     60  H   UNL     1     159.829 160.996 192.863  0.00  0.00    +0.032 HD
ATOM     61  H   UNL     1     159.708 161.121 191.124  0.00  0.00    +0.032 HD
ATOM     62  H   UNL     1     160.765 158.771 192.775  0.00  0.00    +0.060 HD
ATOM     63  H   UNL     1     159.056 157.448 191.517  0.00  0.00    +0.035 HD
ATOM     64  H   UNL     1     157.917 160.118 190.577  0.00  0.00    +0.060 HD
ATOM     65  H   UNL     1     156.088 158.617 191.089  0.00  0.00    +0.032 HD
ATOM     66  H   UNL     1     156.886 157.270 190.250  0.00  0.00    +0.032 HD
ATOM     67  H   UNL     1     156.381 159.856 188.792  0.00  0.00    +0.060 HD
ATOM     68  H   UNL     1     154.187 159.029 189.813  0.00  0.00    +0.036 HD
ATOM     69  H   UNL     1     152.859 159.299 187.697  0.00  0.00    +0.074 HD
ATOM     70  H   UNL     1     153.900 157.584 183.539  0.00  0.00    +0.069 HD
ATOM     71  H   UNL     1     156.360 158.000 185.340  0.00  0.00    +0.062 HD
ATOM     72  H   UNL     1     158.360 157.286 184.660  0.00  0.00    +0.058 HD
ATOM     73  H   UNL     1     159.355 155.274 183.396  0.00  0.00    +0.033 HD
ATOM     74  H   UNL     1     158.648 155.911 181.919  0.00  0.00    +0.033 HD
ATOM     75  H   UNL     1     160.922 156.459 182.005  0.00  0.00    +0.060 HD
ATOM     76  H   UNL     1     159.342 158.215 181.101  0.00  0.00    +0.032 HD
ATOM     77  H   UNL     1     161.027 158.607 181.384  0.00  0.00    +0.032 HD
ATOM     78  H   UNL     1     159.743 160.479 181.879  0.00  0.00    +0.064 HD
ATOM     79  H   UNL     1     156.900 160.448 184.250  0.00  0.00    +0.060 HD
ATOM     80  H   UNL     1     158.794 162.287 182.705  0.00  0.00    +0.032 HD
ATOM     81  H   UNL     1     157.687 162.830 183.947  0.00  0.00    +0.032 HD
ATOM     82  H   UNL     1     155.851 161.472 182.484  0.00  0.00    +0.060 HD
ATOM     83  H   UNL     1     157.098 164.175 181.922  0.00  0.00    +0.035 HD
ATOM     84  H   UNL     1     154.204 163.579 182.683  0.00  0.00    +0.060 HD
ATOM     85  H   UNL     1     154.132 165.778 182.335  0.00  0.00    +0.032 HD
ATOM     86  H   UNL     1     155.843 166.021 182.380  0.00  0.00    +0.032 HD
ATOM     87  H   UNL     1     154.499 167.275 184.127  0.00  0.00    +0.060 HD
ATOM     88  H   UNL     1     156.456 165.305 185.399  0.00  0.00    +0.036 HD
ATOM     89  H   UNL     1     158.625 161.690 185.732  0.00  0.00    +0.033 HD
ATOM     90  H   UNL     1     158.464 159.935 185.872  0.00  0.00    +0.033 HD
ATOM     91  H   UNL     1     160.942 160.742 185.723  0.00  0.00    +0.057 HD
ATOM     92  H   UNL     1     161.707 159.918 183.565  0.00  0.00    +0.059 HD
ATOM     93  H   UNL     1     162.229 160.688 193.824  0.00  0.00    +0.033 HD
ATOM     94  H   UNL     1     163.040 159.814 192.521  0.00  0.00    +0.033 HD
ATOM     95  H   UNL     1     164.767 161.310 193.501  0.00  0.00    +0.057 HD
ATOM     96  H   UNL     1     164.738 163.595 192.699  0.00  0.00    +0.059 HD
ENDROOT
BRANCH  28  97
ATOM     97  C   UNL     1     155.960 156.277 182.321  0.00  0.00    -0.040 C 
ATOM     98  H   UNL     1     156.198 156.849 181.419  0.00  0.00    +0.028 HD
ATOM     99  H   UNL     1     154.868 156.279 182.391  0.00  0.00    +0.028 HD
ATOM    100  H   UNL     1     156.276 155.238 182.175  0.00  0.00    +0.028 HD
ENDBRANCH  28  97
BRANCH  21 101
ATOM    101  C   UNL     1     154.139 157.186 188.773  0.00  0.00    -0.057 C 
ATOM    102  H   UNL     1     154.912 156.515 189.156  0.00  0.00    +0.023 HD
ATOM    103  H   UNL     1     153.238 157.025 189.368  0.00  0.00    +0.023 HD
ATOM    104  H   UNL     1     153.911 156.880 187.748  0.00  0.00    +0.023 HD
ENDBRANCH  21 101
BRANCH  42 105
ATOM    105  C   UNL     1     155.772 166.884 186.574  0.00  0.00    -0.057 C 
ATOM    106  H   UNL     1     155.039 166.256 187.082  0.00  0.00    +0.023 HD
ATOM    107  H   UNL     1     155.402 167.911 186.524  0.00  0.00    +0.023 HD
ATOM    108  H   UNL     1     156.662 166.890 187.208  0.00  0.00    +0.023 HD
ENDBRANCH  42 105
BRANCH  17 109
ATOM    109  C   UNL     1     158.105 158.677 192.968  0.00  0.00    -0.058 C 
ATOM    110  H   UNL     1     158.703 159.131 193.758  0.00  0.00    +0.023 HD
ATOM    111  H   UNL     1     157.783 157.699 193.338  0.00  0.00    +0.023 HD
ATOM    112  H   UNL     1     157.214 159.287 192.818  0.00  0.00    +0.023 HD
ENDBRANCH  17 109
BRANCH  38 113
ATOM    113  C   UNL     1     155.604 163.712 180.478  0.00  0.00    -0.058 C 
ATOM    114  H   UNL     1     155.643 162.792 179.883  0.00  0.00    +0.023 HD
ATOM    115  H   UNL     1     154.551 164.025 180.550  0.00  0.00    +0.023 HD
ATOM    116  H   UNL     1     156.138 164.479 179.910  0.00  0.00    +0.023 HD
ENDBRANCH  38 113
BRANCH   7 117
ATOM    117  C   UNL     1     163.142 163.209 186.441  0.00  0.00    -0.040 C 
ATOM    118  H   UNL     1     162.958 162.867 185.419  0.00  0.00    +0.028 HD
ATOM    119  H   UNL     1     162.706 162.476 187.126  0.00  0.00    +0.028 HD
ATOM    120  H   UNL     1     164.223 163.199 186.624  0.00  0.00    +0.028 HD
ENDBRANCH   7 117
BRANCH   1 121
ATOM    121  C   UNL     1     157.224 168.541 184.150  0.00  0.00    +0.020 C 
ATOM    122  H   UNL     1     156.167 168.827 184.180  0.00  0.00    +0.036 HD
BRANCH 121 123
ATOM    123  C   UNL     1     157.948 169.474 185.139  0.00  0.00    -0.057 C 
ATOM    124  H   UNL     1     157.792 170.531 184.909  0.00  0.00    +0.023 HD
ATOM    125  H   UNL     1     157.613 169.297 186.165  0.00  0.00    +0.023 HD
ATOM    126  H   UNL     1     159.022 169.273 185.153  0.00  0.00    +0.023 HD
ENDBRANCH 121 123
BRANCH 121 127
ATOM    127  C   UNL     1     157.753 168.865 182.712  0.00  0.00    +0.064 C 
ATOM    128  H   UNL     1     158.514 169.653 182.792  0.00  0.00    +0.060 HD
BRANCH 127 129
ATOM    129  C   UNL     1     156.686 169.364 181.695  0.00  0.00    -0.017 C 
ATOM    130  H   UNL     1     157.121 170.144 181.063  0.00  0.00    +0.032 HD
BRANCH 129 131
ATOM    131  C   UNL     1     156.199 168.227 180.790  0.00  0.00    -0.060 C 
ATOM    132  H   UNL     1     155.479 167.575 181.292  0.00  0.00    +0.023 HD
ATOM    133  H   UNL     1     155.723 168.619 179.883  0.00  0.00    +0.023 HD
ATOM    134  H   UNL     1     157.036 167.591 180.482  0.00  0.00    +0.023 HD
ENDBRANCH 129 131
BRANCH 129 135
ATOM    135  C   UNL     1     155.441 169.992 182.373  0.00  0.00    -0.046 C 
ATOM    136  H   UNL     1     154.620 169.268 182.298  0.00  0.00    +0.027 HD
ATOM    137  H   UNL     1     155.623 170.141 183.444  0.00  0.00    +0.027 HD
BRANCH 135 138
ATOM    138  C   UNL     1     154.980 171.317 181.750  0.00  0.00    -0.026 C 
ATOM    139  H   UNL     1     155.666 171.608 180.950  0.00  0.00    +0.029 HD
ATOM    140  H   UNL     1     153.996 171.170 181.288  0.00  0.00    +0.029 HD
BRANCH 138 143
ATOM    141  C   UNL     1     155.892 174.213 181.412  0.00  0.00    +0.059 C 
ATOM    142  O   UNL     1     154.759 173.742 182.150  0.00  0.00    -0.373 OA
ATOM    143  C   UNL     1     154.930 172.464 182.773  0.00  0.00    +0.061 C 
ATOM    144  C   UNL     1     156.148 172.487 183.698  0.00  0.00    -0.000 C 
ATOM    145  C   UNL     1     157.404 172.964 182.971  0.00  0.00    +0.063 C 
ATOM    146  C   UNL     1     157.123 174.308 182.304  0.00  0.00    -0.000 C 
ATOM    147  H   UNL     1     156.078 173.537 180.571  0.00  0.00    +0.059 HD
ATOM    148  H   UNL     1     154.038 172.312 183.394  0.00  0.00    +0.060 HD
ATOM    149  H   UNL     1     155.946 173.174 184.533  0.00  0.00    +0.032 HD
ATOM    150  H   UNL     1     156.315 171.504 184.152  0.00  0.00    +0.032 HD
ATOM    151  H   UNL     1     157.691 172.219 182.219  0.00  0.00    +0.060 HD
ATOM    152  H   UNL     1     157.990 174.644 181.722  0.00  0.00    +0.032 HD
ATOM    153  H   UNL     1     156.967 175.064 183.088  0.00  0.00    +0.032 HD
BRANCH 141 154
ATOM    154  C   UNL     1     155.523 175.575 180.841  0.00  0.00    -0.039 C 
ATOM    155  H   UNL     1     156.406 176.114 180.485  0.00  0.00    +0.025 HD
ATOM    156  H   UNL     1     154.821 175.463 180.007  0.00  0.00    +0.025 HD
ATOM    157  H   UNL     1     155.016 176.188 181.595  0.00  0.00    +0.025 HD
ENDBRANCH 141 154
BRANCH 145 158
ATOM    158  O   UNL     1     158.451 173.054 183.943  0.00  0.00    -0.380 OA
BRANCH 158 159
ATOM    159  C   UNL     1     159.648 172.398 183.545  0.00  0.00    +0.037 C 
ATOM    160  H   UNL     1     160.421 173.158 183.410  0.00  0.00    +0.052 HD
ATOM    161  H   UNL     1     159.507 171.884 182.593  0.00  0.00    +0.052 HD
ATOM    162  H   UNL     1     159.991 171.693 184.308  0.00  0.00    +0.052 HD
ENDBRANCH 158 159
ENDBRANCH 145 158
ENDBRANCH 138 143
ENDBRANCH 135 138
ENDBRANCH 129 135
ENDBRANCH 127 129
BRANCH 127 163
ATOM    163  O   UNL     1     158.412 167.718 182.181  0.00  0.00    -0.391 OA
ATOM    164  H   UNL     1     159.345 167.943 182.036  0.00  0.00    +0.210 HD
ENDBRANCH 127 163
ENDBRANCH 121 127
ENDBRANCH   1 121
BRANCH  41 165
ATOM    165  O   UNL     1     153.820 165.564 185.011  0.00  0.00    -0.391 OA
ATOM    166  H   UNL     1     152.972 165.814 184.602  0.00  0.00    +0.210 HD
ENDBRANCH  41 165
BRANCH  39 167
ATOM    167  O   UNL     1     155.484 163.510 184.225  0.00  0.00    -0.391 OA
ATOM    168  H   UNL     1     154.643 163.194 184.618  0.00  0.00    +0.210 HD
ENDBRANCH  39 167
BRANCH  31 169
ATOM    169  O   UNL     1     161.074 157.245 183.836  0.00  0.00    -0.391 OA
ATOM    170  H   UNL     1     161.884 157.732 183.599  0.00  0.00    +0.210 HD
ENDBRANCH  31 169
BRANCH  22 171
ATOM    171  C   UNL     1     154.219 161.009 187.725  0.00  0.00    +0.020 C 
ATOM    172  H   UNL     1     153.700 161.443 186.868  0.00  0.00    +0.036 HD
BRANCH 171 173
ATOM    173  C   UNL     1     153.541 161.674 188.938  0.00  0.00    -0.057 C 
ATOM    174  H   UNL     1     152.459 161.499 188.928  0.00  0.00    +0.023 HD
ATOM    175  H   UNL     1     153.927 161.265 189.880  0.00  0.00    +0.023 HD
ATOM    176  H   UNL     1     153.725 162.753 188.962  0.00  0.00    +0.023 HD
ENDBRANCH 171 173
BRANCH 171 177
ATOM    177  C   UNL     1     155.718 161.469 187.706  0.00  0.00    +0.064 C 
ATOM    178  H   UNL     1     156.364 160.579 187.723  0.00  0.00    +0.060 HD
BRANCH 177 179
ATOM    179  O   UNL     1     156.032 162.127 186.480  0.00  0.00    -0.391 OA
ATOM    180  H   UNL     1     155.617 161.623 185.758  0.00  0.00    +0.210 HD
ENDBRANCH 177 179
BRANCH 177 181
ATOM    181  C   UNL     1     156.128 162.382 188.913  0.00  0.00    -0.017 C 
ATOM    182  H   UNL     1     155.545 162.065 189.790  0.00  0.00    +0.032 HD
BRANCH 181 183
ATOM    183  C   UNL     1     157.626 162.242 189.233  0.00  0.00    -0.060 C 
ATOM    184  H   UNL     1     157.849 162.753 190.175  0.00  0.00    +0.023 HD
ATOM    185  H   UNL     1     158.268 162.664 188.456  0.00  0.00    +0.023 HD
ATOM    186  H   UNL     1     157.925 161.196 189.318  0.00  0.00    +0.023 HD
ENDBRANCH 181 183
BRANCH 181 187
ATOM    187  C   UNL     1     155.779 163.875 188.638  0.00  0.00    -0.046 C 
ATOM    188  H   UNL     1     154.857 163.924 188.052  0.00  0.00    +0.027 HD
ATOM    189  H   UNL     1     156.583 164.300 188.025  0.00  0.00    +0.027 HD
BRANCH 187 190
ATOM    190  C   UNL     1     155.598 164.731 189.907  0.00  0.00    -0.026 C 
ATOM    191  H   UNL     1     156.543 165.243 190.110  0.00  0.00    +0.029 HD
ATOM    192  H   UNL     1     155.407 164.062 190.755  0.00  0.00    +0.029 HD
BRANCH 190 193
ATOM    193  C   UNL     1     154.524 165.840 189.898  0.00  0.00    +0.061 C 
ATOM    194  O   UNL     1     154.217 166.338 191.200  0.00  0.00    -0.373 OA
ATOM    195  C   UNL     1     153.220 165.635 191.932  0.00  0.00    +0.059 C 
ATOM    196  C   UNL     1     151.921 165.528 191.146  0.00  0.00    -0.000 C 
ATOM    197  C   UNL     1     152.171 164.851 189.795  0.00  0.00    +0.063 C 
ATOM    198  C   UNL     1     153.278 165.590 189.047  0.00  0.00    -0.000 C 
ATOM    199  H   UNL     1     155.034 166.689 189.421  0.00  0.00    +0.060 HD
ATOM    200  H   UNL     1     153.599 164.640 192.186  0.00  0.00    +0.059 HD
ATOM    201  H   UNL     1     151.177 164.966 191.723  0.00  0.00    +0.032 HD
ATOM    202  H   UNL     1     151.489 166.519 190.964  0.00  0.00    +0.032 HD
ATOM    203  H   UNL     1     152.457 163.809 189.956  0.00  0.00    +0.060 HD
ATOM    204  H   UNL     1     152.870 166.567 188.752  0.00  0.00    +0.032 HD
ATOM    205  H   UNL     1     153.528 165.082 188.108  0.00  0.00    +0.032 HD
BRANCH 195 206
ATOM    206  C   UNL     1     152.986 166.398 193.230  0.00  0.00    -0.039 C 
ATOM    207  H   UNL     1     152.662 167.420 193.028  0.00  0.00    +0.025 HD
ATOM    208  H   UNL     1     152.225 165.905 193.838  0.00  0.00    +0.025 HD
ATOM    209  H   UNL     1     153.895 166.435 193.834  0.00  0.00    +0.025 HD
ENDBRANCH 195 206
BRANCH 197 210
ATOM    210  O   UNL     1     151.017 164.857 188.945  0.00  0.00    -0.380 OA
BRANCH 210 211
ATOM    211  C   UNL     1     151.269 164.417 187.619  0.00  0.00    +0.037 C 
ATOM    212  H   UNL     1     150.359 164.001 187.185  0.00  0.00    +0.052 HD
ATOM    213  H   UNL     1     151.558 165.284 187.020  0.00  0.00    +0.052 HD
ATOM    214  H   UNL     1     152.078 163.684 187.589  0.00  0.00    +0.052 HD
ENDBRANCH 210 211
ENDBRANCH 197 210
ENDBRANCH 190 193
ENDBRANCH 187 190
ENDBRANCH 181 187
ENDBRANCH 177 181
ENDBRANCH 171 177
ENDBRANCH  22 171
BRANCH  20 215
ATOM    215  O   UNL     1     156.802 158.087 187.885  0.00  0.00    -0.391 OA
ATOM    216  H   UNL     1     157.467 157.504 188.289  0.00  0.00    +0.210 HD
ENDBRANCH  20 215
BRANCH  18 217
ATOM    217  O   UNL     1     158.932 158.917 189.284  0.00  0.00    -0.391 OA
ATOM    218  H   UNL     1     159.078 157.968 189.081  0.00  0.00    +0.210 HD
ENDBRANCH  18 217
BRANCH  10 219
ATOM    219  O   UNL     1     164.878 165.213 190.833  0.00  0.00    -0.391 OA
ATOM    220  H   UNL     1     164.879 166.090 191.257  0.00  0.00    +0.210 HD
ENDBRANCH  10 219
BRANCH  37 221
ATOM    221  O   UNL     1     157.243 161.532 180.926  0.00  0.00    -0.379 OA
BRANCH 221 222
ATOM    222  C   UNL     1     156.510 160.406 180.461  0.00  0.00    +0.037 C 
ATOM    223  H   UNL     1     157.094 159.846 179.723  0.00  0.00    +0.052 HD
ATOM    224  H   UNL     1     155.556 160.711 180.020  0.00  0.00    +0.052 HD
ATOM    225  H   UNL     1     156.302 159.747 181.311  0.00  0.00    +0.052 HD
ENDBRANCH 221 222
ENDBRANCH  37 221
BRANCH  16 226
ATOM    226  O   UNL     1     161.245 158.792 190.787  0.00  0.00    -0.379 OA
BRANCH 226 227
ATOM    227  C   UNL     1     161.810 157.495 190.906  0.00  0.00    +0.037 C 
ATOM    228  H   UNL     1     161.679 156.984 189.948  0.00  0.00    +0.052 HD
ATOM    229  H   UNL     1     162.883 157.550 191.119  0.00  0.00    +0.052 HD
ATOM    230  H   UNL     1     161.298 156.906 191.672  0.00  0.00    +0.052 HD
ENDBRANCH 226 227
ENDBRANCH  16 226
TORSDOF 40
ENDMDL
MODEL 3
REMARK VINA RESULT:      -4.8      2.851      5.462
REMARK  Name = Swinholide A_conf2
REMARK  40 active torsions:
REMARK  status: ('A' for Active; 'I' for Inactive)
REMARK    1  A    between atoms: C_1  and  C_2
REMARK    2  A    between atoms: C_4  and  C_10
REMARK    3  A    between atoms: C_6  and  O_8
REMARK    4  A    between atoms: O_8  and  C_9
REMARK    5  A    between atoms: C_10  and  C_11
REMARK    6  A    between atoms: C_11  and  C_12
REMARK    7  A    between atoms: C_12  and  C_13
REMARK    8  A    between atoms: C_12  and  C_98
REMARK    9  A    between atoms: C_13  and  O_14
REMARK   10  A    between atoms: C_13  and  C_15
REMARK   11  A    between atoms: C_15  and  C_16
REMARK   12  A    between atoms: C_15  and  C_97
REMARK   13  A    between atoms: C_22  and  C_96
REMARK   14  A    between atoms: C_25  and  O_95
REMARK   15  A    between atoms: C_31  and  O_90
REMARK   16  A    between atoms: C_32  and  C_89
REMARK   17  A    between atoms: C_33  and  O_88
REMARK   18  A    between atoms: C_35  and  O_87
REMARK   19  A    between atoms: C_36  and  C_86
REMARK   20  A    between atoms: C_37  and  C_69
REMARK   21  A    between atoms: C_43  and  C_68
REMARK   22  A    between atoms: C_46  and  O_67
REMARK   23  A    between atoms: C_52  and  O_62
REMARK   24  A    between atoms: C_53  and  C_61
REMARK   25  A    between atoms: C_54  and  O_60
REMARK   26  A    between atoms: C_56  and  O_59
REMARK   27  A    between atoms: C_57  and  C_58
REMARK   28  A    between atoms: O_62  and  C_63
REMARK   29  A    between atoms: C_69  and  C_70
REMARK   30  A    between atoms: C_69  and  C_85
REMARK   31  A    between atoms: C_70  and  O_71
REMARK   32  A    between atoms: C_70  and  C_72
REMARK   33  A    between atoms: C_72  and  C_73
REMARK   34  A    between atoms: C_72  and  C_84
REMARK   35  A    between atoms: C_73  and  C_74
REMARK   36  A    between atoms: C_74  and  C_75
REMARK   37  A    between atoms: C_77  and  C_83
REMARK   38  A    between atoms: C_79  and  O_81
REMARK   39  A    between atoms: O_81  and  C_82
REMARK   40  A    between atoms: O_90  and  C_91
REMARK                            x       y       z     vdW  Elec       q    Type
REMARK                         _______ _______ _______ _____ _____    ______ ____
ROOT
ATOM      1  C   UNL     1     158.084 164.335 185.944  0.00  0.00    +0.113 C 
ATOM      2  O   UNL     1     158.010 162.887 186.020  0.00  0.00    -0.458 OA
ATOM      3  C   UNL     1     157.552 162.256 184.912  0.00  0.00    +0.332 C 
ATOM      4  O   UNL     1     157.231 162.769 183.854  0.00  0.00    -0.246 OA
ATOM      5  C   UNL     1     157.455 160.808 185.201  0.00  0.00    +0.023 C 
ATOM      6  C   UNL     1     157.112 159.966 184.214  0.00  0.00    -0.052 C 
ATOM      7  C   UNL     1     156.889 158.530 184.345  0.00  0.00    -0.054 C 
ATOM      8  C   UNL     1     157.563 157.770 185.230  0.00  0.00    -0.079 C 
ATOM      9  C   UNL     1     157.451 156.275 185.389  0.00  0.00    -0.008 C 
ATOM     10  C   UNL     1     156.859 155.823 186.741  0.00  0.00    +0.061 C 
ATOM     11  C   UNL     1     155.357 156.127 186.853  0.00  0.00    +0.003 C 
ATOM     12  C   UNL     1     154.668 155.497 188.083  0.00  0.00    +0.080 C 
ATOM     13  O   UNL     1     153.515 156.277 188.472  0.00  0.00    -0.369 OA
ATOM     14  C   UNL     1     152.349 156.044 187.659  0.00  0.00    +0.065 C 
ATOM     15  C   UNL     1     151.279 157.051 188.120  0.00  0.00    +0.000 C 
ATOM     16  C   UNL     1     149.898 156.886 187.447  0.00  0.00    +0.066 C 
ATOM     17  C   UNL     1     148.922 158.080 187.730  0.00  0.00    +0.009 C 
ATOM     18  C   UNL     1     149.479 159.463 187.309  0.00  0.00    +0.063 C 
ATOM     19  C   UNL     1     148.472 160.623 187.516  0.00  0.00    -0.000 C 
ATOM     20  C   UNL     1     149.034 161.918 186.908  0.00  0.00    +0.064 C 
ATOM     21  C   UNL     1     148.434 163.217 187.508  0.00  0.00    +0.020 C 
ATOM     22  C   UNL     1     149.288 164.482 187.175  0.00  0.00    +0.113 C 
ATOM     23  O   UNL     1     149.260 164.571 185.723  0.00  0.00    -0.458 OA
ATOM     24  C   UNL     1     149.073 165.762 185.117  0.00  0.00    +0.332 C 
ATOM     25  O   UNL     1     149.072 166.869 185.657  0.00  0.00    -0.246 OA
ATOM     26  C   UNL     1     148.868 165.590 183.662  0.00  0.00    +0.023 C 
ATOM     27  C   UNL     1     149.000 164.408 183.025  0.00  0.00    -0.052 C 
ATOM     28  C   UNL     1     148.836 164.139 181.599  0.00  0.00    -0.054 C 
ATOM     29  C   UNL     1     149.118 162.897 181.153  0.00  0.00    -0.079 C 
ATOM     30  C   UNL     1     149.112 162.390 179.739  0.00  0.00    -0.008 C 
ATOM     31  C   UNL     1     150.356 161.586 179.308  0.00  0.00    +0.061 C 
ATOM     32  C   UNL     1     151.701 162.343 179.293  0.00  0.00    +0.003 C 
ATOM     33  C   UNL     1     152.575 162.432 180.560  0.00  0.00    +0.080 C 
ATOM     34  O   UNL     1     151.975 163.312 181.515  0.00  0.00    -0.369 OA
ATOM     35  C   UNL     1     152.617 163.354 182.794  0.00  0.00    +0.065 C 
ATOM     36  C   UNL     1     154.021 163.984 182.759  0.00  0.00    +0.000 C 
ATOM     37  C   UNL     1     153.962 165.499 182.447  0.00  0.00    +0.066 C 
ATOM     38  C   UNL     1     155.209 166.236 183.015  0.00  0.00    +0.009 C 
ATOM     39  C   UNL     1     155.061 166.592 184.524  0.00  0.00    +0.063 C 
ATOM     40  C   UNL     1     156.427 166.919 185.184  0.00  0.00    -0.000 C 
ATOM     41  C   UNL     1     156.660 166.422 186.617  0.00  0.00    +0.064 C 
ATOM     42  C   UNL     1     156.891 164.899 186.778  0.00  0.00    +0.020 C 
ATOM     43  C   UNL     1     152.593 161.959 183.444  0.00  0.00    -0.008 C 
ATOM     44  C   UNL     1     152.926 160.863 182.478  0.00  0.00    -0.083 C 
ATOM     45  C   UNL     1     152.925 161.096 181.163  0.00  0.00    -0.059 C 
ATOM     46  C   UNL     1     151.880 154.589 187.804  0.00  0.00    -0.008 C 
ATOM     47  C   UNL     1     153.026 153.627 187.728  0.00  0.00    -0.083 C 
ATOM     48  C   UNL     1     154.287 154.049 187.874  0.00  0.00    -0.059 C 
ATOM     49  H   UNL     1     157.894 164.650 184.919  0.00  0.00    +0.074 HD
ATOM     50  H   UNL     1     157.636 160.493 186.217  0.00  0.00    +0.069 HD
ATOM     51  H   UNL     1     156.923 160.370 183.220  0.00  0.00    +0.062 HD
ATOM     52  H   UNL     1     158.308 158.233 185.876  0.00  0.00    +0.058 HD
ATOM     53  H   UNL     1     158.464 155.863 185.289  0.00  0.00    +0.033 HD
ATOM     54  H   UNL     1     156.889 155.808 184.575  0.00  0.00    +0.033 HD
ATOM     55  H   UNL     1     157.388 156.322 187.557  0.00  0.00    +0.060 HD
ATOM     56  H   UNL     1     155.212 157.213 186.878  0.00  0.00    +0.032 HD
ATOM     57  H   UNL     1     154.844 155.780 185.948  0.00  0.00    +0.032 HD
ATOM     58  H   UNL     1     155.345 155.552 188.941  0.00  0.00    +0.064 HD
ATOM     59  H   UNL     1     152.604 156.262 186.614  0.00  0.00    +0.060 HD
ATOM     60  H   UNL     1     151.163 156.997 189.208  0.00  0.00    +0.032 HD
ATOM     61  H   UNL     1     151.690 158.047 187.916  0.00  0.00    +0.032 HD
ATOM     62  H   UNL     1     149.438 155.976 187.860  0.00  0.00    +0.060 HD
ATOM     63  H   UNL     1     148.025 157.906 187.128  0.00  0.00    +0.035 HD
ATOM     64  H   UNL     1     150.361 159.705 187.915  0.00  0.00    +0.060 HD
ATOM     65  H   UNL     1     148.290 160.761 188.590  0.00  0.00    +0.032 HD
ATOM     66  H   UNL     1     147.521 160.372 187.037  0.00  0.00    +0.032 HD
ATOM     67  H   UNL     1     150.110 161.911 187.085  0.00  0.00    +0.060 HD
ATOM     68  H   UNL     1     148.411 163.084 188.594  0.00  0.00    +0.036 HD
ATOM     69  H   UNL     1     148.797 165.363 187.607  0.00  0.00    +0.074 HD
ATOM     70  H   UNL     1     148.627 166.506 183.138  0.00  0.00    +0.069 HD
ATOM     71  H   UNL     1     149.299 163.542 183.615  0.00  0.00    +0.062 HD
ATOM     72  H   UNL     1     149.439 162.148 181.881  0.00  0.00    +0.058 HD
ATOM     73  H   UNL     1     148.233 161.738 179.642  0.00  0.00    +0.033 HD
ATOM     74  H   UNL     1     148.980 163.203 179.023  0.00  0.00    +0.033 HD
ATOM     75  H   UNL     1     150.162 161.332 178.259  0.00  0.00    +0.060 HD
ATOM     76  H   UNL     1     151.515 163.361 178.929  0.00  0.00    +0.032 HD
ATOM     77  H   UNL     1     152.321 161.856 178.534  0.00  0.00    +0.032 HD
ATOM     78  H   UNL     1     153.509 162.901 180.234  0.00  0.00    +0.064 HD
ATOM     79  H   UNL     1     151.989 163.994 183.428  0.00  0.00    +0.060 HD
ATOM     80  H   UNL     1     154.657 163.482 182.022  0.00  0.00    +0.032 HD
ATOM     81  H   UNL     1     154.490 163.807 183.734  0.00  0.00    +0.032 HD
ATOM     82  H   UNL     1     153.060 165.949 182.881  0.00  0.00    +0.060 HD
ATOM     83  H   UNL     1     156.064 165.559 182.892  0.00  0.00    +0.035 HD
ATOM     84  H   UNL     1     154.428 167.486 184.600  0.00  0.00    +0.060 HD
ATOM     85  H   UNL     1     156.509 168.017 185.194  0.00  0.00    +0.032 HD
ATOM     86  H   UNL     1     157.248 166.598 184.539  0.00  0.00    +0.032 HD
ATOM     87  H   UNL     1     157.527 166.942 187.036  0.00  0.00    +0.060 HD
ATOM     88  H   UNL     1     155.999 164.373 186.408  0.00  0.00    +0.036 HD
ATOM     89  H   UNL     1     153.274 161.920 184.302  0.00  0.00    +0.033 HD
ATOM     90  H   UNL     1     151.582 161.753 183.817  0.00  0.00    +0.033 HD
ATOM     91  H   UNL     1     153.124 159.871 182.870  0.00  0.00    +0.057 HD
ATOM     92  H   UNL     1     153.166 160.287 180.473  0.00  0.00    +0.059 HD
ATOM     93  H   UNL     1     151.372 154.440 188.763  0.00  0.00    +0.033 HD
ATOM     94  H   UNL     1     151.160 154.351 187.012  0.00  0.00    +0.033 HD
ATOM     95  H   UNL     1     152.808 152.578 187.578  0.00  0.00    +0.057 HD
ATOM     96  H   UNL     1     155.098 153.328 187.821  0.00  0.00    +0.059 HD
ENDROOT
BRANCH  28  97
ATOM     97  C   UNL     1     148.382 165.275 180.717  0.00  0.00    -0.040 C 
ATOM     98  H   UNL     1     147.531 165.791 181.171  0.00  0.00    +0.028 HD
ATOM     99  H   UNL     1     148.039 164.954 179.730  0.00  0.00    +0.028 HD
ATOM    100  H   UNL     1     149.192 165.997 180.562  0.00  0.00    +0.028 HD
ENDBRANCH  28  97
BRANCH  21 101
ATOM    101  C   UNL     1     146.979 163.444 187.077  0.00  0.00    -0.057 C 
ATOM    102  H   UNL     1     146.904 163.591 185.997  0.00  0.00    +0.023 HD
ATOM    103  H   UNL     1     146.368 162.577 187.336  0.00  0.00    +0.023 HD
ATOM    104  H   UNL     1     146.529 164.315 187.563  0.00  0.00    +0.023 HD
ENDBRANCH  21 101
BRANCH  42 105
ATOM    105  C   UNL     1     156.928 164.516 188.267  0.00  0.00    -0.057 C 
ATOM    106  H   UNL     1     157.790 164.954 188.773  0.00  0.00    +0.023 HD
ATOM    107  H   UNL     1     156.930 163.433 188.412  0.00  0.00    +0.023 HD
ATOM    108  H   UNL     1     156.043 164.909 188.775  0.00  0.00    +0.023 HD
ENDBRANCH  42 105
BRANCH  17 109
ATOM    109  C   UNL     1     148.481 158.078 189.198  0.00  0.00    -0.058 C 
ATOM    110  H   UNL     1     147.411 157.895 189.291  0.00  0.00    +0.023 HD
ATOM    111  H   UNL     1     148.677 159.052 189.657  0.00  0.00    +0.023 HD
ATOM    112  H   UNL     1     149.011 157.323 189.778  0.00  0.00    +0.023 HD
ENDBRANCH  17 109
BRANCH  38 113
ATOM    113  C   UNL     1     155.554 167.521 182.240  0.00  0.00    -0.058 C 
ATOM    114  H   UNL     1     155.411 167.405 181.159  0.00  0.00    +0.023 HD
ATOM    115  H   UNL     1     154.924 168.360 182.576  0.00  0.00    +0.023 HD
ATOM    116  H   UNL     1     156.597 167.810 182.393  0.00  0.00    +0.023 HD
ENDBRANCH  38 113
BRANCH   7 117
ATOM    117  C   UNL     1     155.875 157.970 183.381  0.00  0.00    -0.040 C 
ATOM    118  H   UNL     1     155.588 158.728 182.648  0.00  0.00    +0.028 HD
ATOM    119  H   UNL     1     154.969 157.644 183.901  0.00  0.00    +0.028 HD
ATOM    120  H   UNL     1     156.257 157.093 182.846  0.00  0.00    +0.028 HD
ENDBRANCH   7 117
BRANCH   1 121
ATOM    121  C   UNL     1     159.521 164.822 186.290  0.00  0.00    +0.020 C 
ATOM    122  H   UNL     1     159.449 165.709 186.927  0.00  0.00    +0.036 HD
BRANCH 121 123
ATOM    123  C   UNL     1     160.353 163.794 187.079  0.00  0.00    -0.057 C 
ATOM    124  H   UNL     1     159.736 163.161 187.722  0.00  0.00    +0.023 HD
ATOM    125  H   UNL     1     160.919 163.143 186.406  0.00  0.00    +0.023 HD
ATOM    126  H   UNL     1     161.107 164.289 187.695  0.00  0.00    +0.023 HD
ENDBRANCH 121 123
BRANCH 121 127
ATOM    127  C   UNL     1     160.343 165.227 185.019  0.00  0.00    +0.064 C 
ATOM    128  H   UNL     1     161.312 164.713 185.054  0.00  0.00    +0.060 HD
BRANCH 127 129
ATOM    129  C   UNL     1     160.638 166.747 184.861  0.00  0.00    -0.017 C 
ATOM    130  H   UNL     1     160.466 167.252 185.816  0.00  0.00    +0.032 HD
BRANCH 129 131
ATOM    131  C   UNL     1     162.089 166.996 184.438  0.00  0.00    -0.060 C 
ATOM    132  H   UNL     1     162.787 166.306 184.920  0.00  0.00    +0.023 HD
ATOM    133  H   UNL     1     162.209 166.892 183.353  0.00  0.00    +0.023 HD
ATOM    134  H   UNL     1     162.406 168.007 184.716  0.00  0.00    +0.023 HD
ENDBRANCH 129 131
BRANCH 129 135
ATOM    135  C   UNL     1     159.720 167.444 183.824  0.00  0.00    -0.046 C 
ATOM    136  H   UNL     1     160.272 167.509 182.879  0.00  0.00    +0.027 HD
ATOM    137  H   UNL     1     158.835 166.829 183.622  0.00  0.00    +0.027 HD
BRANCH 135 138
ATOM    138  C   UNL     1     159.271 168.857 184.224  0.00  0.00    -0.026 C 
ATOM    139  H   UNL     1     158.351 168.801 184.812  0.00  0.00    +0.029 HD
ATOM    140  H   UNL     1     160.037 169.304 184.871  0.00  0.00    +0.029 HD
BRANCH 138 143
ATOM    141  C   UNL     1     160.177 171.735 183.744  0.00  0.00    +0.059 C 
ATOM    142  O   UNL     1     160.063 170.689 182.773  0.00  0.00    -0.373 OA
ATOM    143  C   UNL     1     159.002 169.757 183.006  0.00  0.00    +0.061 C 
ATOM    144  C   UNL     1     157.664 170.494 183.098  0.00  0.00    -0.000 C 
ATOM    145  C   UNL     1     157.704 171.616 184.132  0.00  0.00    +0.063 C 
ATOM    146  C   UNL     1     158.885 172.537 183.834  0.00  0.00    -0.000 C 
ATOM    147  H   UNL     1     160.426 171.296 184.715  0.00  0.00    +0.059 HD
ATOM    148  H   UNL     1     158.971 169.110 182.120  0.00  0.00    +0.060 HD
ATOM    149  H   UNL     1     157.433 170.931 182.115  0.00  0.00    +0.032 HD
ATOM    150  H   UNL     1     156.847 169.797 183.316  0.00  0.00    +0.032 HD
ATOM    151  H   UNL     1     157.806 171.181 185.134  0.00  0.00    +0.060 HD
ATOM    152  H   UNL     1     158.975 173.318 184.599  0.00  0.00    +0.032 HD
ATOM    153  H   UNL     1     158.693 173.058 182.884  0.00  0.00    +0.032 HD
BRANCH 141 154
ATOM    154  C   UNL     1     161.341 172.618 183.320  0.00  0.00    -0.039 C 
ATOM    155  H   UNL     1     161.573 172.495 182.258  0.00  0.00    +0.025 HD
ATOM    156  H   UNL     1     161.110 173.674 183.508  0.00  0.00    +0.025 HD
ATOM    157  H   UNL     1     162.239 172.387 183.906  0.00  0.00    +0.025 HD
ENDBRANCH 141 154
BRANCH 145 158
ATOM    158  O   UNL     1     156.453 172.306 184.061  0.00  0.00    -0.380 OA
BRANCH 158 159
ATOM    159  C   UNL     1     156.592 173.719 183.976  0.00  0.00    +0.037 C 
ATOM    160  H   UNL     1     155.618 174.168 184.184  0.00  0.00    +0.052 HD
ATOM    161  H   UNL     1     156.896 174.016 182.971  0.00  0.00    +0.052 HD
ATOM    162  H   UNL     1     157.306 174.096 184.714  0.00  0.00    +0.052 HD
ENDBRANCH 158 159
ENDBRANCH 145 158
ENDBRANCH 138 143
ENDBRANCH 135 138
ENDBRANCH 129 135
ENDBRANCH 127 129
BRANCH 127 163
ATOM    163  O   UNL     1     159.674 164.752 183.852  0.00  0.00    -0.391 OA
ATOM    164  H   UNL     1     159.601 163.786 183.917  0.00  0.00    +0.210 HD
ENDBRANCH 127 163
ENDBRANCH 121 127
ENDBRANCH   1 121
BRANCH  41 165
ATOM    165  O   UNL     1     155.523 166.812 187.403  0.00  0.00    -0.391 OA
ATOM    166  H   UNL     1     154.726 166.587 186.889  0.00  0.00    +0.210 HD
ENDBRANCH  41 165
BRANCH  39 167
ATOM    167  O   UNL     1     154.361 165.582 185.226  0.00  0.00    -0.391 OA
ATOM    168  H   UNL     1     154.538 165.718 186.181  0.00  0.00    +0.210 HD
ENDBRANCH  39 167
BRANCH  31 169
ATOM    169  O   UNL     1     150.453 160.323 179.960  0.00  0.00    -0.391 OA
ATOM    170  H   UNL     1     150.371 160.462 180.921  0.00  0.00    +0.210 HD
ENDBRANCH  31 169
BRANCH  22 171
ATOM    171  C   UNL     1     150.774 164.434 187.660  0.00  0.00    +0.020 C 
ATOM    172  H   UNL     1     150.911 163.484 188.179  0.00  0.00    +0.036 HD
BRANCH 171 173
ATOM    173  C   UNL     1     151.746 164.341 186.468  0.00  0.00    -0.057 C 
ATOM    174  H   UNL     1     152.636 163.757 186.731  0.00  0.00    +0.023 HD
ATOM    175  H   UNL     1     151.274 163.845 185.611  0.00  0.00    +0.023 HD
ATOM    176  H   UNL     1     152.061 165.332 186.126  0.00  0.00    +0.023 HD
ENDBRANCH 171 173
BRANCH 171 177
ATOM    177  C   UNL     1     151.265 165.602 188.584  0.00  0.00    +0.064 C 
ATOM    178  H   UNL     1     151.238 166.543 188.015  0.00  0.00    +0.060 HD
BRANCH 177 179
ATOM    179  O   UNL     1     150.362 165.804 189.670  0.00  0.00    -0.391 OA
ATOM    180  H   UNL     1     150.153 164.931 190.048  0.00  0.00    +0.210 HD
ENDBRANCH 177 179
BRANCH 177 181
ATOM    181  C   UNL     1     152.721 165.418 189.137  0.00  0.00    -0.017 C 
ATOM    182  H   UNL     1     153.409 165.409 188.281  0.00  0.00    +0.032 HD
BRANCH 181 183
ATOM    183  C   UNL     1     153.109 166.573 190.077  0.00  0.00    -0.060 C 
ATOM    184  H   UNL     1     154.086 166.970 189.786  0.00  0.00    +0.023 HD
ATOM    185  H   UNL     1     153.161 166.269 191.125  0.00  0.00    +0.023 HD
ATOM    186  H   UNL     1     152.376 167.382 190.047  0.00  0.00    +0.023 HD
ENDBRANCH 181 183
BRANCH 181 187
ATOM    187  C   UNL     1     152.878 164.055 189.876  0.00  0.00    -0.046 C 
ATOM    188  H   UNL     1     151.903 163.565 189.930  0.00  0.00    +0.027 HD
ATOM    189  H   UNL     1     153.202 164.265 190.902  0.00  0.00    +0.027 HD
BRANCH 187 190
ATOM    190  C   UNL     1     153.877 163.085 189.214  0.00  0.00    -0.026 C 
ATOM    191  H   UNL     1     154.842 163.196 189.716  0.00  0.00    +0.029 HD
ATOM    192  H   UNL     1     154.021 163.390 188.170  0.00  0.00    +0.029 HD
BRANCH 190 193
ATOM    193  C   UNL     1     153.566 161.573 189.251  0.00  0.00    +0.061 C 
ATOM    194  O   UNL     1     154.710 160.770 189.538  0.00  0.00    -0.373 OA
ATOM    195  C   UNL     1     155.515 160.389 188.429  0.00  0.00    +0.059 C 
ATOM    196  C   UNL     1     154.696 159.682 187.359  0.00  0.00    -0.000 C 
ATOM    197  C   UNL     1     153.539 160.575 186.899  0.00  0.00    +0.063 C 
ATOM    198  C   UNL     1     152.716 161.013 188.109  0.00  0.00    -0.000 C 
ATOM    199  H   UNL     1     152.949 161.459 190.153  0.00  0.00    +0.060 HD
ATOM    200  H   UNL     1     156.000 161.280 188.016  0.00  0.00    +0.059 HD
ATOM    201  H   UNL     1     155.335 159.417 186.509  0.00  0.00    +0.032 HD
ATOM    202  H   UNL     1     154.280 158.742 187.740  0.00  0.00    +0.032 HD
ATOM    203  H   UNL     1     153.937 161.449 186.379  0.00  0.00    +0.060 HD
ATOM    204  H   UNL     1     152.195 160.121 188.484  0.00  0.00    +0.032 HD
ATOM    205  H   UNL     1     151.925 161.713 187.816  0.00  0.00    +0.032 HD
BRANCH 195 206
ATOM    206  C   UNL     1     156.603 159.460 188.954  0.00  0.00    -0.039 C 
ATOM    207  H   UNL     1     156.675 159.519 190.042  0.00  0.00    +0.025 HD
ATOM    208  H   UNL     1     156.398 158.425 188.675  0.00  0.00    +0.025 HD
ATOM    209  H   UNL     1     157.576 159.714 188.528  0.00  0.00    +0.025 HD
ENDBRANCH 195 206
BRANCH 197 210
ATOM    210  O   UNL     1     152.641 159.908 186.004  0.00  0.00    -0.380 OA
BRANCH 210 211
ATOM    211  C   UNL     1     153.174 158.733 185.414  0.00  0.00    +0.037 C 
ATOM    212  H   UNL     1     152.512 158.377 184.624  0.00  0.00    +0.052 HD
ATOM    213  H   UNL     1     154.134 158.985 184.955  0.00  0.00    +0.052 HD
ATOM    214  H   UNL     1     153.337 157.951 186.159  0.00  0.00    +0.052 HD
ENDBRANCH 210 211
ENDBRANCH 197 210
ENDBRANCH 190 193
ENDBRANCH 187 190
ENDBRANCH 181 187
ENDBRANCH 177 181
ENDBRANCH 171 177
ENDBRANCH  22 171
BRANCH  20 215
ATOM    215  O   UNL     1     148.855 161.818 185.489  0.00  0.00    -0.391 OA
ATOM    216  H   UNL     1     149.270 162.589 185.066  0.00  0.00    +0.210 HD
ENDBRANCH  20 215
BRANCH  18 217
ATOM    217  O   UNL     1     149.910 159.399 185.953  0.00  0.00    -0.391 OA
ATOM    218  H   UNL     1     149.996 160.304 185.583  0.00  0.00    +0.210 HD
ENDBRANCH  18 217
BRANCH  10 219
ATOM    219  O   UNL     1     157.106 154.423 186.877  0.00  0.00    -0.391 OA
ATOM    220  H   UNL     1     158.065 154.280 186.785  0.00  0.00    +0.210 HD
ENDBRANCH  10 219
BRANCH  37 221
ATOM    221  O   UNL     1     153.948 165.632 181.016  0.00  0.00    -0.379 OA
BRANCH 221 222
ATOM    222  C   UNL     1     152.809 166.343 180.548  0.00  0.00    +0.037 C 
ATOM    223  H   UNL     1     152.449 167.037 181.315  0.00  0.00    +0.052 HD
ATOM    224  H   UNL     1     152.005 165.658 180.264  0.00  0.00    +0.052 HD
ATOM    225  H   UNL     1     153.097 166.922 179.664  0.00  0.00    +0.052 HD
ENDBRANCH 221 222
ENDBRANCH  37 221
BRANCH  16 226
ATOM    226  O   UNL     1     150.120 156.647 186.052  0.00  0.00    -0.379 OA
BRANCH 226 227
ATOM    227  C   UNL     1     149.089 155.922 185.399  0.00  0.00    +0.037 C 
ATOM    228  H   UNL     1     148.773 155.116 186.066  0.00  0.00    +0.052 HD
ATOM    229  H   UNL     1     148.220 156.561 185.203  0.00  0.00    +0.052 HD
ATOM    230  H   UNL     1     149.447 155.469 184.471  0.00  0.00    +0.052 HD
ENDBRANCH 226 227
ENDBRANCH  16 226
TORSDOF 40
ENDMDL
MODEL 4
REMARK VINA RESULT:      -4.8      3.463      9.276
REMARK  Name = Swinholide A_conf2
REMARK  40 active torsions:
REMARK  status: ('A' for Active; 'I' for Inactive)
REMARK    1  A    between atoms: C_1  and  C_2
REMARK    2  A    between atoms: C_4  and  C_10
REMARK    3  A    between atoms: C_6  and  O_8
REMARK    4  A    between atoms: O_8  and  C_9
REMARK    5  A    between atoms: C_10  and  C_11
REMARK    6  A    between atoms: C_11  and  C_12
REMARK    7  A    between atoms: C_12  and  C_13
REMARK    8  A    between atoms: C_12  and  C_98
REMARK    9  A    between atoms: C_13  and  O_14
REMARK   10  A    between atoms: C_13  and  C_15
REMARK   11  A    between atoms: C_15  and  C_16
REMARK   12  A    between atoms: C_15  and  C_97
REMARK   13  A    between atoms: C_22  and  C_96
REMARK   14  A    between atoms: C_25  and  O_95
REMARK   15  A    between atoms: C_31  and  O_90
REMARK   16  A    between atoms: C_32  and  C_89
REMARK   17  A    between atoms: C_33  and  O_88
REMARK   18  A    between atoms: C_35  and  O_87
REMARK   19  A    between atoms: C_36  and  C_86
REMARK   20  A    between atoms: C_37  and  C_69
REMARK   21  A    between atoms: C_43  and  C_68
REMARK   22  A    between atoms: C_46  and  O_67
REMARK   23  A    between atoms: C_52  and  O_62
REMARK   24  A    between atoms: C_53  and  C_61
REMARK   25  A    between atoms: C_54  and  O_60
REMARK   26  A    between atoms: C_56  and  O_59
REMARK   27  A    between atoms: C_57  and  C_58
REMARK   28  A    between atoms: O_62  and  C_63
REMARK   29  A    between atoms: C_69  and  C_70
REMARK   30  A    between atoms: C_69  and  C_85
REMARK   31  A    between atoms: C_70  and  O_71
REMARK   32  A    between atoms: C_70  and  C_72
REMARK   33  A    between atoms: C_72  and  C_73
REMARK   34  A    between atoms: C_72  and  C_84
REMARK   35  A    between atoms: C_73  and  C_74
REMARK   36  A    between atoms: C_74  and  C_75
REMARK   37  A    between atoms: C_77  and  C_83
REMARK   38  A    between atoms: C_79  and  O_81
REMARK   39  A    between atoms: O_81  and  C_82
REMARK   40  A    between atoms: O_90  and  C_91
REMARK                            x       y       z     vdW  Elec       q    Type
REMARK                         _______ _______ _______ _____ _____    ______ ____
ROOT
ATOM      1  C   UNL     1     154.760 164.443 188.313  0.00  0.00    +0.113 C 
ATOM      2  O   UNL     1     155.626 163.600 189.117  0.00  0.00    -0.458 OA
ATOM      3  C   UNL     1     156.918 163.995 189.213  0.00  0.00    +0.332 C 
ATOM      4  O   UNL     1     157.419 164.995 188.729  0.00  0.00    -0.246 OA
ATOM      5  C   UNL     1     157.666 162.976 189.983  0.00  0.00    +0.023 C 
ATOM      6  C   UNL     1     158.953 163.202 190.288  0.00  0.00    -0.052 C 
ATOM      7  C   UNL     1     159.855 162.274 190.961  0.00  0.00    -0.054 C 
ATOM      8  C   UNL     1     159.429 161.393 191.888  0.00  0.00    -0.079 C 
ATOM      9  C   UNL     1     160.292 160.447 192.684  0.00  0.00    -0.008 C 
ATOM     10  C   UNL     1     160.044 158.955 192.381  0.00  0.00    +0.061 C 
ATOM     11  C   UNL     1     160.560 158.543 190.994  0.00  0.00    +0.003 C 
ATOM     12  C   UNL     1     160.543 157.022 190.730  0.00  0.00    +0.080 C 
ATOM     13  O   UNL     1     160.425 156.755 189.315  0.00  0.00    -0.369 OA
ATOM     14  C   UNL     1     161.659 156.900 188.586  0.00  0.00    +0.065 C 
ATOM     15  C   UNL     1     161.317 156.722 187.095  0.00  0.00    +0.000 C 
ATOM     16  C   UNL     1     162.534 156.723 186.144  0.00  0.00    +0.066 C 
ATOM     17  C   UNL     1     162.140 156.814 184.630  0.00  0.00    +0.009 C 
ATOM     18  C   UNL     1     161.276 158.050 184.275  0.00  0.00    +0.063 C 
ATOM     19  C   UNL     1     160.964 158.173 182.762  0.00  0.00    -0.000 C 
ATOM     20  C   UNL     1     160.265 159.511 182.479  0.00  0.00    +0.064 C 
ATOM     21  C   UNL     1     159.421 159.528 181.178  0.00  0.00    +0.020 C 
ATOM     22  C   UNL     1     158.423 160.728 181.125  0.00  0.00    +0.113 C 
ATOM     23  O   UNL     1     159.270 161.911 181.158  0.00  0.00    -0.458 OA
ATOM     24  C   UNL     1     159.016 162.954 180.340  0.00  0.00    +0.332 C 
ATOM     25  O   UNL     1     158.018 163.109 179.635  0.00  0.00    -0.246 OA
ATOM     26  C   UNL     1     160.113 163.944 180.388  0.00  0.00    +0.023 C 
ATOM     27  C   UNL     1     161.149 163.869 181.250  0.00  0.00    -0.052 C 
ATOM     28  C   UNL     1     162.266 164.800 181.388  0.00  0.00    -0.054 C 
ATOM     29  C   UNL     1     163.144 164.590 182.391  0.00  0.00    -0.079 C 
ATOM     30  C   UNL     1     164.317 165.437 182.796  0.00  0.00    -0.008 C 
ATOM     31  C   UNL     1     164.429 165.753 184.301  0.00  0.00    +0.061 C 
ATOM     32  C   UNL     1     163.292 166.594 184.920  0.00  0.00    +0.003 C 
ATOM     33  C   UNL     1     162.017 165.922 185.468  0.00  0.00    +0.080 C 
ATOM     34  O   UNL     1     161.209 165.439 184.391  0.00  0.00    -0.369 OA
ATOM     35  C   UNL     1     160.075 164.658 184.782  0.00  0.00    +0.065 C 
ATOM     36  C   UNL     1     158.997 165.467 185.525  0.00  0.00    +0.000 C 
ATOM     37  C   UNL     1     158.302 166.490 184.594  0.00  0.00    +0.066 C 
ATOM     38  C   UNL     1     156.872 166.828 185.103  0.00  0.00    +0.009 C 
ATOM     39  C   UNL     1     155.811 165.777 184.659  0.00  0.00    +0.063 C 
ATOM     40  C   UNL     1     154.511 165.867 185.501  0.00  0.00    -0.000 C 
ATOM     41  C   UNL     1     153.817 164.551 185.877  0.00  0.00    +0.064 C 
ATOM     42  C   UNL     1     154.521 163.699 186.963  0.00  0.00    +0.020 C 
ATOM     43  C   UNL     1     160.533 163.406 185.550  0.00  0.00    -0.008 C 
ATOM     44  C   UNL     1     161.615 163.699 186.545  0.00  0.00    -0.083 C 
ATOM     45  C   UNL     1     162.278 164.858 186.503  0.00  0.00    -0.059 C 
ATOM     46  C   UNL     1     162.690 155.871 189.073  0.00  0.00    -0.008 C 
ATOM     47  C   UNL     1     162.730 155.794 190.569  0.00  0.00    -0.083 C 
ATOM     48  C   UNL     1     161.740 156.305 191.310  0.00  0.00    -0.059 C 
ATOM     49  H   UNL     1     155.292 165.356 188.051  0.00  0.00    +0.074 HD
ATOM     50  H   UNL     1     157.144 162.067 190.240  0.00  0.00    +0.069 HD
ATOM     51  H   UNL     1     159.412 164.138 189.970  0.00  0.00    +0.062 HD
ATOM     52  H   UNL     1     158.374 161.366 192.156  0.00  0.00    +0.058 HD
ATOM     53  H   UNL     1     160.084 160.635 193.745  0.00  0.00    +0.033 HD
ATOM     54  H   UNL     1     161.359 160.663 192.577  0.00  0.00    +0.033 HD
ATOM     55  H   UNL     1     158.973 158.742 192.442  0.00  0.00    +0.060 HD
ATOM     56  H   UNL     1     159.963 159.048 190.225  0.00  0.00    +0.032 HD
ATOM     57  H   UNL     1     161.585 158.910 190.861  0.00  0.00    +0.032 HD
ATOM     58  H   UNL     1     159.639 156.592 191.172  0.00  0.00    +0.064 HD
ATOM     59  H   UNL     1     162.035 157.919 188.737  0.00  0.00    +0.060 HD
ATOM     60  H   UNL     1     160.745 155.798 186.954  0.00  0.00    +0.032 HD
ATOM     61  H   UNL     1     160.629 157.537 186.841  0.00  0.00    +0.032 HD
ATOM     62  H   UNL     1     163.068 155.772 186.292  0.00  0.00    +0.060 HD
ATOM     63  H   UNL     1     163.072 156.909 184.064  0.00  0.00    +0.035 HD
ATOM     64  H   UNL     1     160.309 157.982 184.788  0.00  0.00    +0.060 HD
ATOM     65  H   UNL     1     160.319 157.339 182.454  0.00  0.00    +0.032 HD
ATOM     66  H   UNL     1     161.895 158.113 182.191  0.00  0.00    +0.032 HD
ATOM     67  H   UNL     1     159.611 159.713 183.328  0.00  0.00    +0.060 HD
ATOM     68  H   UNL     1     158.851 158.594 181.158  0.00  0.00    +0.036 HD
ATOM     69  H   UNL     1     157.879 160.692 180.173  0.00  0.00    +0.074 HD
ATOM     70  H   UNL     1     160.003 164.762 179.686  0.00  0.00    +0.069 HD
ATOM     71  H   UNL     1     161.159 163.045 181.964  0.00  0.00    +0.062 HD
ATOM     72  H   UNL     1     162.988 163.726 183.041  0.00  0.00    +0.058 HD
ATOM     73  H   UNL     1     165.220 164.890 182.493  0.00  0.00    +0.033 HD
ATOM     74  H   UNL     1     164.330 166.386 182.257  0.00  0.00    +0.033 HD
ATOM     75  H   UNL     1     165.322 166.385 184.377  0.00  0.00    +0.060 HD
ATOM     76  H   UNL     1     162.994 167.356 184.189  0.00  0.00    +0.032 HD
ATOM     77  H   UNL     1     163.733 167.136 185.763  0.00  0.00    +0.032 HD
ATOM     78  H   UNL     1     161.455 166.725 185.956  0.00  0.00    +0.064 HD
ATOM     79  H   UNL     1     159.623 164.293 183.850  0.00  0.00    +0.060 HD
ATOM     80  H   UNL     1     159.424 165.988 186.388  0.00  0.00    +0.032 HD
ATOM     81  H   UNL     1     158.268 164.756 185.932  0.00  0.00    +0.032 HD
ATOM     82  H   UNL     1     158.227 166.093 183.573  0.00  0.00    +0.060 HD
ATOM     83  H   UNL     1     156.917 166.844 186.199  0.00  0.00    +0.035 HD
ATOM     84  H   UNL     1     155.548 165.983 183.612  0.00  0.00    +0.060 HD
ATOM     85  H   UNL     1     153.799 166.462 184.907  0.00  0.00    +0.032 HD
ATOM     86  H   UNL     1     154.678 166.470 186.396  0.00  0.00    +0.032 HD
ATOM     87  H   UNL     1     152.803 164.772 186.225  0.00  0.00    +0.060 HD
ATOM     88  H   UNL     1     155.521 163.429 186.595  0.00  0.00    +0.036 HD
ATOM     89  H   UNL     1     159.684 162.927 186.052  0.00  0.00    +0.033 HD
ATOM     90  H   UNL     1     160.948 162.679 184.840  0.00  0.00    +0.033 HD
ATOM     91  H   UNL     1     161.873 162.933 187.268  0.00  0.00    +0.057 HD
ATOM     92  H   UNL     1     163.064 165.054 187.232  0.00  0.00    +0.059 HD
ATOM     93  H   UNL     1     162.454 154.875 188.687  0.00  0.00    +0.033 HD
ATOM     94  H   UNL     1     163.685 156.140 188.702  0.00  0.00    +0.033 HD
ATOM     95  H   UNL     1     163.567 155.292 191.036  0.00  0.00    +0.057 HD
ATOM     96  H   UNL     1     161.793 156.229 192.393  0.00  0.00    +0.059 HD
ENDROOT
BRANCH  28  97
ATOM     97  C   UNL     1     162.350 165.946 180.411  0.00  0.00    -0.040 C 
ATOM     98  H   UNL     1     162.750 166.837 180.904  0.00  0.00    +0.028 HD
ATOM     99  H   UNL     1     161.381 166.245 180.001  0.00  0.00    +0.028 HD
ATOM    100  H   UNL     1     162.997 165.689 179.564  0.00  0.00    +0.028 HD
ENDBRANCH  28  97
BRANCH  21 101
ATOM    101  C   UNL     1     160.292 159.520 179.914  0.00  0.00    -0.057 C 
ATOM    102  H   UNL     1     161.225 160.067 180.072  0.00  0.00    +0.023 HD
ATOM    103  H   UNL     1     160.552 158.496 179.640  0.00  0.00    +0.023 HD
ATOM    104  H   UNL     1     159.786 159.968 179.054  0.00  0.00    +0.023 HD
ENDBRANCH  21 101
BRANCH  42 105
ATOM    105  C   UNL     1     153.824 162.335 187.110  0.00  0.00    -0.057 C 
ATOM    106  H   UNL     1     154.218 161.772 187.957  0.00  0.00    +0.023 HD
ATOM    107  H   UNL     1     153.904 161.734 186.201  0.00  0.00    +0.023 HD
ATOM    108  H   UNL     1     152.759 162.482 187.308  0.00  0.00    +0.023 HD
ENDBRANCH  42 105
BRANCH  17 109
ATOM    109  C   UNL     1     161.471 155.513 184.169  0.00  0.00    -0.058 C 
ATOM    110  H   UNL     1     161.913 154.644 184.656  0.00  0.00    +0.023 HD
ATOM    111  H   UNL     1     161.606 155.375 183.092  0.00  0.00    +0.023 HD
ATOM    112  H   UNL     1     160.401 155.515 184.373  0.00  0.00    +0.023 HD
ENDBRANCH  17 109
BRANCH  38 113
ATOM    113  C   UNL     1     156.392 168.224 184.665  0.00  0.00    -0.058 C 
ATOM    114  H   UNL     1     155.303 168.330 184.737  0.00  0.00    +0.023 HD
ATOM    115  H   UNL     1     156.850 169.007 185.289  0.00  0.00    +0.023 HD
ATOM    116  H   UNL     1     156.662 168.430 183.626  0.00  0.00    +0.023 HD
ENDBRANCH  38 113
BRANCH   7 117
ATOM    117  C   UNL     1     161.301 162.414 190.561  0.00  0.00    -0.040 C 
ATOM    118  H   UNL     1     161.949 161.963 191.317  0.00  0.00    +0.028 HD
ATOM    119  H   UNL     1     161.586 163.465 190.457  0.00  0.00    +0.028 HD
ATOM    120  H   UNL     1     161.508 161.940 189.595  0.00  0.00    +0.028 HD
ENDBRANCH   7 117
BRANCH   1 121
ATOM    121  C   UNL     1     153.518 164.887 189.141  0.00  0.00    +0.020 C 
ATOM    122  H   UNL     1     152.612 164.570 188.614  0.00  0.00    +0.036 HD
BRANCH 121 123
ATOM    123  C   UNL     1     153.444 164.250 190.542  0.00  0.00    -0.057 C 
ATOM    124  H   UNL     1     152.766 164.787 191.210  0.00  0.00    +0.023 HD
ATOM    125  H   UNL     1     153.112 163.210 190.485  0.00  0.00    +0.023 HD
ATOM    126  H   UNL     1     154.432 164.207 191.006  0.00  0.00    +0.023 HD
ENDBRANCH 121 123
BRANCH 121 127
ATOM    127  C   UNL     1     153.436 166.441 189.318  0.00  0.00    +0.064 C 
ATOM    128  H   UNL     1     153.458 166.670 190.391  0.00  0.00    +0.060 HD
BRANCH 127 129
ATOM    129  C   UNL     1     152.164 167.121 188.733  0.00  0.00    -0.017 C 
ATOM    130  H   UNL     1     152.460 167.872 187.994  0.00  0.00    +0.032 HD
BRANCH 129 131
ATOM    131  C   UNL     1     151.249 166.103 188.045  0.00  0.00    -0.060 C 
ATOM    132  H   UNL     1     150.199 166.408 188.063  0.00  0.00    +0.023 HD
ATOM    133  H   UNL     1     151.538 165.954 186.998  0.00  0.00    +0.023 HD
ATOM    134  H   UNL     1     151.302 165.132 188.549  0.00  0.00    +0.023 HD
ENDBRANCH 129 131
BRANCH 129 135
ATOM    135  C   UNL     1     151.321 167.865 189.801  0.00  0.00    -0.046 C 
ATOM    136  H   UNL     1     151.980 168.580 190.308  0.00  0.00    +0.027 HD
ATOM    137  H   UNL     1     150.533 168.458 189.322  0.00  0.00    +0.027 HD
BRANCH 135 138
ATOM    138  C   UNL     1     150.690 166.950 190.859  0.00  0.00    -0.026 C 
ATOM    139  H   UNL     1     149.664 166.704 190.572  0.00  0.00    +0.029 HD
ATOM    140  H   UNL     1     151.247 166.005 190.892  0.00  0.00    +0.029 HD
BRANCH 138 143
ATOM    141  C   UNL     1     152.751 166.769 193.108  0.00  0.00    +0.059 C 
ATOM    142  O   UNL     1     151.957 167.905 192.749  0.00  0.00    -0.373 OA
ATOM    143  C   UNL     1     150.650 167.599 192.253  0.00  0.00    +0.061 C 
ATOM    144  C   UNL     1     149.880 166.762 193.276  0.00  0.00    -0.000 C 
ATOM    145  C   UNL     1     150.661 165.517 193.693  0.00  0.00    +0.063 C 
ATOM    146  C   UNL     1     152.052 165.928 194.168  0.00  0.00    -0.000 C 
ATOM    147  H   UNL     1     152.947 166.172 192.211  0.00  0.00    +0.059 HD
ATOM    148  H   UNL     1     150.135 168.564 192.151  0.00  0.00    +0.060 HD
ATOM    149  H   UNL     1     149.697 167.375 194.170  0.00  0.00    +0.032 HD
ATOM    150  H   UNL     1     148.891 166.487 192.893  0.00  0.00    +0.032 HD
ATOM    151  H   UNL     1     150.738 164.836 192.836  0.00  0.00    +0.060 HD
ATOM    152  H   UNL     1     152.657 165.047 194.415  0.00  0.00    +0.032 HD
ATOM    153  H   UNL     1     151.949 166.502 195.101  0.00  0.00    +0.032 HD
BRANCH 141 154
ATOM    154  C   UNL     1     154.085 167.294 193.617  0.00  0.00    -0.039 C 
ATOM    155  H   UNL     1     154.399 166.777 194.529  0.00  0.00    +0.025 HD
ATOM    156  H   UNL     1     154.864 167.164 192.856  0.00  0.00    +0.025 HD
ATOM    157  H   UNL     1     154.028 168.369 193.823  0.00  0.00    +0.025 HD
ENDBRANCH 141 154
BRANCH 145 158
ATOM    158  O   UNL     1     149.910 164.868 194.723  0.00  0.00    -0.380 OA
BRANCH 158 159
ATOM    159  C   UNL     1     150.129 165.423 196.015  0.00  0.00    +0.037 C 
ATOM    160  H   UNL     1     151.171 165.241 196.289  0.00  0.00    +0.052 HD
ATOM    161  H   UNL     1     149.493 164.936 196.755  0.00  0.00    +0.052 HD
ATOM    162  H   UNL     1     149.958 166.503 196.021  0.00  0.00    +0.052 HD
ENDBRANCH 158 159
ENDBRANCH 145 158
ENDBRANCH 138 143
ENDBRANCH 135 138
ENDBRANCH 129 135
ENDBRANCH 127 129
BRANCH 127 163
ATOM    163  O   UNL     1     154.597 167.044 188.750  0.00  0.00    -0.391 OA
ATOM    164  H   UNL     1     155.344 166.887 189.350  0.00  0.00    +0.210 HD
ENDBRANCH 127 163
ENDBRANCH 121 127
ENDBRANCH   1 121
BRANCH  41 165
ATOM    165  O   UNL     1     153.683 163.771 184.678  0.00  0.00    -0.391 OA
ATOM    166  H   UNL     1     154.267 162.996 184.772  0.00  0.00    +0.210 HD
ENDBRANCH  41 165
BRANCH  39 167
ATOM    167  O   UNL     1     156.351 164.470 184.653  0.00  0.00    -0.391 OA
ATOM    168  H   UNL     1     155.622 163.854 184.884  0.00  0.00    +0.210 HD
ENDBRANCH  39 167
BRANCH  31 169
ATOM    169  O   UNL     1     164.744 164.608 185.087  0.00  0.00    -0.391 OA
ATOM    170  H   UNL     1     165.233 163.975 184.530  0.00  0.00    +0.210 HD
ENDBRANCH  31 169
BRANCH  22 171
ATOM    171  C   UNL     1     157.395 160.798 182.301  0.00  0.00    +0.020 C 
ATOM    172  H   UNL     1     157.424 159.832 182.808  0.00  0.00    +0.036 HD
BRANCH 171 173
ATOM    173  C   UNL     1     157.855 161.792 183.385  0.00  0.00    -0.057 C 
ATOM    174  H   UNL     1     158.315 161.267 184.229  0.00  0.00    +0.023 HD
ATOM    175  H   UNL     1     158.604 162.489 182.988  0.00  0.00    +0.023 HD
ATOM    176  H   UNL     1     157.022 162.398 183.755  0.00  0.00    +0.023 HD
ENDBRANCH 171 173
BRANCH 171 177
ATOM    177  C   UNL     1     155.910 161.144 181.936  0.00  0.00    +0.064 C 
ATOM    178  H   UNL     1     155.686 162.164 182.282  0.00  0.00    +0.060 HD
BRANCH 177 179
ATOM    179  O   UNL     1     155.732 161.189 180.521  0.00  0.00    -0.391 OA
ATOM    180  H   UNL     1     154.775 161.189 180.343  0.00  0.00    +0.210 HD
ENDBRANCH 177 179
BRANCH 177 181
ATOM    181  C   UNL     1     154.848 160.179 182.570  0.00  0.00    -0.017 C 
ATOM    182  H   UNL     1     154.176 160.781 183.197  0.00  0.00    +0.032 HD
BRANCH 181 183
ATOM    183  C   UNL     1     154.018 159.475 181.483  0.00  0.00    -0.060 C 
ATOM    184  H   UNL     1     153.551 158.577 181.901  0.00  0.00    +0.023 HD
ATOM    185  H   UNL     1     154.614 159.179 180.617  0.00  0.00    +0.023 HD
ATOM    186  H   UNL     1     153.237 160.126 181.086  0.00  0.00    +0.023 HD
ENDBRANCH 181 183
BRANCH 181 187
ATOM    187  C   UNL     1     155.525 159.121 183.492  0.00  0.00    -0.046 C 
ATOM    188  H   UNL     1     156.589 159.065 183.249  0.00  0.00    +0.027 HD
ATOM    189  H   UNL     1     155.080 158.145 183.265  0.00  0.00    +0.027 HD
BRANCH 187 190
ATOM    190  C   UNL     1     155.381 159.408 185.000  0.00  0.00    -0.026 C 
ATOM    191  H   UNL     1     154.366 159.134 185.303  0.00  0.00    +0.029 HD
ATOM    192  H   UNL     1     155.484 160.488 185.162  0.00  0.00    +0.029 HD
BRANCH 190 193
ATOM    193  C   UNL     1     156.317 158.668 185.980  0.00  0.00    +0.061 C 
ATOM    194  O   UNL     1     155.890 158.755 187.340  0.00  0.00    -0.373 OA
ATOM    195  C   UNL     1     156.328 159.893 188.072  0.00  0.00    +0.059 C 
ATOM    196  C   UNL     1     157.843 160.031 188.040  0.00  0.00    -0.000 C 
ATOM    197  C   UNL     1     158.340 160.103 186.593  0.00  0.00    +0.063 C 
ATOM    198  C   UNL     1     157.819 158.899 185.811  0.00  0.00    -0.000 C 
ATOM    199  H   UNL     1     156.158 157.607 185.737  0.00  0.00    +0.060 HD
ATOM    200  H   UNL     1     155.851 160.788 187.660  0.00  0.00    +0.059 HD
ATOM    201  H   UNL     1     158.151 160.924 188.594  0.00  0.00    +0.032 HD
ATOM    202  H   UNL     1     158.325 159.178 188.532  0.00  0.00    +0.032 HD
ATOM    203  H   UNL     1     157.990 161.029 186.132  0.00  0.00    +0.060 HD
ATOM    204  H   UNL     1     158.342 158.012 186.199  0.00  0.00    +0.032 HD
ATOM    205  H   UNL     1     158.099 158.964 184.753  0.00  0.00    +0.032 HD
BRANCH 195 206
ATOM    206  C   UNL     1     155.848 159.721 189.508  0.00  0.00    -0.039 C 
ATOM    207  H   UNL     1     156.535 160.197 190.209  0.00  0.00    +0.025 HD
ATOM    208  H   UNL     1     154.856 160.160 189.642  0.00  0.00    +0.025 HD
ATOM    209  H   UNL     1     155.762 158.664 189.770  0.00  0.00    +0.025 HD
ENDBRANCH 195 206
BRANCH 197 210
ATOM    210  O   UNL     1     159.769 160.080 186.491  0.00  0.00    -0.380 OA
BRANCH 210 211
ATOM    211  C   UNL     1     160.443 160.317 187.717  0.00  0.00    +0.037 C 
ATOM    212  H   UNL     1     161.456 160.672 187.524  0.00  0.00    +0.052 HD
ATOM    213  H   UNL     1     159.910 161.108 188.253  0.00  0.00    +0.052 HD
ATOM    214  H   UNL     1     160.462 159.422 188.341  0.00  0.00    +0.052 HD
ENDBRANCH 210 211
ENDBRANCH 197 210
ENDBRANCH 190 193
ENDBRANCH 187 190
ENDBRANCH 181 187
ENDBRANCH 177 181
ENDBRANCH 171 177
ENDBRANCH  22 171
BRANCH  20 215
ATOM    215  O   UNL     1     161.283 160.521 182.503  0.00  0.00    -0.391 OA
ATOM    216  H   UNL     1     161.733 160.492 183.364  0.00  0.00    +0.210 HD
ENDBRANCH  20 215
BRANCH  18 217
ATOM    217  O   UNL     1     161.922 159.223 184.759  0.00  0.00    -0.391 OA
ATOM    218  H   UNL     1     162.623 158.981 185.403  0.00  0.00    +0.210 HD
ENDBRANCH  18 217
BRANCH  10 219
ATOM    219  O   UNL     1     160.680 158.192 193.408  0.00  0.00    -0.391 OA
ATOM    220  H   UNL     1     159.983 157.799 193.962  0.00  0.00    +0.210 HD
ENDBRANCH  10 219
BRANCH  37 221
ATOM    221  O   UNL     1     159.102 167.682 184.609  0.00  0.00    -0.379 OA
BRANCH 221 222
ATOM    222  C   UNL     1     159.534 168.064 183.310  0.00  0.00    +0.037 C 
ATOM    223  H   UNL     1     158.779 167.802 182.562  0.00  0.00    +0.052 HD
ATOM    224  H   UNL     1     160.486 167.588 183.055  0.00  0.00    +0.052 HD
ATOM    225  H   UNL     1     159.678 169.150 183.293  0.00  0.00    +0.052 HD
ENDBRANCH 221 222
ENDBRANCH  37 221
BRANCH  16 226
ATOM    226  O   UNL     1     163.417 157.769 186.569  0.00  0.00    -0.379 OA
BRANCH 226 227
ATOM    227  C   UNL     1     164.778 157.582 186.213  0.00  0.00    +0.037 C 
ATOM    228  H   UNL     1     165.375 157.649 187.126  0.00  0.00    +0.052 HD
ATOM    229  H   UNL     1     164.939 156.591 185.774  0.00  0.00    +0.052 HD
ATOM    230  H   UNL     1     165.122 158.363 185.530  0.00  0.00    +0.052 HD
ENDBRANCH 226 227
ENDBRANCH  16 226
TORSDOF 40
ENDMDL
MODEL 5
REMARK VINA RESULT:      -4.8      3.646     11.004
REMARK  Name = Swinholide A_conf2
REMARK  40 active torsions:
REMARK  status: ('A' for Active; 'I' for Inactive)
REMARK    1  A    between atoms: C_1  and  C_2
REMARK    2  A    between atoms: C_4  and  C_10
REMARK    3  A    between atoms: C_6  and  O_8
REMARK    4  A    between atoms: O_8  and  C_9
REMARK    5  A    between atoms: C_10  and  C_11
REMARK    6  A    between atoms: C_11  and  C_12
REMARK    7  A    between atoms: C_12  and  C_13
REMARK    8  A    between atoms: C_12  and  C_98
REMARK    9  A    between atoms: C_13  and  O_14
REMARK   10  A    between atoms: C_13  and  C_15
REMARK   11  A    between atoms: C_15  and  C_16
REMARK   12  A    between atoms: C_15  and  C_97
REMARK   13  A    between atoms: C_22  and  C_96
REMARK   14  A    between atoms: C_25  and  O_95
REMARK   15  A    between atoms: C_31  and  O_90
REMARK   16  A    between atoms: C_32  and  C_89
REMARK   17  A    between atoms: C_33  and  O_88
REMARK   18  A    between atoms: C_35  and  O_87
REMARK   19  A    between atoms: C_36  and  C_86
REMARK   20  A    between atoms: C_37  and  C_69
REMARK   21  A    between atoms: C_43  and  C_68
REMARK   22  A    between atoms: C_46  and  O_67
REMARK   23  A    between atoms: C_52  and  O_62
REMARK   24  A    between atoms: C_53  and  C_61
REMARK   25  A    between atoms: C_54  and  O_60
REMARK   26  A    between atoms: C_56  and  O_59
REMARK   27  A    between atoms: C_57  and  C_58
REMARK   28  A    between atoms: O_62  and  C_63
REMARK   29  A    between atoms: C_69  and  C_70
REMARK   30  A    between atoms: C_69  and  C_85
REMARK   31  A    between atoms: C_70  and  O_71
REMARK   32  A    between atoms: C_70  and  C_72
REMARK   33  A    between atoms: C_72  and  C_73
REMARK   34  A    between atoms: C_72  and  C_84
REMARK   35  A    between atoms: C_73  and  C_74
REMARK   36  A    between atoms: C_74  and  C_75
REMARK   37  A    between atoms: C_77  and  C_83
REMARK   38  A    between atoms: C_79  and  O_81
REMARK   39  A    between atoms: O_81  and  C_82
REMARK   40  A    between atoms: O_90  and  C_91
REMARK                            x       y       z     vdW  Elec       q    Type
REMARK                         _______ _______ _______ _____ _____    ______ ____
ROOT
ATOM      1  C   UNL     1     152.318 165.158 188.835  0.00  0.00    +0.113 C 
ATOM      2  O   UNL     1     151.675 163.984 188.274  0.00  0.00    -0.458 OA
ATOM      3  C   UNL     1     152.212 162.789 188.621  0.00  0.00    +0.332 C 
ATOM      4  O   UNL     1     153.148 162.595 189.376  0.00  0.00    -0.246 OA
ATOM      5  C   UNL     1     151.496 161.721 187.888  0.00  0.00    +0.023 C 
ATOM      6  C   UNL     1     151.794 160.438 188.146  0.00  0.00    -0.052 C 
ATOM      7  C   UNL     1     151.250 159.271 187.460  0.00  0.00    -0.054 C 
ATOM      8  C   UNL     1     149.998 159.243 186.962  0.00  0.00    -0.079 C 
ATOM      9  C   UNL     1     149.327 158.065 186.301  0.00  0.00    -0.008 C 
ATOM     10  C   UNL     1     149.006 158.274 184.807  0.00  0.00    +0.061 C 
ATOM     11  C   UNL     1     150.268 158.275 183.930  0.00  0.00    +0.003 C 
ATOM     12  C   UNL     1     149.991 158.253 182.412  0.00  0.00    +0.080 C 
ATOM     13  O   UNL     1     151.084 158.864 181.689  0.00  0.00    -0.369 OA
ATOM     14  C   UNL     1     152.230 158.007 181.525  0.00  0.00    +0.065 C 
ATOM     15  C   UNL     1     153.332 158.861 180.872  0.00  0.00    +0.000 C 
ATOM     16  C   UNL     1     154.618 158.089 180.498  0.00  0.00    +0.066 C 
ATOM     17  C   UNL     1     155.808 159.025 180.092  0.00  0.00    +0.009 C 
ATOM     18  C   UNL     1     156.192 160.065 181.174  0.00  0.00    +0.063 C 
ATOM     19  C   UNL     1     157.423 160.926 180.794  0.00  0.00    -0.000 C 
ATOM     20  C   UNL     1     157.841 161.797 181.989  0.00  0.00    +0.064 C 
ATOM     21  C   UNL     1     158.652 163.061 181.604  0.00  0.00    +0.020 C 
ATOM     22  C   UNL     1     158.712 164.111 182.759  0.00  0.00    +0.113 C 
ATOM     23  O   UNL     1     159.392 163.421 183.845  0.00  0.00    -0.458 OA
ATOM     24  C   UNL     1     160.345 164.053 184.563  0.00  0.00    +0.332 C 
ATOM     25  O   UNL     1     160.627 165.251 184.515  0.00  0.00    -0.246 OA
ATOM     26  C   UNL     1     161.044 163.109 185.462  0.00  0.00    +0.023 C 
ATOM     27  C   UNL     1     160.667 161.825 185.635  0.00  0.00    -0.052 C 
ATOM     28  C   UNL     1     161.276 160.825 186.508  0.00  0.00    -0.054 C 
ATOM     29  C   UNL     1     160.673 159.622 186.609  0.00  0.00    -0.079 C 
ATOM     30  C   UNL     1     161.045 158.464 187.490  0.00  0.00    -0.008 C 
ATOM     31  C   UNL     1     159.888 157.829 188.289  0.00  0.00    +0.061 C 
ATOM     32  C   UNL     1     159.196 158.725 189.338  0.00  0.00    +0.003 C 
ATOM     33  C   UNL     1     158.018 159.640 188.947  0.00  0.00    +0.080 C 
ATOM     34  O   UNL     1     158.485 160.743 188.166  0.00  0.00    -0.369 OA
ATOM     35  C   UNL     1     157.461 161.577 187.613  0.00  0.00    +0.065 C 
ATOM     36  C   UNL     1     156.674 162.369 188.672  0.00  0.00    +0.000 C 
ATOM     37  C   UNL     1     157.551 163.449 189.351  0.00  0.00    +0.066 C 
ATOM     38  C   UNL     1     156.679 164.612 189.905  0.00  0.00    +0.009 C 
ATOM     39  C   UNL     1     156.316 165.663 188.814  0.00  0.00    +0.063 C 
ATOM     40  C   UNL     1     155.123 166.559 189.239  0.00  0.00    -0.000 C 
ATOM     41  C   UNL     1     154.104 166.944 188.159  0.00  0.00    +0.064 C 
ATOM     42  C   UNL     1     153.153 165.813 187.691  0.00  0.00    +0.020 C 
ATOM     43  C   UNL     1     156.560 160.756 186.674  0.00  0.00    -0.008 C 
ATOM     44  C   UNL     1     156.206 159.413 187.236  0.00  0.00    -0.083 C 
ATOM     45  C   UNL     1     156.873 158.920 188.283  0.00  0.00    -0.059 C 
ATOM     46  C   UNL     1     151.863 156.782 180.676  0.00  0.00    -0.008 C 
ATOM     47  C   UNL     1     150.558 156.182 181.105  0.00  0.00    -0.083 C 
ATOM     48  C   UNL     1     149.709 156.867 181.879  0.00  0.00    -0.059 C 
ATOM     49  H   UNL     1     153.046 164.845 189.581  0.00  0.00    +0.074 HD
ATOM     50  H   UNL     1     150.778 162.027 187.143  0.00  0.00    +0.069 HD
ATOM     51  H   UNL     1     152.550 160.215 188.899  0.00  0.00    +0.062 HD
ATOM     52  H   UNL     1     149.357 160.116 187.073  0.00  0.00    +0.058 HD
ATOM     53  H   UNL     1     148.391 157.880 186.845  0.00  0.00    +0.033 HD
ATOM     54  H   UNL     1     149.895 157.138 186.422  0.00  0.00    +0.033 HD
ATOM     55  H   UNL     1     148.477 159.221 184.675  0.00  0.00    +0.060 HD
ATOM     56  H   UNL     1     150.871 159.157 184.173  0.00  0.00    +0.032 HD
ATOM     57  H   UNL     1     150.892 157.410 184.185  0.00  0.00    +0.032 HD
ATOM     58  H   UNL     1     149.125 158.885 182.195  0.00  0.00    +0.064 HD
ATOM     59  H   UNL     1     152.576 157.695 182.519  0.00  0.00    +0.060 HD
ATOM     60  H   UNL     1     152.935 159.360 179.980  0.00  0.00    +0.032 HD
ATOM     61  H   UNL     1     153.559 159.664 181.584  0.00  0.00    +0.032 HD
ATOM     62  H   UNL     1     154.381 157.456 179.630  0.00  0.00    +0.060 HD
ATOM     63  H   UNL     1     156.682 158.381 179.950  0.00  0.00    +0.035 HD
ATOM     64  H   UNL     1     155.359 160.762 181.325  0.00  0.00    +0.060 HD
ATOM     65  H   UNL     1     157.172 161.563 179.935  0.00  0.00    +0.032 HD
ATOM     66  H   UNL     1     158.251 160.272 180.505  0.00  0.00    +0.032 HD
ATOM     67  H   UNL     1     156.924 162.104 182.493  0.00  0.00    +0.060 HD
ATOM     68  H   UNL     1     158.147 163.513 180.744  0.00  0.00    +0.036 HD
ATOM     69  H   UNL     1     159.318 164.964 182.429  0.00  0.00    +0.074 HD
ATOM     70  H   UNL     1     161.877 163.545 186.000  0.00  0.00    +0.069 HD
ATOM     71  H   UNL     1     159.783 161.478 185.100  0.00  0.00    +0.062 HD
ATOM     72  H   UNL     1     159.768 159.448 186.022  0.00  0.00    +0.058 HD
ATOM     73  H   UNL     1     161.470 157.693 186.833  0.00  0.00    +0.033 HD
ATOM     74  H   UNL     1     161.827 158.737 188.200  0.00  0.00    +0.033 HD
ATOM     75  H   UNL     1     160.368 157.032 188.869  0.00  0.00    +0.060 HD
ATOM     76  H   UNL     1     159.966 159.340 189.822  0.00  0.00    +0.032 HD
ATOM     77  H   UNL     1     158.812 158.053 190.112  0.00  0.00    +0.032 HD
ATOM     78  H   UNL     1     157.646 160.050 189.891  0.00  0.00    +0.064 HD
ATOM     79  H   UNL     1     157.976 162.308 186.976  0.00  0.00    +0.060 HD
ATOM     80  H   UNL     1     156.260 161.700 189.434  0.00  0.00    +0.032 HD
ATOM     81  H   UNL     1     155.813 162.828 188.173  0.00  0.00    +0.032 HD
ATOM     82  H   UNL     1     158.276 163.862 188.638  0.00  0.00    +0.060 HD
ATOM     83  H   UNL     1     155.753 164.164 190.287  0.00  0.00    +0.035 HD
ATOM     84  H   UNL     1     157.190 166.313 188.667  0.00  0.00    +0.060 HD
ATOM     85  H   UNL     1     155.562 167.491 189.630  0.00  0.00    +0.032 HD
ATOM     86  H   UNL     1     154.610 166.127 190.100  0.00  0.00    +0.032 HD
ATOM     87  H   UNL     1     153.490 167.771 188.528  0.00  0.00    +0.060 HD
ATOM     88  H   UNL     1     153.762 165.002 187.269  0.00  0.00    +0.036 HD
ATOM     89  H   UNL     1     155.647 161.311 186.430  0.00  0.00    +0.033 HD
ATOM     90  H   UNL     1     157.094 160.572 185.733  0.00  0.00    +0.033 HD
ATOM     91  H   UNL     1     155.427 158.838 186.747  0.00  0.00    +0.057 HD
ATOM     92  H   UNL     1     156.605 157.940 188.677  0.00  0.00    +0.059 HD
ATOM     93  H   UNL     1     151.781 157.054 179.619  0.00  0.00    +0.033 HD
ATOM     94  H   UNL     1     152.649 156.023 180.760  0.00  0.00    +0.033 HD
ATOM     95  H   UNL     1     150.307 155.190 180.753  0.00  0.00    +0.057 HD
ATOM     96  H   UNL     1     148.767 156.409 182.169  0.00  0.00    +0.059 HD
ENDROOT
BRANCH  28  97
ATOM     97  C   UNL     1     162.529 161.213 187.253  0.00  0.00    -0.040 C 
ATOM     98  H   UNL     1     162.278 161.581 188.252  0.00  0.00    +0.028 HD
ATOM     99  H   UNL     1     163.092 162.019 186.774  0.00  0.00    +0.028 HD
ATOM    100  H   UNL     1     163.205 160.356 187.351  0.00  0.00    +0.028 HD
ENDBRANCH  28  97
BRANCH  21 101
ATOM    101  C   UNL     1     160.074 162.725 181.133  0.00  0.00    -0.057 C 
ATOM    102  H   UNL     1     160.797 163.456 181.503  0.00  0.00    +0.023 HD
ATOM    103  H   UNL     1     160.374 161.745 181.507  0.00  0.00    +0.023 HD
ATOM    104  H   UNL     1     160.158 162.697 180.042  0.00  0.00    +0.023 HD
ENDBRANCH  21 101
BRANCH  42 105
ATOM    105  C   UNL     1     152.314 166.282 186.489  0.00  0.00    -0.057 C 
ATOM    106  H   UNL     1     151.834 167.241 186.684  0.00  0.00    +0.023 HD
ATOM    107  H   UNL     1     151.558 165.545 186.205  0.00  0.00    +0.023 HD
ATOM    108  H   UNL     1     152.960 166.433 185.621  0.00  0.00    +0.023 HD
ENDBRANCH  42 105
BRANCH  17 109
ATOM    109  C   UNL     1     155.527 159.697 178.743  0.00  0.00    -0.058 C 
ATOM    110  H   UNL     1     156.084 159.221 177.937  0.00  0.00    +0.023 HD
ATOM    111  H   UNL     1     155.839 160.746 178.767  0.00  0.00    +0.023 HD
ATOM    112  H   UNL     1     154.467 159.671 178.492  0.00  0.00    +0.023 HD
ENDBRANCH  17 109
BRANCH  38 113
ATOM    113  C   UNL     1     157.332 165.342 191.092  0.00  0.00    -0.058 C 
ATOM    114  H   UNL     1     156.717 165.296 191.998  0.00  0.00    +0.023 HD
ATOM    115  H   UNL     1     158.314 164.903 191.327  0.00  0.00    +0.023 HD
ATOM    116  H   UNL     1     157.489 166.401 190.870  0.00  0.00    +0.023 HD
ENDBRANCH  38 113
BRANCH   7 117
ATOM    117  C   UNL     1     152.191 158.096 187.393  0.00  0.00    -0.040 C 
ATOM    118  H   UNL     1     152.540 157.948 186.368  0.00  0.00    +0.028 HD
ATOM    119  H   UNL     1     151.700 157.174 187.719  0.00  0.00    +0.028 HD
ATOM    120  H   UNL     1     153.063 158.230 188.044  0.00  0.00    +0.028 HD
ENDBRANCH   7 117
BRANCH   1 121
ATOM    121  C   UNL     1     151.276 166.037 189.586  0.00  0.00    +0.020 C 
ATOM    122  H   UNL     1     151.471 167.089 189.354  0.00  0.00    +0.036 HD
BRANCH 121 123
ATOM    123  C   UNL     1     149.818 165.769 189.167  0.00  0.00    -0.057 C 
ATOM    124  H   UNL     1     149.629 166.030 188.123  0.00  0.00    +0.023 HD
ATOM    125  H   UNL     1     149.554 164.717 189.307  0.00  0.00    +0.023 HD
ATOM    126  H   UNL     1     149.120 166.323 189.799  0.00  0.00    +0.023 HD
ENDBRANCH 121 123
BRANCH 121 127
ATOM    127  C   UNL     1     151.363 165.878 191.142  0.00  0.00    +0.064 C 
ATOM    128  H   UNL     1     150.398 165.501 191.507  0.00  0.00    +0.060 HD
BRANCH 127 129
ATOM    129  C   UNL     1     151.675 167.179 191.938  0.00  0.00    -0.017 C 
ATOM    130  H   UNL     1     152.652 167.085 192.421  0.00  0.00    +0.032 HD
BRANCH 129 131
ATOM    131  C   UNL     1     151.707 168.405 191.020  0.00  0.00    -0.060 C 
ATOM    132  H   UNL     1     152.280 169.231 191.449  0.00  0.00    +0.023 HD
ATOM    133  H   UNL     1     152.148 168.159 190.047  0.00  0.00    +0.023 HD
ATOM    134  H   UNL     1     150.694 168.784 190.844  0.00  0.00    +0.023 HD
ENDBRANCH 129 131
BRANCH 129 135
ATOM    135  C   UNL     1     150.652 167.465 193.068  0.00  0.00    -0.046 C 
ATOM    136  H   UNL     1     150.881 166.792 193.904  0.00  0.00    +0.027 HD
ATOM    137  H   UNL     1     150.779 168.485 193.450  0.00  0.00    +0.027 HD
BRANCH 135 138
ATOM    138  C   UNL     1     149.186 167.257 192.664  0.00  0.00    -0.026 C 
ATOM    139  H   UNL     1     148.544 167.927 193.242  0.00  0.00    +0.029 HD
ATOM    140  H   UNL     1     149.066 167.531 191.608  0.00  0.00    +0.029 HD
BRANCH 138 143
ATOM    141  C   UNL     1     146.613 166.305 194.009  0.00  0.00    +0.059 C 
ATOM    142  O   UNL     1     147.278 165.708 192.890  0.00  0.00    -0.373 OA
ATOM    143  C   UNL     1     148.706 165.816 192.905  0.00  0.00    +0.061 C 
ATOM    144  C   UNL     1     149.267 165.211 194.193  0.00  0.00    -0.000 C 
ATOM    145  C   UNL     1     148.615 165.816 195.435  0.00  0.00    +0.063 C 
ATOM    146  C   UNL     1     147.097 165.696 195.318  0.00  0.00    -0.000 C 
ATOM    147  H   UNL     1     146.792 167.385 193.997  0.00  0.00    +0.059 HD
ATOM    148  H   UNL     1     149.061 165.206 192.064  0.00  0.00    +0.060 HD
ATOM    149  H   UNL     1     149.074 164.128 194.189  0.00  0.00    +0.032 HD
ATOM    150  H   UNL     1     150.356 165.322 194.237  0.00  0.00    +0.032 HD
ATOM    151  H   UNL     1     148.907 166.870 195.519  0.00  0.00    +0.060 HD
ATOM    152  H   UNL     1     146.601 166.179 196.169  0.00  0.00    +0.032 HD
ATOM    153  H   UNL     1     146.824 164.632 195.367  0.00  0.00    +0.032 HD
BRANCH 141 154
ATOM    154  C   UNL     1     145.121 166.079 193.818  0.00  0.00    -0.039 C 
ATOM    155  H   UNL     1     144.537 166.943 194.149  0.00  0.00    +0.025 HD
ATOM    156  H   UNL     1     144.894 165.887 192.763  0.00  0.00    +0.025 HD
ATOM    157  H   UNL     1     144.786 165.195 194.374  0.00  0.00    +0.025 HD
ENDBRANCH 141 154
BRANCH 145 158
ATOM    158  O   UNL     1     149.125 165.111 196.570  0.00  0.00    -0.380 OA
BRANCH 158 159
ATOM    159  C   UNL     1     150.495 164.751 196.443  0.00  0.00    +0.037 C 
ATOM    160  H   UNL     1     150.640 164.318 195.450  0.00  0.00    +0.052 HD
ATOM    161  H   UNL     1     150.766 164.000 197.185  0.00  0.00    +0.052 HD
ATOM    162  H   UNL     1     151.148 165.625 196.533  0.00  0.00    +0.052 HD
ENDBRANCH 158 159
ENDBRANCH 145 158
ENDBRANCH 138 143
ENDBRANCH 135 138
ENDBRANCH 129 135
ENDBRANCH 127 129
BRANCH 127 163
ATOM    163  O   UNL     1     152.334 164.884 191.463  0.00  0.00    -0.391 OA
ATOM    164  H   UNL     1     152.308 164.201 190.773  0.00  0.00    +0.210 HD
ENDBRANCH 127 163
ENDBRANCH 121 127
ENDBRANCH   1 121
BRANCH  41 165
ATOM    165  O   UNL     1     154.835 167.443 187.027  0.00  0.00    -0.391 OA
ATOM    166  H   UNL     1     154.476 167.003 186.236  0.00  0.00    +0.210 HD
ENDBRANCH  41 165
BRANCH  39 167
ATOM    167  O   UNL     1     156.098 165.049 187.558  0.00  0.00    -0.391 OA
ATOM    168  H   UNL     1     156.828 164.410 187.417  0.00  0.00    +0.210 HD
ENDBRANCH  39 167
BRANCH  31 169
ATOM    169  O   UNL     1     158.953 157.144 187.462  0.00  0.00    -0.391 OA
ATOM    170  H   UNL     1     159.428 156.774 186.696  0.00  0.00    +0.210 HD
ENDBRANCH  31 169
BRANCH  22 171
ATOM    171  C   UNL     1     157.327 164.630 183.266  0.00  0.00    +0.020 C 
ATOM    172  H   UNL     1     156.610 164.467 182.459  0.00  0.00    +0.036 HD
BRANCH 171 173
ATOM    173  C   UNL     1     156.790 163.754 184.414  0.00  0.00    -0.057 C 
ATOM    174  H   UNL     1     155.805 163.342 184.165  0.00  0.00    +0.023 HD
ATOM    175  H   UNL     1     157.457 162.905 184.608  0.00  0.00    +0.023 HD
ATOM    176  H   UNL     1     156.713 164.317 185.349  0.00  0.00    +0.023 HD
ENDBRANCH 171 173
BRANCH 171 177
ATOM    177  C   UNL     1     157.249 166.126 183.732  0.00  0.00    +0.064 C 
ATOM    178  H   UNL     1     156.961 166.154 184.793  0.00  0.00    +0.060 HD
BRANCH 177 179
ATOM    179  O   UNL     1     158.534 166.741 183.683  0.00  0.00    -0.391 OA
ATOM    180  H   UNL     1     158.596 167.233 182.845  0.00  0.00    +0.210 HD
ENDBRANCH 177 179
BRANCH 177 181
ATOM    181  C   UNL     1     156.217 166.996 182.932  0.00  0.00    -0.017 C 
ATOM    182  H   UNL     1     156.703 167.327 182.003  0.00  0.00    +0.032 HD
BRANCH 181 183
ATOM    183  C   UNL     1     154.962 166.182 182.576  0.00  0.00    -0.060 C 
ATOM    184  H   UNL     1     154.066 166.759 182.828  0.00  0.00    +0.023 HD
ATOM    185  H   UNL     1     154.911 165.226 183.102  0.00  0.00    +0.023 HD
ATOM    186  H   UNL     1     154.931 165.930 181.514  0.00  0.00    +0.023 HD
ENDBRANCH 181 183
BRANCH 181 187
ATOM    187  C   UNL     1     155.816 168.273 183.729  0.00  0.00    -0.046 C 
ATOM    188  H   UNL     1     156.015 168.107 184.791  0.00  0.00    +0.027 HD
ATOM    189  H   UNL     1     154.736 168.416 183.612  0.00  0.00    +0.027 HD
BRANCH 187 190
ATOM    190  C   UNL     1     156.551 169.554 183.288  0.00  0.00    -0.026 C 
ATOM    191  H   UNL     1     155.845 170.178 182.733  0.00  0.00    +0.029 HD
ATOM    192  H   UNL     1     157.352 169.277 182.592  0.00  0.00    +0.029 HD
BRANCH 190 193
ATOM    193  C   UNL     1     157.140 170.475 184.380  0.00  0.00    +0.061 C 
ATOM    194  O   UNL     1     156.605 171.798 184.350  0.00  0.00    -0.373 OA
ATOM    195  C   UNL     1     157.246 172.724 183.482  0.00  0.00    +0.059 C 
ATOM    196  C   UNL     1     158.737 172.823 183.771  0.00  0.00    -0.000 C 
ATOM    197  C   UNL     1     159.393 171.442 183.659  0.00  0.00    +0.063 C 
ATOM    198  C   UNL     1     158.659 170.451 184.559  0.00  0.00    -0.000 C 
ATOM    199  H   UNL     1     156.732 170.063 185.313  0.00  0.00    +0.060 HD
ATOM    200  H   UNL     1     157.075 172.420 182.444  0.00  0.00    +0.059 HD
ATOM    201  H   UNL     1     159.210 173.527 183.077  0.00  0.00    +0.032 HD
ATOM    202  H   UNL     1     158.917 173.212 184.780  0.00  0.00    +0.032 HD
ATOM    203  H   UNL     1     159.356 171.105 182.620  0.00  0.00    +0.060 HD
ATOM    204  H   UNL     1     158.880 170.735 185.598  0.00  0.00    +0.032 HD
ATOM    205  H   UNL     1     159.062 169.438 184.442  0.00  0.00    +0.032 HD
BRANCH 195 206
ATOM    206  C   UNL     1     156.582 174.080 183.693  0.00  0.00    -0.039 C 
ATOM    207  H   UNL     1     155.635 174.138 183.153  0.00  0.00    +0.025 HD
ATOM    208  H   UNL     1     156.390 174.257 184.753  0.00  0.00    +0.025 HD
ATOM    209  H   UNL     1     157.227 174.891 183.350  0.00  0.00    +0.025 HD
ENDBRANCH 195 206
BRANCH 197 210
ATOM    210  O   UNL     1     160.766 171.441 184.068  0.00  0.00    -0.380 OA
BRANCH 210 211
ATOM    211  C   UNL     1     161.485 172.605 183.692  0.00  0.00    +0.037 C 
ATOM    212  H   UNL     1     162.526 172.518 184.005  0.00  0.00    +0.052 HD
ATOM    213  H   UNL     1     161.471 172.679 182.602  0.00  0.00    +0.052 HD
ATOM    214  H   UNL     1     161.033 173.506 184.111  0.00  0.00    +0.052 HD
ENDBRANCH 210 211
ENDBRANCH 197 210
ENDBRANCH 190 193
ENDBRANCH 187 190
ENDBRANCH 181 187
ENDBRANCH 177 181
ENDBRANCH 171 177
ENDBRANCH  22 171
BRANCH  20 215
ATOM    215  O   UNL     1     158.537 160.937 182.901  0.00  0.00    -0.391 OA
ATOM    216  H   UNL     1     159.231 161.451 183.349  0.00  0.00    +0.210 HD
ENDBRANCH  20 215
BRANCH  18 217
ATOM    217  O   UNL     1     156.402 159.393 182.412  0.00  0.00    -0.391 OA
ATOM    218  H   UNL     1     157.359 159.214 182.540  0.00  0.00    +0.210 HD
ENDBRANCH  18 217
BRANCH  10 219
ATOM    219  O   UNL     1     148.109 157.236 184.406  0.00  0.00    -0.391 OA
ATOM    220  H   UNL     1     148.287 157.034 183.470  0.00  0.00    +0.210 HD
ENDBRANCH  10 219
BRANCH  37 221
ATOM    221  O   UNL     1     158.231 162.810 190.443  0.00  0.00    -0.379 OA
BRANCH 221 222
ATOM    222  C   UNL     1     159.644 162.816 190.281  0.00  0.00    +0.037 C 
ATOM    223  H   UNL     1     160.063 161.837 190.537  0.00  0.00    +0.052 HD
ATOM    224  H   UNL     1     160.109 163.589 190.900  0.00  0.00    +0.052 HD
ATOM    225  H   UNL     1     159.876 163.030 189.233  0.00  0.00    +0.052 HD
ENDBRANCH 221 222
ENDBRANCH  37 221
BRANCH  16 226
ATOM    226  O   UNL     1     154.927 157.209 181.586  0.00  0.00    -0.379 OA
BRANCH 226 227
ATOM    227  C   UNL     1     155.692 156.067 181.230  0.00  0.00    +0.037 C 
ATOM    228  H   UNL     1     155.275 155.207 181.760  0.00  0.00    +0.052 HD
ATOM    229  H   UNL     1     155.627 155.868 180.155  0.00  0.00    +0.052 HD
ATOM    230  H   UNL     1     156.736 156.176 181.537  0.00  0.00    +0.052 HD
ENDBRANCH 226 227
ENDBRANCH  16 226
TORSDOF 40
ENDMDL
MODEL 6
REMARK VINA RESULT:      -4.8     11.928     19.382
REMARK  Name = Swinholide A_conf2
REMARK  40 active torsions:
REMARK  status: ('A' for Active; 'I' for Inactive)
REMARK    1  A    between atoms: C_1  and  C_2
REMARK    2  A    between atoms: C_4  and  C_10
REMARK    3  A    between atoms: C_6  and  O_8
REMARK    4  A    between atoms: O_8  and  C_9
REMARK    5  A    between atoms: C_10  and  C_11
REMARK    6  A    between atoms: C_11  and  C_12
REMARK    7  A    between atoms: C_12  and  C_13
REMARK    8  A    between atoms: C_12  and  C_98
REMARK    9  A    between atoms: C_13  and  O_14
REMARK   10  A    between atoms: C_13  and  C_15
REMARK   11  A    between atoms: C_15  and  C_16
REMARK   12  A    between atoms: C_15  and  C_97
REMARK   13  A    between atoms: C_22  and  C_96
REMARK   14  A    between atoms: C_25  and  O_95
REMARK   15  A    between atoms: C_31  and  O_90
REMARK   16  A    between atoms: C_32  and  C_89
REMARK   17  A    between atoms: C_33  and  O_88
REMARK   18  A    between atoms: C_35  and  O_87
REMARK   19  A    between atoms: C_36  and  C_86
REMARK   20  A    between atoms: C_37  and  C_69
REMARK   21  A    between atoms: C_43  and  C_68
REMARK   22  A    between atoms: C_46  and  O_67
REMARK   23  A    between atoms: C_52  and  O_62
REMARK   24  A    between atoms: C_53  and  C_61
REMARK   25  A    between atoms: C_54  and  O_60
REMARK   26  A    between atoms: C_56  and  O_59
REMARK   27  A    between atoms: C_57  and  C_58
REMARK   28  A    between atoms: O_62  and  C_63
REMARK   29  A    between atoms: C_69  and  C_70
REMARK   30  A    between atoms: C_69  and  C_85
REMARK   31  A    between atoms: C_70  and  O_71
REMARK   32  A    between atoms: C_70  and  C_72
REMARK   33  A    between atoms: C_72  and  C_73
REMARK   34  A    between atoms: C_72  and  C_84
REMARK   35  A    between atoms: C_73  and  C_74
REMARK   36  A    between atoms: C_74  and  C_75
REMARK   37  A    between atoms: C_77  and  C_83
REMARK   38  A    between atoms: C_79  and  O_81
REMARK   39  A    between atoms: O_81  and  C_82
REMARK   40  A    between atoms: O_90  and  C_91
REMARK                            x       y       z     vdW  Elec       q    Type
REMARK                         _______ _______ _______ _____ _____    ______ ____
ROOT
ATOM      1  C   UNL     1     143.833 167.558 189.473  0.00  0.00    +0.113 C 
ATOM      2  O   UNL     1     143.435 168.738 190.217  0.00  0.00    -0.458 OA
ATOM      3  C   UNL     1     142.109 169.018 190.225  0.00  0.00    +0.332 C 
ATOM      4  O   UNL     1     141.218 168.369 189.706  0.00  0.00    -0.246 OA
ATOM      5  C   UNL     1     141.901 170.295 190.944  0.00  0.00    +0.023 C 
ATOM      6  C   UNL     1     140.650 170.727 191.161  0.00  0.00    -0.052 C 
ATOM      7  C   UNL     1     140.269 171.995 191.773  0.00  0.00    -0.054 C 
ATOM      8  C   UNL     1     141.011 172.590 192.728  0.00  0.00    -0.079 C 
ATOM      9  C   UNL     1     140.666 173.860 193.465  0.00  0.00    -0.008 C 
ATOM     10  C   UNL     1     141.623 175.037 193.183  0.00  0.00    +0.061 C 
ATOM     11  C   UNL     1     141.453 175.603 191.764  0.00  0.00    +0.003 C 
ATOM     12  C   UNL     1     142.219 176.918 191.506  0.00  0.00    +0.080 C 
ATOM     13  O   UNL     1     142.537 177.051 190.102  0.00  0.00    -0.369 OA
ATOM     14  C   UNL     1     141.433 177.496 189.291  0.00  0.00    +0.065 C 
ATOM     15  C   UNL     1     141.908 177.441 187.827  0.00  0.00    +0.000 C 
ATOM     16  C   UNL     1     140.901 177.998 186.795  0.00  0.00    +0.066 C 
ATOM     17  C   UNL     1     141.294 177.681 185.311  0.00  0.00    +0.009 C 
ATOM     18  C   UNL     1     141.472 176.171 185.014  0.00  0.00    +0.063 C 
ATOM     19  C   UNL     1     141.777 175.866 183.525  0.00  0.00    -0.000 C 
ATOM     20  C   UNL     1     141.758 174.348 183.288  0.00  0.00    +0.064 C 
ATOM     21  C   UNL     1     142.566 173.887 182.046  0.00  0.00    +0.020 C 
ATOM     22  C   UNL     1     142.861 172.353 182.059  0.00  0.00    +0.113 C 
ATOM     23  O   UNL     1     141.548 171.727 182.033  0.00  0.00    -0.458 OA
ATOM     24  C   UNL     1     141.315 170.665 181.232  0.00  0.00    +0.332 C 
ATOM     25  O   UNL     1     142.154 170.027 180.595  0.00  0.00    -0.246 OA
ATOM     26  C   UNL     1     139.875 170.328 181.204  0.00  0.00    +0.023 C 
ATOM     27  C   UNL     1     138.955 170.920 181.993  0.00  0.00    -0.052 C 
ATOM     28  C   UNL     1     137.521 170.648 182.053  0.00  0.00    -0.054 C 
ATOM     29  C   UNL     1     136.795 171.286 182.994  0.00  0.00    -0.079 C 
ATOM     30  C   UNL     1     135.337 171.122 183.317  0.00  0.00    -0.008 C 
ATOM     31  C   UNL     1     134.996 170.946 184.811  0.00  0.00    +0.061 C 
ATOM     32  C   UNL     1     135.545 169.682 185.504  0.00  0.00    +0.003 C 
ATOM     33  C   UNL     1     136.950 169.672 186.139  0.00  0.00    +0.080 C 
ATOM     34  O   UNL     1     137.955 169.673 185.120  0.00  0.00    -0.369 OA
ATOM     35  C   UNL     1     139.299 169.821 185.588  0.00  0.00    +0.065 C 
ATOM     36  C   UNL     1     139.805 168.617 186.401  0.00  0.00    +0.000 C 
ATOM     37  C   UNL     1     139.974 167.357 185.517  0.00  0.00    +0.066 C 
ATOM     38  C   UNL     1     141.029 166.387 186.121  0.00  0.00    +0.009 C 
ATOM     39  C   UNL     1     142.490 166.782 185.753  0.00  0.00    +0.063 C 
ATOM     40  C   UNL     1     143.532 166.103 186.681  0.00  0.00    -0.000 C 
ATOM     41  C   UNL     1     144.751 166.933 187.106  0.00  0.00    +0.064 C 
ATOM     42  C   UNL     1     144.482 168.052 188.143  0.00  0.00    +0.020 C 
ATOM     43  C   UNL     1     139.457 171.163 186.326  0.00  0.00    -0.008 C 
ATOM     44  C   UNL     1     138.310 171.458 187.244  0.00  0.00    -0.083 C 
ATOM     45  C   UNL     1     137.174 170.762 187.155  0.00  0.00    -0.059 C 
ATOM     46  C   UNL     1     141.000 178.909 189.709  0.00  0.00    -0.008 C 
ATOM     47  C   UNL     1     140.912 179.043 191.199  0.00  0.00    -0.083 C 
ATOM     48  C   UNL     1     141.485 178.141 192.004  0.00  0.00    -0.059 C 
ATOM     49  H   UNL     1     142.943 167.007 189.173  0.00  0.00    +0.074 HD
ATOM     50  H   UNL     1     142.781 170.847 191.237  0.00  0.00    +0.069 HD
ATOM     51  H   UNL     1     139.816 170.119 190.810  0.00  0.00    +0.062 HD
ATOM     52  H   UNL     1     141.930 172.114 193.067  0.00  0.00    +0.058 HD
ATOM     53  H   UNL     1     140.694 173.627 194.538  0.00  0.00    +0.033 HD
ATOM     54  H   UNL     1     139.636 174.181 193.285  0.00  0.00    +0.033 HD
ATOM     55  H   UNL     1     142.656 174.709 193.317  0.00  0.00    +0.060 HD
ATOM     56  H   UNL     1     141.778 174.849 191.037  0.00  0.00    +0.032 HD
ATOM     57  H   UNL     1     140.389 175.771 191.561  0.00  0.00    +0.032 HD
ATOM     58  H   UNL     1     143.190 176.873 192.009  0.00  0.00    +0.064 HD
ATOM     59  H   UNL     1     140.603 176.790 189.414  0.00  0.00    +0.060 HD
ATOM     60  H   UNL     1     142.863 177.970 187.726  0.00  0.00    +0.032 HD
ATOM     61  H   UNL     1     142.130 176.388 187.618  0.00  0.00    +0.032 HD
ATOM     62  H   UNL     1     140.885 179.092 186.908  0.00  0.00    +0.060 HD
ATOM     63  H   UNL     1     140.467 178.029 184.684  0.00  0.00    +0.035 HD
ATOM     64  H   UNL     1     142.319 175.780 185.591  0.00  0.00    +0.060 HD
ATOM     65  H   UNL     1     142.762 176.275 183.263  0.00  0.00    +0.032 HD
ATOM     66  H   UNL     1     141.026 176.349 182.893  0.00  0.00    +0.032 HD
ATOM     67  H   UNL     1     142.181 173.883 184.178  0.00  0.00    +0.060 HD
ATOM     68  H   UNL     1     143.516 174.428 182.067  0.00  0.00    +0.036 HD
ATOM     69  H   UNL     1     143.411 172.092 181.146  0.00  0.00    +0.074 HD
ATOM     70  H   UNL     1     139.619 169.538 180.509  0.00  0.00    +0.069 HD
ATOM     71  H   UNL     1     139.301 171.669 182.706  0.00  0.00    +0.062 HD
ATOM     72  H   UNL     1     137.309 171.987 183.655  0.00  0.00    +0.058 HD
ATOM     73  H   UNL     1     134.831 172.028 182.955  0.00  0.00    +0.033 HD
ATOM     74  H   UNL     1     134.900 170.281 182.777  0.00  0.00    +0.033 HD
ATOM     75  H   UNL     1     133.906 170.827 184.825  0.00  0.00    +0.060 HD
ATOM     76  H   UNL     1     135.481 168.848 184.793  0.00  0.00    +0.032 HD
ATOM     77  H   UNL     1     134.847 169.446 186.314  0.00  0.00    +0.032 HD
ATOM     78  H   UNL     1     137.024 168.714 186.662  0.00  0.00    +0.064 HD
ATOM     79  H   UNL     1     139.927 169.894 184.690  0.00  0.00    +0.060 HD
ATOM     80  H   UNL     1     139.128 168.393 187.232  0.00  0.00    +0.032 HD
ATOM     81  H   UNL     1     140.760 168.901 186.858  0.00  0.00    +0.032 HD
ATOM     82  H   UNL     1     140.293 167.636 184.504  0.00  0.00    +0.060 HD
ATOM     83  H   UNL     1     140.915 166.429 187.212  0.00  0.00    +0.035 HD
ATOM     84  H   UNL     1     142.684 166.442 184.726  0.00  0.00    +0.060 HD
ATOM     85  H   UNL     1     143.902 165.221 186.136  0.00  0.00    +0.032 HD
ATOM     86  H   UNL     1     143.040 165.683 187.561  0.00  0.00    +0.032 HD
ATOM     87  H   UNL     1     145.509 166.262 187.522  0.00  0.00    +0.060 HD
ATOM     88  H   UNL     1     143.761 168.759 187.708  0.00  0.00    +0.036 HD
ATOM     89  H   UNL     1     140.399 171.188 186.885  0.00  0.00    +0.033 HD
ATOM     90  H   UNL     1     139.489 171.977 185.591  0.00  0.00    +0.033 HD
ATOM     91  H   UNL     1     138.412 172.276 187.950  0.00  0.00    +0.057 HD
ATOM     92  H   UNL     1     136.349 170.992 187.829  0.00  0.00    +0.059 HD
ATOM     93  H   UNL     1     141.711 179.656 189.341  0.00  0.00    +0.033 HD
ATOM     94  H   UNL     1     140.023 179.142 189.271  0.00  0.00    +0.033 HD
ATOM     95  H   UNL     1     140.395 179.901 191.609  0.00  0.00    +0.057 HD
ATOM     96  H   UNL     1     141.411 178.267 193.081  0.00  0.00    +0.059 HD
ENDROOT
BRANCH  28  97
ATOM     97  C   UNL     1     136.953 169.655 181.070  0.00  0.00    -0.040 C 
ATOM     98  H   UNL     1     136.446 168.843 181.600  0.00  0.00    +0.028 HD
ATOM     99  H   UNL     1     137.711 169.172 180.447  0.00  0.00    +0.028 HD
ATOM    100  H   UNL     1     136.237 170.139 180.396  0.00  0.00    +0.028 HD
ENDBRANCH  28  97
BRANCH  21 101
ATOM    101  C   UNL     1     141.885 174.274 180.726  0.00  0.00    -0.057 C 
ATOM    102  H   UNL     1     141.341 175.216 180.823  0.00  0.00    +0.023 HD
ATOM    103  H   UNL     1     142.631 174.402 179.940  0.00  0.00    +0.023 HD
ATOM    104  H   UNL     1     141.176 173.514 180.382  0.00  0.00    +0.023 HD
ENDBRANCH  21 101
BRANCH  42 105
ATOM    105  C   UNL     1     145.741 168.914 188.340  0.00  0.00    -0.057 C 
ATOM    106  H   UNL     1     145.651 169.877 187.835  0.00  0.00    +0.023 HD
ATOM    107  H   UNL     1     146.644 168.404 187.997  0.00  0.00    +0.023 HD
ATOM    108  H   UNL     1     145.878 169.136 189.401  0.00  0.00    +0.023 HD
ENDBRANCH  42 105
BRANCH  17 109
ATOM    109  C   UNL     1     142.534 178.483 184.899  0.00  0.00    -0.058 C 
ATOM    110  H   UNL     1     143.379 178.272 185.554  0.00  0.00    +0.023 HD
ATOM    111  H   UNL     1     142.336 179.557 184.973  0.00  0.00    +0.023 HD
ATOM    112  H   UNL     1     142.831 178.269 183.873  0.00  0.00    +0.023 HD
ENDBRANCH  17 109
BRANCH  38 113
ATOM    113  C   UNL     1     140.801 164.920 185.715  0.00  0.00    -0.058 C 
ATOM    114  H   UNL     1     140.112 164.826 184.868  0.00  0.00    +0.023 HD
ATOM    115  H   UNL     1     141.752 164.441 185.432  0.00  0.00    +0.023 HD
ATOM    116  H   UNL     1     140.372 164.341 186.537  0.00  0.00    +0.023 HD
ENDBRANCH  38 113
BRANCH   7 117
ATOM    117  C   UNL     1     138.963 172.557 191.275  0.00  0.00    -0.040 C 
ATOM    118  H   UNL     1     139.119 173.544 190.830  0.00  0.00    +0.028 HD
ATOM    119  H   UNL     1     138.239 172.665 192.089  0.00  0.00    +0.028 HD
ATOM    120  H   UNL     1     138.493 171.907 190.528  0.00  0.00    +0.028 HD
ENDBRANCH   7 117
BRANCH   1 121
ATOM    121  C   UNL     1     144.652 166.596 190.382  0.00  0.00    +0.020 C 
ATOM    122  H   UNL     1     144.961 165.729 189.789  0.00  0.00    +0.036 HD
BRANCH 121 123
ATOM    123  C   UNL     1     145.947 167.219 190.938  0.00  0.00    -0.057 C 
ATOM    124  H   UNL     1     146.344 166.665 191.793  0.00  0.00    +0.023 HD
ATOM    125  H   UNL     1     146.726 167.260 190.170  0.00  0.00    +0.023 HD
ATOM    126  H   UNL     1     145.787 168.257 191.235  0.00  0.00    +0.023 HD
ENDBRANCH 121 123
BRANCH 121 127
ATOM    127  C   UNL     1     143.821 166.059 191.596  0.00  0.00    +0.064 C 
ATOM    128  H   UNL     1     142.765 166.307 191.430  0.00  0.00    +0.060 HD
BRANCH 127 129
ATOM    129  C   UNL     1     144.210 166.635 192.989  0.00  0.00    -0.017 C 
ATOM    130  H   UNL     1     145.037 167.342 192.873  0.00  0.00    +0.032 HD
BRANCH 129 131
ATOM    131  C   UNL     1     143.034 167.372 193.640  0.00  0.00    -0.060 C 
ATOM    132  H   UNL     1     142.709 166.897 194.569  0.00  0.00    +0.023 HD
ATOM    133  H   UNL     1     143.296 168.412 193.868  0.00  0.00    +0.023 HD
ATOM    134  H   UNL     1     142.165 167.382 192.973  0.00  0.00    +0.023 HD
ENDBRANCH 129 131
BRANCH 129 135
ATOM    135  C   UNL     1     144.695 165.551 193.986  0.00  0.00    -0.046 C 
ATOM    136  H   UNL     1     144.321 165.821 194.981  0.00  0.00    +0.027 HD
ATOM    137  H   UNL     1     144.249 164.580 193.742  0.00  0.00    +0.027 HD
BRANCH 135 138
ATOM    138  C   UNL     1     146.220 165.400 194.064  0.00  0.00    -0.026 C 
ATOM    139  H   UNL     1     146.475 164.495 194.623  0.00  0.00    +0.029 HD
ATOM    140  H   UNL     1     146.618 165.271 193.050  0.00  0.00    +0.029 HD
BRANCH 138 143
ATOM    141  C   UNL     1     148.846 166.788 193.347  0.00  0.00    +0.059 C 
ATOM    142  O   UNL     1     147.653 167.398 193.850  0.00  0.00    -0.373 OA
ATOM    143  C   UNL     1     146.897 166.593 194.761  0.00  0.00    +0.061 C 
ATOM    144  C   UNL     1     147.772 166.172 195.943  0.00  0.00    -0.000 C 
ATOM    145  C   UNL     1     149.060 165.493 195.481  0.00  0.00    +0.063 C 
ATOM    146  C   UNL     1     149.780 166.398 194.485  0.00  0.00    -0.000 C 
ATOM    147  H   UNL     1     148.576 165.908 192.753  0.00  0.00    +0.059 HD
ATOM    148  H   UNL     1     146.101 167.243 195.146  0.00  0.00    +0.060 HD
ATOM    149  H   UNL     1     148.037 167.067 196.524  0.00  0.00    +0.032 HD
ATOM    150  H   UNL     1     147.218 165.522 196.629  0.00  0.00    +0.032 HD
ATOM    151  H   UNL     1     148.814 164.533 195.012  0.00  0.00    +0.060 HD
ATOM    152  H   UNL     1     150.678 165.908 194.090  0.00  0.00    +0.032 HD
ATOM    153  H   UNL     1     150.129 167.297 195.016  0.00  0.00    +0.032 HD
BRANCH 141 154
ATOM    154  C   UNL     1     149.508 167.792 192.415  0.00  0.00    -0.039 C 
ATOM    155  H   UNL     1     148.766 168.363 191.847  0.00  0.00    +0.025 HD
ATOM    156  H   UNL     1     150.127 168.495 192.986  0.00  0.00    +0.025 HD
ATOM    157  H   UNL     1     150.179 167.288 191.711  0.00  0.00    +0.025 HD
ENDBRANCH 141 154
BRANCH 145 158
ATOM    158  O   UNL     1     149.850 165.240 196.647  0.00  0.00    -0.380 OA
BRANCH 158 159
ATOM    159  C   UNL     1     150.796 164.193 196.472  0.00  0.00    +0.037 C 
ATOM    160  H   UNL     1     150.246 163.271 196.271  0.00  0.00    +0.052 HD
ATOM    161  H   UNL     1     151.383 164.049 197.380  0.00  0.00    +0.052 HD
ATOM    162  H   UNL     1     151.457 164.389 195.622  0.00  0.00    +0.052 HD
ENDBRANCH 158 159
ENDBRANCH 145 158
ENDBRANCH 138 143
ENDBRANCH 135 138
ENDBRANCH 129 135
ENDBRANCH 127 129
BRANCH 127 163
ATOM    163  O   UNL     1     143.903 164.636 191.634  0.00  0.00    -0.391 OA
ATOM    164  H   UNL     1     143.010 164.285 191.780  0.00  0.00    +0.210 HD
ENDBRANCH 127 163
ENDBRANCH 121 127
ENDBRANCH   1 121
BRANCH  41 165
ATOM    165  O   UNL     1     145.317 167.514 185.920  0.00  0.00    -0.391 OA
ATOM    166  H   UNL     1     145.565 168.431 186.139  0.00  0.00    +0.210 HD
ENDBRANCH  41 165
BRANCH  39 167
ATOM    167  O   UNL     1     142.651 168.187 185.713  0.00  0.00    -0.391 OA
ATOM    168  H   UNL     1     143.524 168.368 185.303  0.00  0.00    +0.210 HD
ENDBRANCH  39 167
BRANCH  31 169
ATOM    169  O   UNL     1     135.226 172.126 185.576  0.00  0.00    -0.391 OA
ATOM    170  H   UNL     1     135.993 172.594 185.200  0.00  0.00    +0.210 HD
ENDBRANCH  31 169
BRANCH  22 171
ATOM    171  C   UNL     1     143.654 171.833 183.302  0.00  0.00    +0.020 C 
ATOM    172  H   UNL     1     144.050 172.709 183.818  0.00  0.00    +0.036 HD
BRANCH 171 173
ATOM    173  C   UNL     1     142.709 171.196 184.340  0.00  0.00    -0.057 C 
ATOM    174  H   UNL     1     141.676 171.182 183.974  0.00  0.00    +0.023 HD
ATOM    175  H   UNL     1     142.994 170.156 184.547  0.00  0.00    +0.023 HD
ATOM    176  H   UNL     1     142.741 171.729 185.294  0.00  0.00    +0.023 HD
ENDBRANCH 171 173
BRANCH 171 177
ATOM    177  C   UNL     1     144.821 170.820 183.036  0.00  0.00    +0.064 C 
ATOM    178  H   UNL     1     144.603 169.878 183.559  0.00  0.00    +0.060 HD
BRANCH 177 179
ATOM    179  O   UNL     1     144.883 170.467 181.655  0.00  0.00    -0.391 OA
ATOM    180  H   UNL     1     144.005 170.137 181.394  0.00  0.00    +0.210 HD
ENDBRANCH 177 179
BRANCH 177 181
ATOM    181  C   UNL     1     146.229 171.319 183.515  0.00  0.00    -0.017 C 
ATOM    182  H   UNL     1     146.703 170.502 184.078  0.00  0.00    +0.032 HD
BRANCH 181 183
ATOM    183  C   UNL     1     147.125 171.686 182.319  0.00  0.00    -0.060 C 
ATOM    184  H   UNL     1     148.175 171.518 182.582  0.00  0.00    +0.023 HD
ATOM    185  H   UNL     1     147.013 172.727 182.008  0.00  0.00    +0.023 HD
ATOM    186  H   UNL     1     146.883 171.092 181.435  0.00  0.00    +0.023 HD
ENDBRANCH 181 183
BRANCH 181 187
ATOM    187  C   UNL     1     146.101 172.536 184.478  0.00  0.00    -0.046 C 
ATOM    188  H   UNL     1     145.199 173.098 184.223  0.00  0.00    +0.027 HD
ATOM    189  H   UNL     1     146.961 173.193 184.304  0.00  0.00    +0.027 HD
BRANCH 187 190
ATOM    190  C   UNL     1     146.038 172.161 185.972  0.00  0.00    -0.026 C 
ATOM    191  H   UNL     1     147.046 171.883 186.295  0.00  0.00    +0.029 HD
ATOM    192  H   UNL     1     145.408 171.270 186.083  0.00  0.00    +0.029 HD
BRANCH 190 193
ATOM    193  C   UNL     1     145.565 173.232 186.978  0.00  0.00    +0.061 C 
ATOM    194  O   UNL     1     145.813 172.876 188.338  0.00  0.00    -0.373 OA
ATOM    195  C   UNL     1     144.815 172.094 188.983  0.00  0.00    +0.059 C 
ATOM    196  C   UNL     1     143.448 172.759 188.909  0.00  0.00    -0.000 C 
ATOM    197  C   UNL     1     143.063 173.021 187.448  0.00  0.00    +0.063 C 
ATOM    198  C   UNL     1     144.169 173.817 186.761  0.00  0.00    -0.000 C 
ATOM    199  H   UNL     1     146.258 174.068 186.810  0.00  0.00    +0.060 HD
ATOM    200  H   UNL     1     144.785 171.101 188.522  0.00  0.00    +0.059 HD
ATOM    201  H   UNL     1     142.695 172.129 189.394  0.00  0.00    +0.032 HD
ATOM    202  H   UNL     1     143.446 173.715 189.445  0.00  0.00    +0.032 HD
ATOM    203  H   UNL     1     142.911 172.068 186.935  0.00  0.00    +0.060 HD
ATOM    204  H   UNL     1     144.156 174.827 187.195  0.00  0.00    +0.032 HD
ATOM    205  H   UNL     1     143.952 173.955 185.695  0.00  0.00    +0.032 HD
BRANCH 195 206
ATOM    206  C   UNL     1     145.237 171.928 190.438  0.00  0.00    -0.039 C 
ATOM    207  H   UNL     1     146.059 172.601 190.685  0.00  0.00    +0.025 HD
ATOM    208  H   UNL     1     144.402 172.136 191.111  0.00  0.00    +0.025 HD
ATOM    209  H   UNL     1     145.556 170.903 190.640  0.00  0.00    +0.025 HD
ENDBRANCH 195 206
BRANCH 197 210
ATOM    210  O   UNL     1     141.856 173.782 187.317  0.00  0.00    -0.380 OA
BRANCH 210 211
ATOM    211  C   UNL     1     141.064 173.825 188.494  0.00  0.00    +0.037 C 
ATOM    212  H   UNL     1     141.641 174.251 189.316  0.00  0.00    +0.052 HD
ATOM    213  H   UNL     1     140.212 174.484 188.309  0.00  0.00    +0.052 HD
ATOM    214  H   UNL     1     140.691 172.834 188.760  0.00  0.00    +0.052 HD
ENDBRANCH 210 211
ENDBRANCH 197 210
ENDBRANCH 190 193
ENDBRANCH 187 190
ENDBRANCH 181 187
ENDBRANCH 177 181
ENDBRANCH 171 177
ENDBRANCH  22 171
BRANCH  20 215
ATOM    215  O   UNL     1     140.379 173.956 183.240  0.00  0.00    -0.391 OA
ATOM    216  H   UNL     1     140.106 173.664 184.127  0.00  0.00    +0.210 HD
ENDBRANCH  20 215
BRANCH  18 217
ATOM    217  O   UNL     1     140.312 175.470 185.451  0.00  0.00    -0.391 OA
ATOM    218  H   UNL     1     140.097 175.718 186.376  0.00  0.00    +0.210 HD
ENDBRANCH  18 217
BRANCH  10 219
ATOM    219  O   UNL     1     141.373 176.044 194.165  0.00  0.00    -0.391 OA
ATOM    220  H   UNL     1     140.495 176.425 193.985  0.00  0.00    +0.210 HD
ENDBRANCH  10 219
BRANCH  37 221
ATOM    221  O   UNL     1     138.698 166.699 185.476  0.00  0.00    -0.379 OA
BRANCH 221 222
ATOM    222  C   UNL     1     138.214 166.534 184.150  0.00  0.00    +0.037 C 
ATOM    223  H   UNL     1     138.645 165.638 183.692  0.00  0.00    +0.052 HD
ATOM    224  H   UNL     1     138.444 167.409 183.534  0.00  0.00    +0.052 HD
ATOM    225  H   UNL     1     137.126 166.416 184.186  0.00  0.00    +0.052 HD
ENDBRANCH 221 222
ENDBRANCH  37 221
BRANCH  16 226
ATOM    226  O   UNL     1     139.600 177.521 187.158  0.00  0.00    -0.379 OA
BRANCH 226 227
ATOM    227  C   UNL     1     138.522 178.329 186.710  0.00  0.00    +0.037 C 
ATOM    228  H   UNL     1     138.406 178.167 185.636  0.00  0.00    +0.052 HD
ATOM    229  H   UNL     1     137.584 178.045 187.201  0.00  0.00    +0.052 HD
ATOM    230  H   UNL     1     138.729 179.391 186.869  0.00  0.00    +0.052 HD
ENDBRANCH 226 227
ENDBRANCH  16 226
TORSDOF 40
ENDMDL
MODEL 7
REMARK VINA RESULT:      -4.7      3.582     10.340
REMARK  Name = Swinholide A_conf2
REMARK  40 active torsions:
REMARK  status: ('A' for Active; 'I' for Inactive)
REMARK    1  A    between atoms: C_1  and  C_2
REMARK    2  A    between atoms: C_4  and  C_10
REMARK    3  A    between atoms: C_6  and  O_8
REMARK    4  A    between atoms: O_8  and  C_9
REMARK    5  A    between atoms: C_10  and  C_11
REMARK    6  A    between atoms: C_11  and  C_12
REMARK    7  A    between atoms: C_12  and  C_13
REMARK    8  A    between atoms: C_12  and  C_98
REMARK    9  A    between atoms: C_13  and  O_14
REMARK   10  A    between atoms: C_13  and  C_15
REMARK   11  A    between atoms: C_15  and  C_16
REMARK   12  A    between atoms: C_15  and  C_97
REMARK   13  A    between atoms: C_22  and  C_96
REMARK   14  A    between atoms: C_25  and  O_95
REMARK   15  A    between atoms: C_31  and  O_90
REMARK   16  A    between atoms: C_32  and  C_89
REMARK   17  A    between atoms: C_33  and  O_88
REMARK   18  A    between atoms: C_35  and  O_87
REMARK   19  A    between atoms: C_36  and  C_86
REMARK   20  A    between atoms: C_37  and  C_69
REMARK   21  A    between atoms: C_43  and  C_68
REMARK   22  A    between atoms: C_46  and  O_67
REMARK   23  A    between atoms: C_52  and  O_62
REMARK   24  A    between atoms: C_53  and  C_61
REMARK   25  A    between atoms: C_54  and  O_60
REMARK   26  A    between atoms: C_56  and  O_59
REMARK   27  A    between atoms: C_57  and  C_58
REMARK   28  A    between atoms: O_62  and  C_63
REMARK   29  A    between atoms: C_69  and  C_70
REMARK   30  A    between atoms: C_69  and  C_85
REMARK   31  A    between atoms: C_70  and  O_71
REMARK   32  A    between atoms: C_70  and  C_72
REMARK   33  A    between atoms: C_72  and  C_73
REMARK   34  A    between atoms: C_72  and  C_84
REMARK   35  A    between atoms: C_73  and  C_74
REMARK   36  A    between atoms: C_74  and  C_75
REMARK   37  A    between atoms: C_77  and  C_83
REMARK   38  A    between atoms: C_79  and  O_81
REMARK   39  A    between atoms: O_81  and  C_82
REMARK   40  A    between atoms: O_90  and  C_91
REMARK                            x       y       z     vdW  Elec       q    Type
REMARK                         _______ _______ _______ _____ _____    ______ ____
ROOT
ATOM      1  C   UNL     1     152.247 165.187 188.898  0.00  0.00    +0.113 C 
ATOM      2  O   UNL     1     151.578 164.030 188.332  0.00  0.00    -0.458 OA
ATOM      3  C   UNL     1     152.108 162.824 188.645  0.00  0.00    +0.332 C 
ATOM      4  O   UNL     1     153.059 162.606 189.375  0.00  0.00    -0.246 OA
ATOM      5  C   UNL     1     151.362 161.777 187.911  0.00  0.00    +0.023 C 
ATOM      6  C   UNL     1     151.651 160.486 188.139  0.00  0.00    -0.052 C 
ATOM      7  C   UNL     1     151.077 159.339 187.446  0.00  0.00    -0.054 C 
ATOM      8  C   UNL     1     149.814 159.334 186.977  0.00  0.00    -0.079 C 
ATOM      9  C   UNL     1     149.113 158.175 186.312  0.00  0.00    -0.008 C 
ATOM     10  C   UNL     1     148.760 158.415 184.829  0.00  0.00    +0.061 C 
ATOM     11  C   UNL     1     150.001 158.416 183.923  0.00  0.00    +0.003 C 
ATOM     12  C   UNL     1     149.689 158.425 182.411  0.00  0.00    +0.080 C 
ATOM     13  O   UNL     1     150.771 159.036 181.674  0.00  0.00    -0.369 OA
ATOM     14  C   UNL     1     151.903 158.169 181.469  0.00  0.00    +0.065 C 
ATOM     15  C   UNL     1     153.000 159.021 180.804  0.00  0.00    +0.000 C 
ATOM     16  C   UNL     1     154.267 158.241 180.387  0.00  0.00    +0.066 C 
ATOM     17  C   UNL     1     155.459 159.170 179.969  0.00  0.00    +0.009 C 
ATOM     18  C   UNL     1     155.880 160.186 181.060  0.00  0.00    +0.063 C 
ATOM     19  C   UNL     1     157.112 161.040 180.666  0.00  0.00    -0.000 C 
ATOM     20  C   UNL     1     157.568 161.884 181.866  0.00  0.00    +0.064 C 
ATOM     21  C   UNL     1     158.386 163.146 181.484  0.00  0.00    +0.020 C 
ATOM     22  C   UNL     1     158.486 164.173 182.656  0.00  0.00    +0.113 C 
ATOM     23  O   UNL     1     159.182 163.457 183.714  0.00  0.00    -0.458 OA
ATOM     24  C   UNL     1     160.159 164.065 184.420  0.00  0.00    +0.332 C 
ATOM     25  O   UNL     1     160.455 165.260 184.386  0.00  0.00    -0.246 OA
ATOM     26  C   UNL     1     160.867 163.097 185.286  0.00  0.00    +0.023 C 
ATOM     27  C   UNL     1     160.479 161.815 185.445  0.00  0.00    -0.052 C 
ATOM     28  C   UNL     1     161.096 160.792 186.286  0.00  0.00    -0.054 C 
ATOM     29  C   UNL     1     160.481 159.595 186.380  0.00  0.00    -0.079 C 
ATOM     30  C   UNL     1     160.859 158.417 187.231  0.00  0.00    -0.008 C 
ATOM     31  C   UNL     1     159.714 157.782 188.046  0.00  0.00    +0.061 C 
ATOM     32  C   UNL     1     159.058 158.666 189.127  0.00  0.00    +0.003 C 
ATOM     33  C   UNL     1     157.882 159.602 188.780  0.00  0.00    +0.080 C 
ATOM     34  O   UNL     1     158.344 160.713 188.007  0.00  0.00    -0.369 OA
ATOM     35  C   UNL     1     157.317 161.569 187.493  0.00  0.00    +0.065 C 
ATOM     36  C   UNL     1     156.565 162.351 188.584  0.00  0.00    +0.000 C 
ATOM     37  C   UNL     1     157.470 163.408 189.261  0.00  0.00    +0.066 C 
ATOM     38  C   UNL     1     156.625 164.571 189.855  0.00  0.00    +0.009 C 
ATOM     39  C   UNL     1     156.250 165.646 188.792  0.00  0.00    +0.063 C 
ATOM     40  C   UNL     1     155.078 166.548 189.261  0.00  0.00    -0.000 C 
ATOM     41  C   UNL     1     154.039 166.964 188.211  0.00  0.00    +0.064 C 
ATOM     42  C   UNL     1     153.063 165.853 187.746  0.00  0.00    +0.020 C 
ATOM     43  C   UNL     1     156.385 160.775 186.561  0.00  0.00    -0.008 C 
ATOM     44  C   UNL     1     156.028 159.427 187.108  0.00  0.00    -0.083 C 
ATOM     45  C   UNL     1     156.713 158.907 188.130  0.00  0.00    -0.059 C 
ATOM     46  C   UNL     1     151.501 156.963 180.607  0.00  0.00    -0.008 C 
ATOM     47  C   UNL     1     150.200 156.371 181.055  0.00  0.00    -0.083 C 
ATOM     48  C   UNL     1     149.377 157.052 181.861  0.00  0.00    -0.059 C 
ATOM     49  H   UNL     1     152.989 164.853 189.621  0.00  0.00    +0.074 HD
ATOM     50  H   UNL     1     150.631 162.105 187.188  0.00  0.00    +0.069 HD
ATOM     51  H   UNL     1     152.421 160.242 188.870  0.00  0.00    +0.062 HD
ATOM     52  H   UNL     1     149.185 160.212 187.118  0.00  0.00    +0.058 HD
ATOM     53  H   UNL     1     148.188 157.992 186.874  0.00  0.00    +0.033 HD
ATOM     54  H   UNL     1     149.673 157.240 186.402  0.00  0.00    +0.033 HD
ATOM     55  H   UNL     1     148.240 159.370 184.726  0.00  0.00    +0.060 HD
ATOM     56  H   UNL     1     150.621 159.287 184.167  0.00  0.00    +0.032 HD
ATOM     57  H   UNL     1     150.620 157.540 184.148  0.00  0.00    +0.032 HD
ATOM     58  H   UNL     1     148.825 159.071 182.226  0.00  0.00    +0.064 HD
ATOM     59  H   UNL     1     152.268 157.835 182.448  0.00  0.00    +0.060 HD
ATOM     60  H   UNL     1     152.588 159.540 179.931  0.00  0.00    +0.032 HD
ATOM     61  H   UNL     1     153.253 159.809 181.524  0.00  0.00    +0.032 HD
ATOM     62  H   UNL     1     154.003 157.627 179.514  0.00  0.00    +0.060 HD
ATOM     63  H   UNL     1     156.322 158.519 179.795  0.00  0.00    +0.035 HD
ATOM     64  H   UNL     1     155.059 160.890 181.243  0.00  0.00    +0.060 HD
ATOM     65  H   UNL     1     156.849 161.694 179.825  0.00  0.00    +0.032 HD
ATOM     66  H   UNL     1     157.925 160.381 180.346  0.00  0.00    +0.032 HD
ATOM     67  H   UNL     1     156.668 162.193 182.397  0.00  0.00    +0.060 HD
ATOM     68  H   UNL     1     157.867 163.618 180.645  0.00  0.00    +0.036 HD
ATOM     69  H   UNL     1     159.094 165.026 182.327  0.00  0.00    +0.074 HD
ATOM     70  H   UNL     1     161.718 163.513 185.811  0.00  0.00    +0.069 HD
ATOM     71  H   UNL     1     159.579 161.487 184.925  0.00  0.00    +0.062 HD
ATOM     72  H   UNL     1     159.561 159.442 185.811  0.00  0.00    +0.058 HD
ATOM     73  H   UNL     1     161.259 157.652 186.551  0.00  0.00    +0.033 HD
ATOM     74  H   UNL     1     161.661 158.668 187.928  0.00  0.00    +0.033 HD
ATOM     75  H   UNL     1     160.197 156.968 188.600  0.00  0.00    +0.060 HD
ATOM     76  H   UNL     1     159.845 159.264 189.604  0.00  0.00    +0.032 HD
ATOM     77  H   UNL     1     158.683 157.985 189.898  0.00  0.00    +0.032 HD
ATOM     78  H   UNL     1     157.536 159.999 189.739  0.00  0.00    +0.064 HD
ATOM     79  H   UNL     1     157.826 162.305 186.857  0.00  0.00    +0.060 HD
ATOM     80  H   UNL     1     156.160 161.674 189.343  0.00  0.00    +0.032 HD
ATOM     81  H   UNL     1     155.697 162.829 188.113  0.00  0.00    +0.032 HD
ATOM     82  H   UNL     1     158.184 163.826 188.539  0.00  0.00    +0.060 HD
ATOM     83  H   UNL     1     155.703 164.127 190.251  0.00  0.00    +0.035 HD
ATOM     84  H   UNL     1     157.128 166.288 188.636  0.00  0.00    +0.060 HD
ATOM     85  H   UNL     1     155.537 167.467 189.658  0.00  0.00    +0.032 HD
ATOM     86  H   UNL     1     154.580 166.106 190.126  0.00  0.00    +0.032 HD
ATOM     87  H   UNL     1     153.444 167.791 188.610  0.00  0.00    +0.060 HD
ATOM     88  H   UNL     1     153.653 165.042 187.296  0.00  0.00    +0.036 HD
ATOM     89  H   UNL     1     155.473 161.345 186.349  0.00  0.00    +0.033 HD
ATOM     90  H   UNL     1     156.894 160.601 185.604  0.00  0.00    +0.033 HD
ATOM     91  H   UNL     1     155.231 158.869 186.628  0.00  0.00    +0.057 HD
ATOM     92  H   UNL     1     156.442 157.923 188.514  0.00  0.00    +0.059 HD
ATOM     93  H   UNL     1     151.399 157.255 179.557  0.00  0.00    +0.033 HD
ATOM     94  H   UNL     1     152.281 156.194 180.659  0.00  0.00    +0.033 HD
ATOM     95  H   UNL     1     149.929 155.388 180.692  0.00  0.00    +0.057 HD
ATOM     96  H   UNL     1     148.437 156.600 182.165  0.00  0.00    +0.059 HD
ENDROOT
BRANCH  28  97
ATOM     97  C   UNL     1     162.370 161.152 187.008  0.00  0.00    -0.040 C 
ATOM     98  H   UNL     1     163.123 161.505 186.296  0.00  0.00    +0.028 HD
ATOM     99  H   UNL     1     162.831 160.308 187.530  0.00  0.00    +0.028 HD
ATOM    100  H   UNL     1     162.190 161.936 187.751  0.00  0.00    +0.028 HD
ENDBRANCH  28  97
BRANCH  21 101
ATOM    101  C   UNL     1     159.792 162.801 180.974  0.00  0.00    -0.057 C 
ATOM    102  H   UNL     1     160.116 163.503 180.202  0.00  0.00    +0.023 HD
ATOM    103  H   UNL     1     160.514 162.854 181.792  0.00  0.00    +0.023 HD
ATOM    104  H   UNL     1     159.850 161.793 180.554  0.00  0.00    +0.023 HD
ENDBRANCH  21 101
BRANCH  42 105
ATOM    105  C   UNL     1     152.203 166.352 186.573  0.00  0.00    -0.057 C 
ATOM    106  H   UNL     1     152.658 167.212 186.078  0.00  0.00    +0.023 HD
ATOM    107  H   UNL     1     151.188 166.607 186.889  0.00  0.00    +0.023 HD
ATOM    108  H   UNL     1     152.119 165.571 185.814  0.00  0.00    +0.023 HD
ENDBRANCH  42 105
BRANCH  17 109
ATOM    109  C   UNL     1     155.155 159.870 178.640  0.00  0.00    -0.058 C 
ATOM    110  H   UNL     1     155.936 160.582 178.377  0.00  0.00    +0.023 HD
ATOM    111  H   UNL     1     154.221 160.437 178.711  0.00  0.00    +0.023 HD
ATOM    112  H   UNL     1     155.049 159.157 177.822  0.00  0.00    +0.023 HD
ENDBRANCH  17 109
BRANCH  38 113
ATOM    113  C   UNL     1     157.315 165.273 191.039  0.00  0.00    -0.058 C 
ATOM    114  H   UNL     1     156.915 164.946 192.006  0.00  0.00    +0.023 HD
ATOM    115  H   UNL     1     158.398 165.071 191.035  0.00  0.00    +0.023 HD
ATOM    116  H   UNL     1     157.181 166.357 190.992  0.00  0.00    +0.023 HD
ENDBRANCH  38 113
BRANCH   7 117
ATOM    117  C   UNL     1     152.001 158.154 187.336  0.00  0.00    -0.040 C 
ATOM    118  H   UNL     1     152.621 158.072 188.233  0.00  0.00    +0.028 HD
ATOM    119  H   UNL     1     152.667 158.246 186.473  0.00  0.00    +0.028 HD
ATOM    120  H   UNL     1     151.452 157.215 187.204  0.00  0.00    +0.028 HD
ENDBRANCH   7 117
BRANCH   1 121
ATOM    121  C   UNL     1     151.234 166.065 189.689  0.00  0.00    +0.020 C 
ATOM    122  H   UNL     1     151.400 167.115 189.428  0.00  0.00    +0.036 HD
BRANCH 121 123
ATOM    123  C   UNL     1     149.760 165.767 189.354  0.00  0.00    -0.057 C 
ATOM    124  H   UNL     1     149.594 164.719 189.094  0.00  0.00    +0.023 HD
ATOM    125  H   UNL     1     149.107 166.016 190.196  0.00  0.00    +0.023 HD
ATOM    126  H   UNL     1     149.411 166.393 188.530  0.00  0.00    +0.023 HD
ENDBRANCH 121 123
BRANCH 121 127
ATOM    127  C   UNL     1     151.408 165.937 191.240  0.00  0.00    +0.064 C 
ATOM    128  H   UNL     1     150.484 165.516 191.659  0.00  0.00    +0.060 HD
BRANCH 127 129
ATOM    129  C   UNL     1     151.690 167.265 192.001  0.00  0.00    -0.017 C 
ATOM    130  H   UNL     1     150.893 167.444 192.729  0.00  0.00    +0.032 HD
BRANCH 129 131
ATOM    131  C   UNL     1     153.024 167.210 192.751  0.00  0.00    -0.060 C 
ATOM    132  H   UNL     1     153.882 167.194 192.073  0.00  0.00    +0.023 HD
ATOM    133  H   UNL     1     153.139 168.072 193.419  0.00  0.00    +0.023 HD
ATOM    134  H   UNL     1     153.090 166.302 193.360  0.00  0.00    +0.023 HD
ENDBRANCH 129 131
BRANCH 129 135
ATOM    135  C   UNL     1     151.723 168.507 191.073  0.00  0.00    -0.046 C 
ATOM    136  H   UNL     1     152.703 168.530 190.581  0.00  0.00    +0.027 HD
ATOM    137  H   UNL     1     150.980 168.406 190.272  0.00  0.00    +0.027 HD
BRANCH 135 138
ATOM    138  C   UNL     1     151.507 169.844 191.794  0.00  0.00    -0.026 C 
ATOM    139  H   UNL     1     152.325 170.021 192.499  0.00  0.00    +0.029 HD
ATOM    140  H   UNL     1     151.540 170.656 191.057  0.00  0.00    +0.029 HD
BRANCH 138 143
ATOM    141  C   UNL     1     148.646 169.801 190.722  0.00  0.00    +0.059 C 
ATOM    142  O   UNL     1     149.134 169.178 191.916  0.00  0.00    -0.373 OA
ATOM    143  C   UNL     1     150.187 169.884 192.582  0.00  0.00    +0.061 C 
ATOM    144  C   UNL     1     149.738 171.308 192.916  0.00  0.00    -0.000 C 
ATOM    145  C   UNL     1     149.220 172.043 191.682  0.00  0.00    +0.063 C 
ATOM    146  C   UNL     1     148.134 171.206 191.012  0.00  0.00    -0.000 C 
ATOM    147  H   UNL     1     149.450 169.830 189.980  0.00  0.00    +0.059 HD
ATOM    148  H   UNL     1     150.352 169.352 193.528  0.00  0.00    +0.060 HD
ATOM    149  H   UNL     1     148.928 171.259 193.659  0.00  0.00    +0.032 HD
ATOM    150  H   UNL     1     150.547 171.873 193.391  0.00  0.00    +0.032 HD
ATOM    151  H   UNL     1     150.052 172.212 190.987  0.00  0.00    +0.060 HD
ATOM    152  H   UNL     1     147.788 171.682 190.086  0.00  0.00    +0.032 HD
ATOM    153  H   UNL     1     147.261 171.163 191.680  0.00  0.00    +0.032 HD
BRANCH 141 154
ATOM    154  C   UNL     1     147.537 168.916 190.174  0.00  0.00    -0.039 C 
ATOM    155  H   UNL     1     147.940 168.035 189.665  0.00  0.00    +0.025 HD
ATOM    156  H   UNL     1     146.878 168.581 190.983  0.00  0.00    +0.025 HD
ATOM    157  H   UNL     1     146.907 169.471 189.469  0.00  0.00    +0.025 HD
ENDBRANCH 141 154
BRANCH 145 158
ATOM    158  O   UNL     1     148.728 173.314 192.118  0.00  0.00    -0.380 OA
BRANCH 158 159
ATOM    159  C   UNL     1     147.380 173.271 192.572  0.00  0.00    +0.037 C 
ATOM    160  H   UNL     1     146.747 172.997 191.725  0.00  0.00    +0.052 HD
ATOM    161  H   UNL     1     147.064 174.251 192.931  0.00  0.00    +0.052 HD
ATOM    162  H   UNL     1     147.246 172.519 193.355  0.00  0.00    +0.052 HD
ENDBRANCH 158 159
ENDBRANCH 145 158
ENDBRANCH 138 143
ENDBRANCH 135 138
ENDBRANCH 129 135
ENDBRANCH 127 129
BRANCH 127 163
ATOM    163  O   UNL     1     152.445 165.000 191.524  0.00  0.00    -0.391 OA
ATOM    164  H   UNL     1     153.101 165.437 192.092  0.00  0.00    +0.210 HD
ENDBRANCH 127 163
ENDBRANCH 121 127
ENDBRANCH   1 121
BRANCH  41 165
ATOM    165  O   UNL     1     154.750 167.474 187.072  0.00  0.00    -0.391 OA
ATOM    166  H   UNL     1     155.239 166.729 186.680  0.00  0.00    +0.210 HD
ENDBRANCH  41 165
BRANCH  39 167
ATOM    167  O   UNL     1     155.995 165.057 187.531  0.00  0.00    -0.391 OA
ATOM    168  H   UNL     1     156.027 164.084 187.653  0.00  0.00    +0.210 HD
ENDBRANCH  39 167
BRANCH  31 169
ATOM    169  O   UNL     1     158.751 157.122 187.230  0.00  0.00    -0.391 OA
ATOM    170  H   UNL     1     158.020 157.740 187.051  0.00  0.00    +0.210 HD
ENDBRANCH  31 169
BRANCH  22 171
ATOM    171  C   UNL     1     157.119 164.700 183.205  0.00  0.00    +0.020 C 
ATOM    172  H   UNL     1     156.380 164.555 182.414  0.00  0.00    +0.036 HD
BRANCH 171 173
ATOM    173  C   UNL     1     156.602 163.814 184.355  0.00  0.00    -0.057 C 
ATOM    174  H   UNL     1     155.579 163.472 184.157  0.00  0.00    +0.023 HD
ATOM    175  H   UNL     1     157.225 162.920 184.475  0.00  0.00    +0.023 HD
ATOM    176  H   UNL     1     156.620 164.345 185.312  0.00  0.00    +0.023 HD
ENDBRANCH 171 173
BRANCH 171 177
ATOM    177  C   UNL     1     157.068 166.190 183.691  0.00  0.00    +0.064 C 
ATOM    178  H   UNL     1     156.802 166.208 184.758  0.00  0.00    +0.060 HD
BRANCH 177 179
ATOM    179  O   UNL     1     158.359 166.792 183.623  0.00  0.00    -0.391 OA
ATOM    180  H   UNL     1     158.871 166.320 182.942  0.00  0.00    +0.210 HD
ENDBRANCH 177 179
BRANCH 177 181
ATOM    181  C   UNL     1     156.030 167.082 182.924  0.00  0.00    -0.017 C 
ATOM    182  H   UNL     1     156.487 167.391 181.973  0.00  0.00    +0.032 HD
BRANCH 181 183
ATOM    183  C   UNL     1     154.738 166.302 182.627  0.00  0.00    -0.060 C 
ATOM    184  H   UNL     1     154.676 166.090 181.554  0.00  0.00    +0.023 HD
ATOM    185  H   UNL     1     153.836 166.844 182.920  0.00  0.00    +0.023 HD
ATOM    186  H   UNL     1     154.700 165.359 183.176  0.00  0.00    +0.023 HD
ENDBRANCH 181 183
BRANCH 181 187
ATOM    187  C   UNL     1     155.698 168.377 183.724  0.00  0.00    -0.046 C 
ATOM    188  H   UNL     1     155.888 168.200 184.785  0.00  0.00    +0.027 HD
ATOM    189  H   UNL     1     154.626 168.578 183.607  0.00  0.00    +0.027 HD
BRANCH 187 190
ATOM    190  C   UNL     1     156.499 169.619 183.284  0.00  0.00    -0.026 C 
ATOM    191  H   UNL     1     155.829 170.275 182.721  0.00  0.00    +0.029 HD
ATOM    192  H   UNL     1     157.289 169.299 182.594  0.00  0.00    +0.029 HD
BRANCH 190 193
ATOM    193  C   UNL     1     157.126 170.512 184.377  0.00  0.00    +0.061 C 
ATOM    194  O   UNL     1     156.603 171.841 184.386  0.00  0.00    -0.373 OA
ATOM    195  C   UNL     1     157.230 172.778 183.520  0.00  0.00    +0.059 C 
ATOM    196  C   UNL     1     158.729 172.857 183.771  0.00  0.00    -0.000 C 
ATOM    197  C   UNL     1     159.367 171.472 183.615  0.00  0.00    +0.063 C 
ATOM    198  C   UNL     1     158.648 170.471 184.515  0.00  0.00    -0.000 C 
ATOM    199  H   UNL     1     156.739 170.086 185.313  0.00  0.00    +0.060 HD
ATOM    200  H   UNL     1     157.028 172.495 182.481  0.00  0.00    +0.059 HD
ATOM    201  H   UNL     1     159.190 173.570 183.079  0.00  0.00    +0.032 HD
ATOM    202  H   UNL     1     158.939 173.224 184.782  0.00  0.00    +0.032 HD
ATOM    203  H   UNL     1     159.301 171.156 182.571  0.00  0.00    +0.060 HD
ATOM    204  H   UNL     1     158.899 170.733 185.553  0.00  0.00    +0.032 HD
ATOM    205  H   UNL     1     159.038 169.457 184.367  0.00  0.00    +0.032 HD
BRANCH 195 206
ATOM    206  C   UNL     1     156.585 174.135 183.774  0.00  0.00    -0.039 C 
ATOM    207  H   UNL     1     157.215 174.943 183.400  0.00  0.00    +0.025 HD
ATOM    208  H   UNL     1     155.610 174.199 183.285  0.00  0.00    +0.025 HD
ATOM    209  H   UNL     1     156.413 174.295 184.841  0.00  0.00    +0.025 HD
ENDBRANCH 195 206
BRANCH 197 210
ATOM    210  O   UNL     1     160.751 171.450 183.987  0.00  0.00    -0.380 OA
BRANCH 210 211
ATOM    211  C   UNL     1     161.475 172.608 183.601  0.00  0.00    +0.037 C 
ATOM    212  H   UNL     1     162.040 172.409 182.689  0.00  0.00    +0.052 HD
ATOM    213  H   UNL     1     160.758 173.403 183.380  0.00  0.00    +0.052 HD
ATOM    214  H   UNL     1     162.140 172.947 184.397  0.00  0.00    +0.052 HD
ENDBRANCH 210 211
ENDBRANCH 197 210
ENDBRANCH 190 193
ENDBRANCH 187 190
ENDBRANCH 181 187
ENDBRANCH 177 181
ENDBRANCH 171 177
ENDBRANCH  22 171
BRANCH  20 215
ATOM    215  O   UNL     1     158.276 161.000 182.747  0.00  0.00    -0.391 OA
ATOM    216  H   UNL     1     158.140 161.296 183.663  0.00  0.00    +0.210 HD
ENDBRANCH  20 215
BRANCH  18 217
ATOM    217  O   UNL     1     156.111 159.490 182.281  0.00  0.00    -0.391 OA
ATOM    218  H   UNL     1     155.268 159.121 182.623  0.00  0.00    +0.210 HD
ENDBRANCH  18 217
BRANCH  10 219
ATOM    219  O   UNL     1     147.842 157.395 184.431  0.00  0.00    -0.391 OA
ATOM    220  H   UNL     1     147.990 157.213 183.486  0.00  0.00    +0.210 HD
ENDBRANCH  10 219
BRANCH  37 221
ATOM    221  O   UNL     1     158.168 162.742 190.326  0.00  0.00    -0.379 OA
BRANCH 221 222
ATOM    222  C   UNL     1     159.580 162.802 190.170  0.00  0.00    +0.037 C 
ATOM    223  H   UNL     1     160.033 163.370 190.990  0.00  0.00    +0.052 HD
ATOM    224  H   UNL     1     159.853 163.255 189.213  0.00  0.00    +0.052 HD
ATOM    225  H   UNL     1     159.979 161.782 190.195  0.00  0.00    +0.052 HD
ENDBRANCH 221 222
ENDBRANCH  37 221
BRANCH  16 226
ATOM    226  O   UNL     1     154.591 157.339 181.452  0.00  0.00    -0.379 OA
BRANCH 226 227
ATOM    227  C   UNL     1     155.333 156.194 181.058  0.00  0.00    +0.037 C 
ATOM    228  H   UNL     1     154.947 155.862 180.091  0.00  0.00    +0.052 HD
ATOM    229  H   UNL     1     156.395 156.434 180.937  0.00  0.00    +0.052 HD
ATOM    230  H   UNL     1     155.205 155.373 181.769  0.00  0.00    +0.052 HD
ENDBRANCH 226 227
ENDBRANCH  16 226
TORSDOF 40
ENDMDL
MODEL 8
REMARK VINA RESULT:      -4.7      1.752      3.268
REMARK  Name = Swinholide A_conf2
REMARK  40 active torsions:
REMARK  status: ('A' for Active; 'I' for Inactive)
REMARK    1  A    between atoms: C_1  and  C_2
REMARK    2  A    between atoms: C_4  and  C_10
REMARK    3  A    between atoms: C_6  and  O_8
REMARK    4  A    between atoms: O_8  and  C_9
REMARK    5  A    between atoms: C_10  and  C_11
REMARK    6  A    between atoms: C_11  and  C_12
REMARK    7  A    between atoms: C_12  and  C_13
REMARK    8  A    between atoms: C_12  and  C_98
REMARK    9  A    between atoms: C_13  and  O_14
REMARK   10  A    between atoms: C_13  and  C_15
REMARK   11  A    between atoms: C_15  and  C_16
REMARK   12  A    between atoms: C_15  and  C_97
REMARK   13  A    between atoms: C_22  and  C_96
REMARK   14  A    between atoms: C_25  and  O_95
REMARK   15  A    between atoms: C_31  and  O_90
REMARK   16  A    between atoms: C_32  and  C_89
REMARK   17  A    between atoms: C_33  and  O_88
REMARK   18  A    between atoms: C_35  and  O_87
REMARK   19  A    between atoms: C_36  and  C_86
REMARK   20  A    between atoms: C_37  and  C_69
REMARK   21  A    between atoms: C_43  and  C_68
REMARK   22  A    between atoms: C_46  and  O_67
REMARK   23  A    between atoms: C_52  and  O_62
REMARK   24  A    between atoms: C_53  and  C_61
REMARK   25  A    between atoms: C_54  and  O_60
REMARK   26  A    between atoms: C_56  and  O_59
REMARK   27  A    between atoms: C_57  and  C_58
REMARK   28  A    between atoms: O_62  and  C_63
REMARK   29  A    between atoms: C_69  and  C_70
REMARK   30  A    between atoms: C_69  and  C_85
REMARK   31  A    between atoms: C_70  and  O_71
REMARK   32  A    between atoms: C_70  and  C_72
REMARK   33  A    between atoms: C_72  and  C_73
REMARK   34  A    between atoms: C_72  and  C_84
REMARK   35  A    between atoms: C_73  and  C_74
REMARK   36  A    between atoms: C_74  and  C_75
REMARK   37  A    between atoms: C_77  and  C_83
REMARK   38  A    between atoms: C_79  and  O_81
REMARK   39  A    between atoms: O_81  and  C_82
REMARK   40  A    between atoms: O_90  and  C_91
REMARK                            x       y       z     vdW  Elec       q    Type
REMARK                         _______ _______ _______ _____ _____    ______ ____
ROOT
ATOM      1  C   UNL     1     159.705 169.349 182.965  0.00  0.00    +0.113 C 
ATOM      2  O   UNL     1     160.543 168.171 182.831  0.00  0.00    -0.458 OA
ATOM      3  C   UNL     1     160.175 167.284 181.875  0.00  0.00    +0.332 C 
ATOM      4  O   UNL     1     159.243 167.387 181.098  0.00  0.00    -0.246 OA
ATOM      5  C   UNL     1     161.078 166.114 181.946  0.00  0.00    +0.023 C 
ATOM      6  C   UNL     1     160.964 165.143 181.028  0.00  0.00    -0.052 C 
ATOM      7  C   UNL     1     161.709 163.889 181.000  0.00  0.00    -0.054 C 
ATOM      8  C   UNL     1     162.974 163.789 181.454  0.00  0.00    -0.079 C 
ATOM      9  C   UNL     1     163.846 162.560 181.403  0.00  0.00    -0.008 C 
ATOM     10  C   UNL     1     164.205 161.980 182.787  0.00  0.00    +0.061 C 
ATOM     11  C   UNL     1     163.001 161.317 183.476  0.00  0.00    +0.003 C 
ATOM     12  C   UNL     1     163.353 160.526 184.754  0.00  0.00    +0.080 C 
ATOM     13  O   UNL     1     162.218 160.478 185.648  0.00  0.00    -0.369 OA
ATOM     14  C   UNL     1     161.222 159.505 185.279  0.00  0.00    +0.065 C 
ATOM     15  C   UNL     1     160.038 159.694 186.245  0.00  0.00    +0.000 C 
ATOM     16  C   UNL     1     158.902 158.657 186.094  0.00  0.00    +0.066 C 
ATOM     17  C   UNL     1     157.607 159.033 186.891  0.00  0.00    +0.009 C 
ATOM     18  C   UNL     1     157.019 160.418 186.524  0.00  0.00    +0.063 C 
ATOM     19  C   UNL     1     155.693 160.741 187.258  0.00  0.00    -0.000 C 
ATOM     20  C   UNL     1     155.091 162.041 186.703  0.00  0.00    +0.064 C 
ATOM     21  C   UNL     1     154.119 162.760 187.675  0.00  0.00    +0.020 C 
ATOM     22  C   UNL     1     153.845 164.242 187.264  0.00  0.00    +0.113 C 
ATOM     23  O   UNL     1     153.224 164.149 185.951  0.00  0.00    -0.458 OA
ATOM     24  C   UNL     1     152.153 164.913 185.649  0.00  0.00    +0.332 C 
ATOM     25  O   UNL     1     151.697 165.838 186.322  0.00  0.00    -0.246 OA
ATOM     26  C   UNL     1     151.561 164.506 184.356  0.00  0.00    +0.023 C 
ATOM     27  C   UNL     1     152.117 163.592 183.535  0.00  0.00    -0.052 C 
ATOM     28  C   UNL     1     151.622 163.138 182.238  0.00  0.00    -0.054 C 
ATOM     29  C   UNL     1     152.394 162.286 181.530  0.00  0.00    -0.079 C 
ATOM     30  C   UNL     1     152.157 161.741 180.151  0.00  0.00    -0.008 C 
ATOM     31  C   UNL     1     153.355 161.820 179.183  0.00  0.00    +0.061 C 
ATOM     32  C   UNL     1     153.852 163.232 178.808  0.00  0.00    +0.003 C 
ATOM     33  C   UNL     1     154.898 163.961 179.676  0.00  0.00    +0.080 C 
ATOM     34  O   UNL     1     154.309 164.386 180.909  0.00  0.00    -0.369 OA
ATOM     35  C   UNL     1     155.223 164.937 181.863  0.00  0.00    +0.065 C 
ATOM     36  C   UNL     1     155.830 166.283 181.429  0.00  0.00    +0.000 C 
ATOM     37  C   UNL     1     154.768 167.410 181.402  0.00  0.00    +0.066 C 
ATOM     38  C   UNL     1     155.428 168.805 181.596  0.00  0.00    +0.009 C 
ATOM     39  C   UNL     1     155.682 169.147 183.095  0.00  0.00    +0.063 C 
ATOM     40  C   UNL     1     156.705 170.301 183.266  0.00  0.00    -0.000 C 
ATOM     41  C   UNL     1     157.707 170.195 184.423  0.00  0.00    +0.064 C 
ATOM     42  C   UNL     1     158.838 169.151 184.247  0.00  0.00    +0.020 C 
ATOM     43  C   UNL     1     156.281 163.889 182.249  0.00  0.00    -0.008 C 
ATOM     44  C   UNL     1     156.805 163.131 181.067  0.00  0.00    -0.083 C 
ATOM     45  C   UNL     1     156.169 163.181 179.894  0.00  0.00    -0.059 C 
ATOM     46  C   UNL     1     161.810 158.088 185.350  0.00  0.00    -0.008 C 
ATOM     47  C   UNL     1     163.167 158.019 184.718  0.00  0.00    -0.083 C 
ATOM     48  C   UNL     1     163.865 159.133 184.469  0.00  0.00    -0.059 C 
ATOM     49  H   UNL     1     158.996 169.379 182.139  0.00  0.00    +0.074 HD
ATOM     50  H   UNL     1     161.778 166.077 182.768  0.00  0.00    +0.069 HD
ATOM     51  H   UNL     1     160.214 165.247 180.244  0.00  0.00    +0.062 HD
ATOM     52  H   UNL     1     163.471 164.672 181.855  0.00  0.00    +0.058 HD
ATOM     53  H   UNL     1     164.771 162.841 180.884  0.00  0.00    +0.033 HD
ATOM     54  H   UNL     1     163.418 161.769 180.781  0.00  0.00    +0.033 HD
ATOM     55  H   UNL     1     164.591 162.776 183.429  0.00  0.00    +0.060 HD
ATOM     56  H   UNL     1     162.261 162.087 183.722  0.00  0.00    +0.032 HD
ATOM     57  H   UNL     1     162.502 160.641 182.771  0.00  0.00    +0.032 HD
ATOM     58  H   UNL     1     164.124 161.067 185.311  0.00  0.00    +0.064 HD
ATOM     59  H   UNL     1     160.879 159.726 184.261  0.00  0.00    +0.060 HD
ATOM     60  H   UNL     1     160.399 159.690 187.280  0.00  0.00    +0.032 HD
ATOM     61  H   UNL     1     159.659 160.708 186.068  0.00  0.00    +0.032 HD
ATOM     62  H   UNL     1     159.274 157.702 186.493  0.00  0.00    +0.060 HD
ATOM     63  H   UNL     1     156.847 158.290 186.630  0.00  0.00    +0.035 HD
ATOM     64  H   UNL     1     157.729 161.205 186.805  0.00  0.00    +0.060 HD
ATOM     65  H   UNL     1     155.887 160.846 188.334  0.00  0.00    +0.032 HD
ATOM     66  H   UNL     1     154.987 159.917 187.117  0.00  0.00    +0.032 HD
ATOM     67  H   UNL     1     155.925 162.707 186.480  0.00  0.00    +0.060 HD
ATOM     68  H   UNL     1     154.592 162.750 188.662  0.00  0.00    +0.036 HD
ATOM     69  H   UNL     1     153.136 164.681 187.977  0.00  0.00    +0.074 HD
ATOM     70  H   UNL     1     150.646 165.029 184.105  0.00  0.00    +0.069 HD
ATOM     71  H   UNL     1     153.068 163.151 183.834  0.00  0.00    +0.062 HD
ATOM     72  H   UNL     1     153.342 161.964 181.967  0.00  0.00    +0.058 HD
ATOM     73  H   UNL     1     151.885 160.683 180.272  0.00  0.00    +0.033 HD
ATOM     74  H   UNL     1     151.309 162.229 179.668  0.00  0.00    +0.033 HD
ATOM     75  H   UNL     1     152.972 161.396 178.246  0.00  0.00    +0.060 HD
ATOM     76  H   UNL     1     152.977 163.885 178.700  0.00  0.00    +0.032 HD
ATOM     77  H   UNL     1     154.295 163.149 177.810  0.00  0.00    +0.032 HD
ATOM     78  H   UNL     1     155.158 164.865 179.116  0.00  0.00    +0.064 HD
ATOM     79  H   UNL     1     154.636 165.123 182.772  0.00  0.00    +0.060 HD
ATOM     80  H   UNL     1     156.302 166.200 180.444  0.00  0.00    +0.032 HD
ATOM     81  H   UNL     1     156.636 166.527 182.130  0.00  0.00    +0.032 HD
ATOM     82  H   UNL     1     154.025 167.259 182.196  0.00  0.00    +0.060 HD
ATOM     83  H   UNL     1     156.391 168.779 181.070  0.00  0.00    +0.035 HD
ATOM     84  H   UNL     1     154.729 169.474 183.533  0.00  0.00    +0.060 HD
ATOM     85  H   UNL     1     156.113 171.217 183.420  0.00  0.00    +0.032 HD
ATOM     86  H   UNL     1     157.234 170.483 182.328  0.00  0.00    +0.032 HD
ATOM     87  H   UNL     1     158.171 171.174 184.581  0.00  0.00    +0.060 HD
ATOM     88  H   UNL     1     158.379 168.158 184.142  0.00  0.00    +0.036 HD
ATOM     89  H   UNL     1     157.112 164.358 182.789  0.00  0.00    +0.033 HD
ATOM     90  H   UNL     1     155.828 163.149 182.921  0.00  0.00    +0.033 HD
ATOM     91  H   UNL     1     157.685 162.510 181.200  0.00  0.00    +0.057 HD
ATOM     92  H   UNL     1     156.561 162.621 179.045  0.00  0.00    +0.059 HD
ATOM     93  H   UNL     1     161.901 157.759 186.390  0.00  0.00    +0.033 HD
ATOM     94  H   UNL     1     161.143 157.384 184.840  0.00  0.00    +0.033 HD
ATOM     95  H   UNL     1     163.581 157.046 184.492  0.00  0.00    +0.057 HD
ATOM     96  H   UNL     1     164.850 159.053 184.016  0.00  0.00    +0.059 HD
ENDROOT
BRANCH  28  97
ATOM     97  C   UNL     1     150.291 163.668 181.769  0.00  0.00    -0.040 C 
ATOM     98  H   UNL     1     149.793 162.932 181.130  0.00  0.00    +0.028 HD
ATOM     99  H   UNL     1     150.369 164.577 181.166  0.00  0.00    +0.028 HD
ATOM    100  H   UNL     1     149.640 163.896 182.621  0.00  0.00    +0.028 HD
ENDBRANCH  28  97
BRANCH  21 101
ATOM    101  C   UNL     1     152.788 162.011 187.834  0.00  0.00    -0.057 C 
ATOM    102  H   UNL     1     152.754 161.462 188.778  0.00  0.00    +0.023 HD
ATOM    103  H   UNL     1     151.955 162.717 187.833  0.00  0.00    +0.023 HD
ATOM    104  H   UNL     1     152.611 161.296 187.026  0.00  0.00    +0.023 HD
ENDBRANCH  21 101
BRANCH  42 105
ATOM    105  C   UNL     1     159.655 169.022 185.545  0.00  0.00    -0.057 C 
ATOM    106  H   UNL     1     160.553 169.641 185.516  0.00  0.00    +0.023 HD
ATOM    107  H   UNL     1     159.931 167.986 185.754  0.00  0.00    +0.023 HD
ATOM    108  H   UNL     1     159.065 169.378 186.393  0.00  0.00    +0.023 HD
ENDBRANCH  42 105
BRANCH  17 109
ATOM    109  C   UNL     1     157.849 158.910 188.400  0.00  0.00    -0.058 C 
ATOM    110  H   UNL     1     157.184 159.563 188.965  0.00  0.00    +0.023 HD
ATOM    111  H   UNL     1     158.872 159.210 188.648  0.00  0.00    +0.023 HD
ATOM    112  H   UNL     1     157.708 157.888 188.750  0.00  0.00    +0.023 HD
ENDBRANCH  17 109
BRANCH  38 113
ATOM    113  C   UNL     1     154.615 169.949 180.964  0.00  0.00    -0.058 C 
ATOM    114  H   UNL     1     155.186 170.883 180.908  0.00  0.00    +0.023 HD
ATOM    115  H   UNL     1     154.299 169.684 179.942  0.00  0.00    +0.023 HD
ATOM    116  H   UNL     1     153.713 170.163 181.542  0.00  0.00    +0.023 HD
ENDBRANCH  38 113
BRANCH   7 117
ATOM    117  C   UNL     1     160.960 162.735 180.387  0.00  0.00    -0.040 C 
ATOM    118  H   UNL     1     160.047 163.090 179.902  0.00  0.00    +0.028 HD
ATOM    119  H   UNL     1     160.675 161.998 181.144  0.00  0.00    +0.028 HD
ATOM    120  H   UNL     1     161.565 162.200 179.645  0.00  0.00    +0.028 HD
ENDBRANCH   7 117
BRANCH   1 121
ATOM    121  C   UNL     1     160.565 170.641 182.846  0.00  0.00    +0.020 C 
ATOM    122  H   UNL     1     160.528 171.177 183.800  0.00  0.00    +0.036 HD
BRANCH 121 123
ATOM    123  C   UNL     1     162.056 170.372 182.564  0.00  0.00    -0.057 C 
ATOM    124  H   UNL     1     162.664 170.393 183.472  0.00  0.00    +0.023 HD
ATOM    125  H   UNL     1     162.197 169.400 182.083  0.00  0.00    +0.023 HD
ATOM    126  H   UNL     1     162.458 171.100 181.856  0.00  0.00    +0.023 HD
ENDBRANCH 121 123
BRANCH 121 127
ATOM    127  C   UNL     1     160.038 171.617 181.740  0.00  0.00    +0.064 C 
ATOM    128  H   UNL     1     160.901 172.088 181.253  0.00  0.00    +0.060 HD
BRANCH 127 129
ATOM    129  C   UNL     1     159.113 172.766 182.239  0.00  0.00    -0.017 C 
ATOM    130  H   UNL     1     158.138 172.354 182.515  0.00  0.00    +0.032 HD
BRANCH 129 131
ATOM    131  C   UNL     1     159.704 173.470 183.465  0.00  0.00    -0.060 C 
ATOM    132  H   UNL     1     160.329 172.805 184.065  0.00  0.00    +0.023 HD
ATOM    133  H   UNL     1     160.315 174.332 183.170  0.00  0.00    +0.023 HD
ATOM    134  H   UNL     1     158.908 173.832 184.125  0.00  0.00    +0.023 HD
ENDBRANCH 129 131
BRANCH 129 135
ATOM    135  C   UNL     1     158.843 173.847 181.160  0.00  0.00    -0.046 C 
ATOM    136  H   UNL     1     159.015 174.828 181.620  0.00  0.00    +0.027 HD
ATOM    137  H   UNL     1     159.568 173.759 180.342  0.00  0.00    +0.027 HD
BRANCH 135 138
ATOM    138  C   UNL     1     157.423 173.823 180.580  0.00  0.00    -0.026 C 
ATOM    139  H   UNL     1     157.454 174.056 179.512  0.00  0.00    +0.029 HD
ATOM    140  H   UNL     1     157.017 172.808 180.673  0.00  0.00    +0.029 HD
BRANCH 138 143
ATOM    141  C   UNL     1     155.667 173.445 183.053  0.00  0.00    +0.059 C 
ATOM    142  O   UNL     1     156.385 174.624 182.671  0.00  0.00    -0.373 OA
ATOM    143  C   UNL     1     156.490 174.840 181.260  0.00  0.00    +0.061 C 
ATOM    144  C   UNL     1     155.098 174.884 180.628  0.00  0.00    -0.000 C 
ATOM    145  C   UNL     1     154.278 173.644 180.976  0.00  0.00    +0.063 C 
ATOM    146  C   UNL     1     154.251 173.465 182.492  0.00  0.00    -0.000 C 
ATOM    147  H   UNL     1     156.210 172.564 182.694  0.00  0.00    +0.059 HD
ATOM    148  H   UNL     1     156.945 175.832 181.142  0.00  0.00    +0.060 HD
ATOM    149  H   UNL     1     154.567 175.771 181.002  0.00  0.00    +0.032 HD
ATOM    150  H   UNL     1     155.164 175.009 179.541  0.00  0.00    +0.032 HD
ATOM    151  H   UNL     1     154.729 172.766 180.499  0.00  0.00    +0.060 HD
ATOM    152  H   UNL     1     153.719 172.546 182.768  0.00  0.00    +0.032 HD
ATOM    153  H   UNL     1     153.678 174.295 182.934  0.00  0.00    +0.032 HD
BRANCH 141 154
ATOM    154  C   UNL     1     155.654 173.397 184.573  0.00  0.00    -0.039 C 
ATOM    155  H   UNL     1     154.993 172.608 184.945  0.00  0.00    +0.025 HD
ATOM    156  H   UNL     1     156.665 173.218 184.959  0.00  0.00    +0.025 HD
ATOM    157  H   UNL     1     155.327 174.357 184.990  0.00  0.00    +0.025 HD
ENDBRANCH 141 154
BRANCH 145 158
ATOM    158  O   UNL     1     152.967 173.833 180.434  0.00  0.00    -0.380 OA
BRANCH 158 159
ATOM    159  C   UNL     1     152.014 174.263 181.398  0.00  0.00    +0.037 C 
ATOM    160  H   UNL     1     151.824 173.431 182.080  0.00  0.00    +0.052 HD
ATOM    161  H   UNL     1     151.072 174.529 180.916  0.00  0.00    +0.052 HD
ATOM    162  H   UNL     1     152.391 175.106 181.985  0.00  0.00    +0.052 HD
ENDBRANCH 158 159
ENDBRANCH 145 158
ENDBRANCH 138 143
ENDBRANCH 135 138
ENDBRANCH 129 135
ENDBRANCH 127 129
BRANCH 127 163
ATOM    163  O   UNL     1     159.361 170.869 180.733  0.00  0.00    -0.391 OA
ATOM    164  H   UNL     1     158.755 170.250 181.170  0.00  0.00    +0.210 HD
ENDBRANCH 127 163
ENDBRANCH 121 127
ENDBRANCH   1 121
BRANCH  41 165
ATOM    165  O   UNL     1     156.965 169.890 185.615  0.00  0.00    -0.391 OA
ATOM    166  H   UNL     1     156.335 170.619 185.757  0.00  0.00    +0.210 HD
ENDBRANCH  41 165
BRANCH  39 167
ATOM    167  O   UNL     1     156.051 167.996 183.831  0.00  0.00    -0.391 OA
ATOM    168  H   UNL     1     156.125 168.266 184.772  0.00  0.00    +0.210 HD
ENDBRANCH  39 167
BRANCH  31 169
ATOM    169  O   UNL     1     154.422 160.950 179.547  0.00  0.00    -0.391 OA
ATOM    170  H   UNL     1     154.467 160.225 178.898  0.00  0.00    +0.210 HD
ENDBRANCH  31 169
BRANCH  22 171
ATOM    171  C   UNL     1     155.111 165.157 187.171  0.00  0.00    +0.020 C 
ATOM    172  H   UNL     1     155.982 164.501 187.214  0.00  0.00    +0.036 HD
BRANCH 171 173
ATOM    173  C   UNL     1     155.220 165.818 185.784  0.00  0.00    -0.057 C 
ATOM    174  H   UNL     1     155.970 165.312 185.166  0.00  0.00    +0.023 HD
ATOM    175  H   UNL     1     154.266 165.764 185.245  0.00  0.00    +0.023 HD
ATOM    176  H   UNL     1     155.480 166.878 185.862  0.00  0.00    +0.023 HD
ENDBRANCH 171 173
BRANCH 171 177
ATOM    177  C   UNL     1     155.260 166.285 188.250  0.00  0.00    +0.064 C 
ATOM    178  H   UNL     1     156.251 166.749 188.144  0.00  0.00    +0.060 HD
BRANCH 177 179
ATOM    179  O   UNL     1     154.332 167.341 188.013  0.00  0.00    -0.391 OA
ATOM    180  H   UNL     1     154.120 167.748 188.871  0.00  0.00    +0.210 HD
ENDBRANCH 177 179
BRANCH 177 181
ATOM    181  C   UNL     1     155.121 165.784 189.730  0.00  0.00    -0.017 C 
ATOM    182  H   UNL     1     155.105 164.685 189.715  0.00  0.00    +0.032 HD
BRANCH 181 183
ATOM    183  C   UNL     1     156.307 166.253 190.589  0.00  0.00    -0.060 C 
ATOM    184  H   UNL     1     157.146 165.560 190.468  0.00  0.00    +0.023 HD
ATOM    185  H   UNL     1     156.065 166.313 191.653  0.00  0.00    +0.023 HD
ATOM    186  H   UNL     1     156.636 167.257 190.312  0.00  0.00    +0.023 HD
ENDBRANCH 181 183
BRANCH 181 187
ATOM    187  C   UNL     1     153.781 166.261 190.365  0.00  0.00    -0.046 C 
ATOM    188  H   UNL     1     152.952 165.954 189.722  0.00  0.00    +0.027 HD
ATOM    189  H   UNL     1     153.793 167.358 190.390  0.00  0.00    +0.027 HD
BRANCH 187 190
ATOM    190  C   UNL     1     153.524 165.721 191.786  0.00  0.00    -0.026 C 
ATOM    191  H   UNL     1     154.472 165.352 192.187  0.00  0.00    +0.029 HD
ATOM    192  H   UNL     1     152.847 164.861 191.716  0.00  0.00    +0.029 HD
BRANCH 190 193
ATOM    193  C   UNL     1     152.979 166.695 192.854  0.00  0.00    +0.061 C 
ATOM    194  O   UNL     1     152.394 166.032 193.975  0.00  0.00    -0.373 OA
ATOM    195  C   UNL     1     151.021 165.680 193.860  0.00  0.00    +0.059 C 
ATOM    196  C   UNL     1     150.159 166.889 193.522  0.00  0.00    -0.000 C 
ATOM    197  C   UNL     1     150.653 167.548 192.229  0.00  0.00    +0.063 C 
ATOM    198  C   UNL     1     152.140 167.872 192.353  0.00  0.00    -0.000 C 
ATOM    199  H   UNL     1     153.887 167.147 193.278  0.00  0.00    +0.060 HD
ATOM    200  H   UNL     1     150.912 164.905 193.095  0.00  0.00    +0.059 HD
ATOM    201  H   UNL     1     149.111 166.588 193.421  0.00  0.00    +0.032 HD
ATOM    202  H   UNL     1     150.194 167.633 194.326  0.00  0.00    +0.032 HD
ATOM    203  H   UNL     1     150.484 166.871 191.388  0.00  0.00    +0.060 HD
ATOM    204  H   UNL     1     152.232 168.686 193.086  0.00  0.00    +0.032 HD
ATOM    205  H   UNL     1     152.535 168.277 191.414  0.00  0.00    +0.032 HD
BRANCH 195 206
ATOM    206  C   UNL     1     150.590 165.089 195.197  0.00  0.00    -0.039 C 
ATOM    207  H   UNL     1     151.167 164.193 195.431  0.00  0.00    +0.025 HD
ATOM    208  H   UNL     1     150.728 165.812 196.004  0.00  0.00    +0.025 HD
ATOM    209  H   UNL     1     149.530 164.826 195.188  0.00  0.00    +0.025 HD
ENDBRANCH 195 206
BRANCH 197 210
ATOM    210  O   UNL     1     149.980 168.779 191.938  0.00  0.00    -0.380 OA
BRANCH 210 211
ATOM    211  C   UNL     1     150.768 169.938 192.159  0.00  0.00    +0.037 C 
ATOM    212  H   UNL     1     151.156 169.937 193.178  0.00  0.00    +0.052 HD
ATOM    213  H   UNL     1     151.623 169.906 191.478  0.00  0.00    +0.052 HD
ATOM    214  H   UNL     1     150.200 170.850 191.966  0.00  0.00    +0.052 HD
ENDBRANCH 210 211
ENDBRANCH 197 210
ENDBRANCH 190 193
ENDBRANCH 187 190
ENDBRANCH 181 187
ENDBRANCH 177 181
ENDBRANCH 171 177
ENDBRANCH  22 171
BRANCH  20 215
ATOM    215  O   UNL     1     154.487 161.712 185.445  0.00  0.00    -0.391 OA
ATOM    216  H   UNL     1     155.035 161.043 185.000  0.00  0.00    +0.210 HD
ENDBRANCH  20 215
BRANCH  18 217
ATOM    217  O   UNL     1     156.851 160.493 185.112  0.00  0.00    -0.391 OA
ATOM    218  H   UNL     1     156.020 160.969 184.896  0.00  0.00    +0.210 HD
ENDBRANCH  18 217
BRANCH  10 219
ATOM    219  O   UNL     1     165.266 161.040 182.602  0.00  0.00    -0.391 OA
ATOM    220  H   UNL     1     164.865 160.174 182.409  0.00  0.00    +0.210 HD
ENDBRANCH  10 219
BRANCH  37 221
ATOM    221  O   UNL     1     154.139 167.362 180.112  0.00  0.00    -0.379 OA
BRANCH 221 222
ATOM    222  C   UNL     1     152.732 167.179 180.201  0.00  0.00    +0.037 C 
ATOM    223  H   UNL     1     152.410 167.174 181.248  0.00  0.00    +0.052 HD
ATOM    224  H   UNL     1     152.423 166.248 179.716  0.00  0.00    +0.052 HD
ATOM    225  H   UNL     1     152.237 168.013 179.690  0.00  0.00    +0.052 HD
ENDBRANCH 221 222
ENDBRANCH  37 221
BRANCH  16 226
ATOM    226  O   UNL     1     158.676 158.464 184.692  0.00  0.00    -0.379 OA
BRANCH 226 227
ATOM    227  C   UNL     1     158.110 157.208 184.347  0.00  0.00    +0.037 C 
ATOM    228  H   UNL     1     157.090 157.182 184.738  0.00  0.00    +0.052 HD
ATOM    229  H   UNL     1     158.061 157.082 183.259  0.00  0.00    +0.052 HD
ATOM    230  H   UNL     1     158.664 156.383 184.802  0.00  0.00    +0.052 HD
ENDBRANCH 226 227
ENDBRANCH  16 226
TORSDOF 40
ENDMDL
MODEL 9
REMARK VINA RESULT:      -4.7      5.350     10.563
REMARK  Name = Swinholide A_conf2
REMARK  40 active torsions:
REMARK  status: ('A' for Active; 'I' for Inactive)
REMARK    1  A    between atoms: C_1  and  C_2
REMARK    2  A    between atoms: C_4  and  C_10
REMARK    3  A    between atoms: C_6  and  O_8
REMARK    4  A    between atoms: O_8  and  C_9
REMARK    5  A    between atoms: C_10  and  C_11
REMARK    6  A    between atoms: C_11  and  C_12
REMARK    7  A    between atoms: C_12  and  C_13
REMARK    8  A    between atoms: C_12  and  C_98
REMARK    9  A    between atoms: C_13  and  O_14
REMARK   10  A    between atoms: C_13  and  C_15
REMARK   11  A    between atoms: C_15  and  C_16
REMARK   12  A    between atoms: C_15  and  C_97
REMARK   13  A    between atoms: C_22  and  C_96
REMARK   14  A    between atoms: C_25  and  O_95
REMARK   15  A    between atoms: C_31  and  O_90
REMARK   16  A    between atoms: C_32  and  C_89
REMARK   17  A    between atoms: C_33  and  O_88
REMARK   18  A    between atoms: C_35  and  O_87
REMARK   19  A    between atoms: C_36  and  C_86
REMARK   20  A    between atoms: C_37  and  C_69
REMARK   21  A    between atoms: C_43  and  C_68
REMARK   22  A    between atoms: C_46  and  O_67
REMARK   23  A    between atoms: C_52  and  O_62
REMARK   24  A    between atoms: C_53  and  C_61
REMARK   25  A    between atoms: C_54  and  O_60
REMARK   26  A    between atoms: C_56  and  O_59
REMARK   27  A    between atoms: C_57  and  C_58
REMARK   28  A    between atoms: O_62  and  C_63
REMARK   29  A    between atoms: C_69  and  C_70
REMARK   30  A    between atoms: C_69  and  C_85
REMARK   31  A    between atoms: C_70  and  O_71
REMARK   32  A    between atoms: C_70  and  C_72
REMARK   33  A    between atoms: C_72  and  C_73
REMARK   34  A    between atoms: C_72  and  C_84
REMARK   35  A    between atoms: C_73  and  C_74
REMARK   36  A    between atoms: C_74  and  C_75
REMARK   37  A    between atoms: C_77  and  C_83
REMARK   38  A    between atoms: C_79  and  O_81
REMARK   39  A    between atoms: O_81  and  C_82
REMARK   40  A    between atoms: O_90  and  C_91
REMARK                            x       y       z     vdW  Elec       q    Type
REMARK                         _______ _______ _______ _____ _____    ______ ____
ROOT
ATOM      1  C   UNL     1     153.539 162.549 188.030  0.00  0.00    +0.113 C 
ATOM      2  O   UNL     1     152.683 161.408 188.293  0.00  0.00    -0.458 OA
ATOM      3  C   UNL     1     152.181 160.777 187.204  0.00  0.00    +0.332 C 
ATOM      4  O   UNL     1     152.399 161.043 186.035  0.00  0.00    -0.246 OA
ATOM      5  C   UNL     1     151.264 159.708 187.659  0.00  0.00    +0.023 C 
ATOM      6  C   UNL     1     150.718 158.884 186.752  0.00  0.00    -0.052 C 
ATOM      7  C   UNL     1     149.736 157.839 187.016  0.00  0.00    -0.054 C 
ATOM      8  C   UNL     1     149.706 157.149 188.173  0.00  0.00    -0.079 C 
ATOM      9  C   UNL     1     148.777 156.010 188.510  0.00  0.00    -0.008 C 
ATOM     10  C   UNL     1     147.787 156.316 189.653  0.00  0.00    +0.061 C 
ATOM     11  C   UNL     1     146.698 157.317 189.234  0.00  0.00    +0.003 C 
ATOM     12  C   UNL     1     145.556 157.485 190.259  0.00  0.00    +0.080 C 
ATOM     13  O   UNL     1     144.957 158.795 190.139  0.00  0.00    -0.369 OA
ATOM     14  C   UNL     1     144.034 158.919 189.041  0.00  0.00    +0.065 C 
ATOM     15  C   UNL     1     143.612 160.398 188.981  0.00  0.00    +0.000 C 
ATOM     16  C   UNL     1     142.521 160.722 187.935  0.00  0.00    +0.066 C 
ATOM     17  C   UNL     1     142.312 162.259 187.711  0.00  0.00    +0.009 C 
ATOM     18  C   UNL     1     143.596 163.016 187.288  0.00  0.00    +0.063 C 
ATOM     19  C   UNL     1     143.358 164.518 186.988  0.00  0.00    -0.000 C 
ATOM     20  C   UNL     1     144.634 165.143 186.406  0.00  0.00    +0.064 C 
ATOM     21  C   UNL     1     144.728 166.682 186.582  0.00  0.00    +0.020 C 
ATOM     22  C   UNL     1     146.175 167.225 186.355  0.00  0.00    +0.113 C 
ATOM     23  O   UNL     1     146.481 166.884 184.974  0.00  0.00    -0.458 OA
ATOM     24  C   UNL     1     147.088 167.782 184.169  0.00  0.00    +0.332 C 
ATOM     25  O   UNL     1     147.580 168.859 184.509  0.00  0.00    -0.246 OA
ATOM     26  C   UNL     1     147.108 167.310 182.768  0.00  0.00    +0.023 C 
ATOM     27  C   UNL     1     146.701 166.080 182.389  0.00  0.00    -0.052 C 
ATOM     28  C   UNL     1     146.698 165.515 181.042  0.00  0.00    -0.054 C 
ATOM     29  C   UNL     1     146.345 164.221 180.900  0.00  0.00    -0.079 C 
ATOM     30  C   UNL     1     146.339 163.388 179.650  0.00  0.00    -0.008 C 
ATOM     31  C   UNL     1     147.007 162.002 179.763  0.00  0.00    +0.061 C 
ATOM     32  C   UNL     1     148.520 161.983 180.065  0.00  0.00    +0.003 C 
ATOM     33  C   UNL     1     149.040 162.014 181.517  0.00  0.00    +0.080 C 
ATOM     34  O   UNL     1     148.839 163.310 182.089  0.00  0.00    -0.369 OA
ATOM     35  C   UNL     1     149.140 163.415 183.484  0.00  0.00    +0.065 C 
ATOM     36  C   UNL     1     150.637 163.258 183.805  0.00  0.00    +0.000 C 
ATOM     37  C   UNL     1     151.468 164.449 183.268  0.00  0.00    +0.066 C 
ATOM     38  C   UNL     1     152.777 164.632 184.088  0.00  0.00    +0.009 C 
ATOM     39  C   UNL     1     152.556 165.441 185.401  0.00  0.00    +0.063 C 
ATOM     40  C   UNL     1     153.724 165.256 186.405  0.00  0.00    -0.000 C 
ATOM     41  C   UNL     1     153.370 165.155 187.895  0.00  0.00    +0.064 C 
ATOM     42  C   UNL     1     152.705 163.830 188.346  0.00  0.00    +0.020 C 
ATOM     43  C   UNL     1     148.242 162.462 184.292  0.00  0.00    -0.008 C 
ATOM     44  C   UNL     1     148.109 161.111 183.657  0.00  0.00    -0.083 C 
ATOM     45  C   UNL     1     148.488 160.917 182.392  0.00  0.00    -0.059 C 
ATOM     46  C   UNL     1     142.835 157.980 189.244  0.00  0.00    -0.008 C 
ATOM     47  C   UNL     1     143.270 156.614 189.682  0.00  0.00    -0.083 C 
ATOM     48  C   UNL     1     144.503 156.406 190.158  0.00  0.00    -0.059 C 
ATOM     49  H   UNL     1     153.753 162.599 186.964  0.00  0.00    +0.074 HD
ATOM     50  H   UNL     1     151.045 159.660 188.715  0.00  0.00    +0.069 HD
ATOM     51  H   UNL     1     150.975 159.016 185.701  0.00  0.00    +0.062 HD
ATOM     52  H   UNL     1     150.442 157.367 188.947  0.00  0.00    +0.058 HD
ATOM     53  H   UNL     1     149.404 155.157 188.800  0.00  0.00    +0.033 HD
ATOM     54  H   UNL     1     148.222 155.652 187.638  0.00  0.00    +0.033 HD
ATOM     55  H   UNL     1     148.331 156.717 190.511  0.00  0.00    +0.060 HD
ATOM     56  H   UNL     1     147.161 158.292 189.049  0.00  0.00    +0.032 HD
ATOM     57  H   UNL     1     146.266 157.007 188.275  0.00  0.00    +0.032 HD
ATOM     58  H   UNL     1     145.974 157.461 191.270  0.00  0.00    +0.064 HD
ATOM     59  H   UNL     1     144.562 158.670 188.112  0.00  0.00    +0.060 HD
ATOM     60  H   UNL     1     143.276 160.729 189.971  0.00  0.00    +0.032 HD
ATOM     61  H   UNL     1     144.525 160.968 188.772  0.00  0.00    +0.032 HD
ATOM     62  H   UNL     1     141.573 160.309 188.310  0.00  0.00    +0.060 HD
ATOM     63  H   UNL     1     141.599 162.365 186.887  0.00  0.00    +0.035 HD
ATOM     64  H   UNL     1     144.332 162.974 188.100  0.00  0.00    +0.060 HD
ATOM     65  H   UNL     1     143.075 165.035 187.915  0.00  0.00    +0.032 HD
ATOM     66  H   UNL     1     142.535 164.621 186.274  0.00  0.00    +0.032 HD
ATOM     67  H   UNL     1     145.477 164.677 186.915  0.00  0.00    +0.060 HD
ATOM     68  H   UNL     1     144.427 166.902 187.611  0.00  0.00    +0.036 HD
ATOM     69  H   UNL     1     146.165 168.316 186.471  0.00  0.00    +0.074 HD
ATOM     70  H   UNL     1     147.507 168.029 182.063  0.00  0.00    +0.069 HD
ATOM     71  H   UNL     1     146.365 165.393 183.166  0.00  0.00    +0.062 HD
ATOM     72  H   UNL     1     146.063 163.662 181.795  0.00  0.00    +0.058 HD
ATOM     73  H   UNL     1     145.286 163.238 179.376  0.00  0.00    +0.033 HD
ATOM     74  H   UNL     1     146.808 163.914 178.817  0.00  0.00    +0.033 HD
ATOM     75  H   UNL     1     146.914 161.575 178.758  0.00  0.00    +0.060 HD
ATOM     76  H   UNL     1     148.989 162.809 179.514  0.00  0.00    +0.032 HD
ATOM     77  H   UNL     1     148.912 161.061 179.625  0.00  0.00    +0.032 HD
ATOM     78  H   UNL     1     150.121 161.861 181.440  0.00  0.00    +0.064 HD
ATOM     79  H   UNL     1     148.849 164.431 183.782  0.00  0.00    +0.060 HD
ATOM     80  H   UNL     1     151.030 162.322 183.393  0.00  0.00    +0.032 HD
ATOM     81  H   UNL     1     150.738 163.174 184.893  0.00  0.00    +0.032 HD
ATOM     82  H   UNL     1     150.887 165.379 183.321  0.00  0.00    +0.060 HD
ATOM     83  H   UNL     1     153.136 163.628 184.347  0.00  0.00    +0.035 HD
ATOM     84  H   UNL     1     152.505 166.507 185.137  0.00  0.00    +0.060 HD
ATOM     85  H   UNL     1     154.382 166.130 186.277  0.00  0.00    +0.032 HD
ATOM     86  H   UNL     1     154.348 164.409 186.111  0.00  0.00    +0.032 HD
ATOM     87  H   UNL     1     154.280 165.295 188.486  0.00  0.00    +0.060 HD
ATOM     88  H   UNL     1     151.763 163.711 187.793  0.00  0.00    +0.036 HD
ATOM     89  H   UNL     1     148.613 162.357 185.318  0.00  0.00    +0.033 HD
ATOM     90  H   UNL     1     147.230 162.883 184.350  0.00  0.00    +0.033 HD
ATOM     91  H   UNL     1     147.661 160.310 184.236  0.00  0.00    +0.057 HD
ATOM     92  H   UNL     1     148.382 159.929 181.944  0.00  0.00    +0.059 HD
ATOM     93  H   UNL     1     142.154 158.380 190.001  0.00  0.00    +0.033 HD
ATOM     94  H   UNL     1     142.271 157.892 188.308  0.00  0.00    +0.033 HD
ATOM     95  H   UNL     1     142.554 155.804 189.628  0.00  0.00    +0.057 HD
ATOM     96  H   UNL     1     144.788 155.406 190.474  0.00  0.00    +0.059 HD
ENDROOT
BRANCH  28  97
ATOM     97  C   UNL     1     147.109 166.414 179.903  0.00  0.00    -0.040 C 
ATOM     98  H   UNL     1     147.168 165.843 178.971  0.00  0.00    +0.028 HD
ATOM     99  H   UNL     1     148.097 166.864 180.035  0.00  0.00    +0.028 HD
ATOM    100  H   UNL     1     146.393 167.232 179.773  0.00  0.00    +0.028 HD
ENDBRANCH  28  97
BRANCH  21 101
ATOM    101  C   UNL     1     143.742 167.437 185.681  0.00  0.00    -0.057 C 
ATOM    102  H   UNL     1     143.955 168.509 185.672  0.00  0.00    +0.023 HD
ATOM    103  H   UNL     1     143.818 167.077 184.653  0.00  0.00    +0.023 HD
ATOM    104  H   UNL     1     142.702 167.307 185.995  0.00  0.00    +0.023 HD
ENDBRANCH  21 101
BRANCH  42 105
ATOM    105  C   UNL     1     152.241 163.934 189.809  0.00  0.00    -0.057 C 
ATOM    106  H   UNL     1     151.436 164.660 189.924  0.00  0.00    +0.023 HD
ATOM    107  H   UNL     1     153.064 164.190 190.482  0.00  0.00    +0.023 HD
ATOM    108  H   UNL     1     151.838 162.974 190.141  0.00  0.00    +0.023 HD
ENDBRANCH  42 105
BRANCH  17 109
ATOM    109  C   UNL     1     141.665 162.900 188.944  0.00  0.00    -0.058 C 
ATOM    110  H   UNL     1     140.986 162.208 189.442  0.00  0.00    +0.023 HD
ATOM    111  H   UNL     1     141.072 163.772 188.654  0.00  0.00    +0.023 HD
ATOM    112  H   UNL     1     142.411 163.229 189.667  0.00  0.00    +0.023 HD
ENDBRANCH  17 109
BRANCH  38 113
ATOM    113  C   UNL     1     153.903 165.304 183.282  0.00  0.00    -0.058 C 
ATOM    114  H   UNL     1     153.554 165.677 182.312  0.00  0.00    +0.023 HD
ATOM    115  H   UNL     1     154.327 166.155 183.838  0.00  0.00    +0.023 HD
ATOM    116  H   UNL     1     154.718 164.605 183.077  0.00  0.00    +0.023 HD
ENDBRANCH  38 113
BRANCH   7 117
ATOM    117  C   UNL     1     148.788 157.575 185.875  0.00  0.00    -0.040 C 
ATOM    118  H   UNL     1     147.857 158.129 186.019  0.00  0.00    +0.028 HD
ATOM    119  H   UNL     1     148.541 156.512 185.800  0.00  0.00    +0.028 HD
ATOM    120  H   UNL     1     149.220 157.861 184.908  0.00  0.00    +0.028 HD
ENDBRANCH   7 117
BRANCH   1 121
ATOM    121  C   UNL     1     154.913 162.369 188.740  0.00  0.00    +0.020 C 
ATOM    122  H   UNL     1     154.963 163.058 189.589  0.00  0.00    +0.036 HD
BRANCH 121 123
ATOM    123  C   UNL     1     155.134 160.959 189.318  0.00  0.00    -0.057 C 
ATOM    124  H   UNL     1     154.341 160.661 190.009  0.00  0.00    +0.023 HD
ATOM    125  H   UNL     1     155.190 160.210 188.523  0.00  0.00    +0.023 HD
ATOM    126  H   UNL     1     156.094 160.894 189.836  0.00  0.00    +0.023 HD
ENDBRANCH 121 123
BRANCH 121 127
ATOM    127  C   UNL     1     156.124 162.697 187.801  0.00  0.00    +0.064 C 
ATOM    128  H   UNL     1     156.863 161.890 187.895  0.00  0.00    +0.060 HD
BRANCH 127 129
ATOM    129  C   UNL     1     156.867 164.032 188.098  0.00  0.00    -0.017 C 
ATOM    130  H   UNL     1     156.423 164.835 187.503  0.00  0.00    +0.032 HD
BRANCH 129 131
ATOM    131  C   UNL     1     156.766 164.414 189.578  0.00  0.00    -0.060 C 
ATOM    132  H   UNL     1     157.711 164.278 190.109  0.00  0.00    +0.023 HD
ATOM    133  H   UNL     1     156.461 165.461 189.696  0.00  0.00    +0.023 HD
ATOM    134  H   UNL     1     156.026 163.788 190.090  0.00  0.00    +0.023 HD
ENDBRANCH 129 131
BRANCH 129 135
ATOM    135  C   UNL     1     158.372 163.991 187.725  0.00  0.00    -0.046 C 
ATOM    136  H   UNL     1     158.946 164.249 188.623  0.00  0.00    +0.027 HD
ATOM    137  H   UNL     1     158.670 162.972 187.451  0.00  0.00    +0.027 HD
BRANCH 135 138
ATOM    138  C   UNL     1     158.772 164.954 186.599  0.00  0.00    -0.026 C 
ATOM    139  H   UNL     1     159.426 165.735 186.995  0.00  0.00    +0.029 HD
ATOM    140  H   UNL     1     159.352 164.402 185.848  0.00  0.00    +0.029 HD
BRANCH 138 143
ATOM    141  C   UNL     1     158.007 165.067 183.642  0.00  0.00    +0.059 C 
ATOM    142  O   UNL     1     157.122 164.960 184.763  0.00  0.00    -0.373 OA
ATOM    143  C   UNL     1     157.558 165.637 185.947  0.00  0.00    +0.061 C 
ATOM    144  C   UNL     1     157.801 167.118 185.648  0.00  0.00    -0.000 C 
ATOM    145  C   UNL     1     158.755 167.310 184.471  0.00  0.00    +0.063 C 
ATOM    146  C   UNL     1     158.238 166.525 183.268  0.00  0.00    -0.000 C 
ATOM    147  H   UNL     1     158.955 164.577 183.888  0.00  0.00    +0.059 HD
ATOM    148  H   UNL     1     156.723 165.569 186.656  0.00  0.00    +0.060 HD
ATOM    149  H   UNL     1     156.839 167.591 185.400  0.00  0.00    +0.032 HD
ATOM    150  H   UNL     1     158.173 167.642 186.536  0.00  0.00    +0.032 HD
ATOM    151  H   UNL     1     159.754 166.957 184.754  0.00  0.00    +0.060 HD
ATOM    152  H   UNL     1     158.938 166.595 182.426  0.00  0.00    +0.032 HD
ATOM    153  H   UNL     1     157.299 166.984 182.926  0.00  0.00    +0.032 HD
BRANCH 141 154
ATOM    154  C   UNL     1     157.372 164.300 182.492  0.00  0.00    -0.039 C 
ATOM    155  H   UNL     1     157.318 163.228 182.705  0.00  0.00    +0.025 HD
ATOM    156  H   UNL     1     156.357 164.669 182.300  0.00  0.00    +0.025 HD
ATOM    157  H   UNL     1     157.937 164.448 181.565  0.00  0.00    +0.025 HD
ENDBRANCH 141 154
BRANCH 145 158
ATOM    158  O   UNL     1     158.827 168.714 184.206  0.00  0.00    -0.380 OA
BRANCH 158 159
ATOM    159  C   UNL     1     159.959 169.342 184.795  0.00  0.00    +0.037 C 
ATOM    160  H   UNL     1     159.727 169.542 185.844  0.00  0.00    +0.052 HD
ATOM    161  H   UNL     1     160.169 170.295 184.306  0.00  0.00    +0.052 HD
ATOM    162  H   UNL     1     160.840 168.695 184.758  0.00  0.00    +0.052 HD
ENDBRANCH 158 159
ENDBRANCH 145 158
ENDBRANCH 138 143
ENDBRANCH 135 138
ENDBRANCH 129 135
ENDBRANCH 127 129
BRANCH 127 163
ATOM    163  O   UNL     1     155.686 162.691 186.444  0.00  0.00    -0.391 OA
ATOM    164  H   UNL     1     155.421 163.594 186.207  0.00  0.00    +0.210 HD
ENDBRANCH 127 163
ENDBRANCH 121 127
ENDBRANCH   1 121
BRANCH  41 165
ATOM    165  O   UNL     1     152.497 166.252 188.210  0.00  0.00    -0.391 OA
ATOM    166  H   UNL     1     152.544 166.390 189.173  0.00  0.00    +0.210 HD
ENDBRANCH  41 165
BRANCH  39 167
ATOM    167  O   UNL     1     151.302 165.145 185.984  0.00  0.00    -0.391 OA
ATOM    168  H   UNL     1     151.301 164.188 186.200  0.00  0.00    +0.210 HD
ENDBRANCH  39 167
BRANCH  31 169
ATOM    169  O   UNL     1     146.279 161.101 180.592  0.00  0.00    -0.391 OA
ATOM    170  H   UNL     1     145.361 161.420 180.665  0.00  0.00    +0.210 HD
ENDBRANCH  31 169
BRANCH  22 171
ATOM    171  C   UNL     1     147.273 166.620 187.289  0.00  0.00    +0.020 C 
ATOM    172  H   UNL     1     146.754 166.103 188.099  0.00  0.00    +0.036 HD
BRANCH 171 173
ATOM    173  C   UNL     1     148.052 165.496 186.579  0.00  0.00    -0.057 C 
ATOM    174  H   UNL     1     148.510 164.815 187.306  0.00  0.00    +0.023 HD
ATOM    175  H   UNL     1     147.388 164.895 185.946  0.00  0.00    +0.023 HD
ATOM    176  H   UNL     1     148.834 165.897 185.927  0.00  0.00    +0.023 HD
ENDBRANCH 171 173
BRANCH 171 177
ATOM    177  C   UNL     1     148.321 167.613 187.900  0.00  0.00    +0.064 C 
ATOM    178  H   UNL     1     149.331 167.293 187.604  0.00  0.00    +0.060 HD
BRANCH 177 179
ATOM    179  O   UNL     1     148.171 168.917 187.342  0.00  0.00    -0.391 OA
ATOM    180  H   UNL     1     148.015 168.815 186.387  0.00  0.00    +0.210 HD
ENDBRANCH 177 179
BRANCH 177 181
ATOM    181  C   UNL     1     148.287 167.704 189.466  0.00  0.00    -0.017 C 
ATOM    182  H   UNL     1     148.407 168.759 189.746  0.00  0.00    +0.032 HD
BRANCH 181 183
ATOM    183  C   UNL     1     146.949 167.189 190.023  0.00  0.00    -0.060 C 
ATOM    184  H   UNL     1     146.881 166.107 189.875  0.00  0.00    +0.023 HD
ATOM    185  H   UNL     1     146.082 167.654 189.546  0.00  0.00    +0.023 HD
ATOM    186  H   UNL     1     146.843 167.407 191.088  0.00  0.00    +0.023 HD
ENDBRANCH 181 183
BRANCH 181 187
ATOM    187  C   UNL     1     149.469 166.914 190.105  0.00  0.00    -0.046 C 
ATOM    188  H   UNL     1     150.313 167.593 190.251  0.00  0.00    +0.027 HD
ATOM    189  H   UNL     1     149.782 166.143 189.390  0.00  0.00    +0.027 HD
BRANCH 187 190
ATOM    190  C   UNL     1     149.134 166.252 191.456  0.00  0.00    -0.026 C 
ATOM    191  H   UNL     1     149.614 165.269 191.481  0.00  0.00    +0.029 HD
ATOM    192  H   UNL     1     148.051 166.081 191.503  0.00  0.00    +0.029 HD
BRANCH 190 193
ATOM    193  C   UNL     1     149.581 166.961 192.752  0.00  0.00    +0.061 C 
ATOM    194  O   UNL     1     150.993 167.163 192.825  0.00  0.00    -0.373 OA
ATOM    195  C   UNL     1     151.761 166.094 193.364  0.00  0.00    +0.059 C 
ATOM    196  C   UNL     1     151.267 165.690 194.746  0.00  0.00    -0.000 C 
ATOM    197  C   UNL     1     149.784 165.309 194.690  0.00  0.00    +0.063 C 
ATOM    198  C   UNL     1     148.984 166.448 194.063  0.00  0.00    -0.000 C 
ATOM    199  H   UNL     1     149.190 167.982 192.636  0.00  0.00    +0.060 HD
ATOM    200  H   UNL     1     151.720 165.242 192.677  0.00  0.00    +0.059 HD
ATOM    201  H   UNL     1     151.862 164.854 195.129  0.00  0.00    +0.032 HD
ATOM    202  H   UNL     1     151.388 166.512 195.461  0.00  0.00    +0.032 HD
ATOM    203  H   UNL     1     149.664 164.397 194.101  0.00  0.00    +0.060 HD
ATOM    204  H   UNL     1     148.989 167.279 194.783  0.00  0.00    +0.032 HD
ATOM    205  H   UNL     1     147.930 166.171 193.944  0.00  0.00    +0.032 HD
BRANCH 195 206
ATOM    206  C   UNL     1     153.207 166.568 193.443  0.00  0.00    -0.039 C 
ATOM    207  H   UNL     1     153.539 166.968 192.484  0.00  0.00    +0.025 HD
ATOM    208  H   UNL     1     153.320 167.345 194.202  0.00  0.00    +0.025 HD
ATOM    209  H   UNL     1     153.874 165.751 193.728  0.00  0.00    +0.025 HD
ENDBRANCH 195 206
BRANCH 197 210
ATOM    210  O   UNL     1     149.220 165.066 195.985  0.00  0.00    -0.380 OA
BRANCH 210 211
ATOM    211  C   UNL     1     148.270 166.037 196.397  0.00  0.00    +0.037 C 
ATOM    212  H   UNL     1     147.296 165.568 196.541  0.00  0.00    +0.052 HD
ATOM    213  H   UNL     1     148.590 166.441 197.361  0.00  0.00    +0.052 HD
ATOM    214  H   UNL     1     148.200 166.855 195.678  0.00  0.00    +0.052 HD
ENDBRANCH 210 211
ENDBRANCH 197 210
ENDBRANCH 190 193
ENDBRANCH 187 190
ENDBRANCH 181 187
ENDBRANCH 177 181
ENDBRANCH 171 177
ENDBRANCH  22 171
BRANCH  20 215
ATOM    215  O   UNL     1     144.708 164.728 185.035  0.00  0.00    -0.391 OA
ATOM    216  H   UNL     1     145.280 163.944 184.975  0.00  0.00    +0.210 HD
ENDBRANCH  20 215
BRANCH  18 217
ATOM    217  O   UNL     1     144.176 162.358 186.166  0.00  0.00    -0.391 OA
ATOM    218  H   UNL     1     145.069 162.022 186.398  0.00  0.00    +0.210 HD
ENDBRANCH  18 217
BRANCH  10 219
ATOM    219  O   UNL     1     147.207 155.078 190.068  0.00  0.00    -0.391 OA
ATOM    220  H   UNL     1     147.932 154.477 190.314  0.00  0.00    +0.210 HD
ENDBRANCH  10 219
BRANCH  37 221
ATOM    221  O   UNL     1     151.804 164.145 181.905  0.00  0.00    -0.379 OA
BRANCH 221 222
ATOM    222  C   UNL     1     151.346 165.139 180.998  0.00  0.00    +0.037 C 
ATOM    223  H   UNL     1     150.329 164.912 180.662  0.00  0.00    +0.052 HD
ATOM    224  H   UNL     1     152.010 165.220 180.133  0.00  0.00    +0.052 HD
ATOM    225  H   UNL     1     151.333 166.105 181.514  0.00  0.00    +0.052 HD
ENDBRANCH 221 222
ENDBRANCH  37 221
BRANCH  16 226
ATOM    226  O   UNL     1     142.844 160.007 186.736  0.00  0.00    -0.379 OA
BRANCH 226 227
ATOM    227  C   UNL     1     141.726 159.637 185.943  0.00  0.00    +0.037 C 
ATOM    228  H   UNL     1     140.959 159.239 186.612  0.00  0.00    +0.052 HD
ATOM    229  H   UNL     1     141.306 160.504 185.422  0.00  0.00    +0.052 HD
ATOM    230  H   UNL     1     141.987 158.852 185.228  0.00  0.00    +0.052 HD
ENDBRANCH 226 227
ENDBRANCH  16 226
TORSDOF 40
ENDMDL
MODEL 10
REMARK VINA RESULT:      -4.6      3.259      9.020
REMARK  Name = Swinholide A_conf2
REMARK  40 active torsions:
REMARK  status: ('A' for Active; 'I' for Inactive)
REMARK    1  A    between atoms: C_1  and  C_2
REMARK    2  A    between atoms: C_4  and  C_10
REMARK    3  A    between atoms: C_6  and  O_8
REMARK    4  A    between atoms: O_8  and  C_9
REMARK    5  A    between atoms: C_10  and  C_11
REMARK    6  A    between atoms: C_11  and  C_12
REMARK    7  A    between atoms: C_12  and  C_13
REMARK    8  A    between atoms: C_12  and  C_98
REMARK    9  A    between atoms: C_13  and  O_14
REMARK   10  A    between atoms: C_13  and  C_15
REMARK   11  A    between atoms: C_15  and  C_16
REMARK   12  A    between atoms: C_15  and  C_97
REMARK   13  A    between atoms: C_22  and  C_96
REMARK   14  A    between atoms: C_25  and  O_95
REMARK   15  A    between atoms: C_31  and  O_90
REMARK   16  A    between atoms: C_32  and  C_89
REMARK   17  A    between atoms: C_33  and  O_88
REMARK   18  A    between atoms: C_35  and  O_87
REMARK   19  A    between atoms: C_36  and  C_86
REMARK   20  A    between atoms: C_37  and  C_69
REMARK   21  A    between atoms: C_43  and  C_68
REMARK   22  A    between atoms: C_46  and  O_67
REMARK   23  A    between atoms: C_52  and  O_62
REMARK   24  A    between atoms: C_53  and  C_61
REMARK   25  A    between atoms: C_54  and  O_60
REMARK   26  A    between atoms: C_56  and  O_59
REMARK   27  A    between atoms: C_57  and  C_58
REMARK   28  A    between atoms: O_62  and  C_63
REMARK   29  A    between atoms: C_69  and  C_70
REMARK   30  A    between atoms: C_69  and  C_85
REMARK   31  A    between atoms: C_70  and  O_71
REMARK   32  A    between atoms: C_70  and  C_72
REMARK   33  A    between atoms: C_72  and  C_73
REMARK   34  A    between atoms: C_72  and  C_84
REMARK   35  A    between atoms: C_73  and  C_74
REMARK   36  A    between atoms: C_74  and  C_75
REMARK   37  A    between atoms: C_77  and  C_83
REMARK   38  A    between atoms: C_79  and  O_81
REMARK   39  A    between atoms: O_81  and  C_82
REMARK   40  A    between atoms: O_90  and  C_91
REMARK                            x       y       z     vdW  Elec       q    Type
REMARK                         _______ _______ _______ _____ _____    ______ ____
ROOT
ATOM      1  C   UNL     1     154.661 165.087 188.722  0.00  0.00    +0.113 C 
ATOM      2  O   UNL     1     155.602 165.712 187.810  0.00  0.00    -0.458 OA
ATOM      3  C   UNL     1     155.069 166.280 186.702  0.00  0.00    +0.332 C 
ATOM      4  O   UNL     1     153.888 166.353 186.410  0.00  0.00    -0.246 OA
ATOM      5  C   UNL     1     156.171 166.778 185.851  0.00  0.00    +0.023 C 
ATOM      6  C   UNL     1     155.878 167.468 184.737  0.00  0.00    -0.052 C 
ATOM      7  C   UNL     1     156.833 167.954 183.747  0.00  0.00    -0.054 C 
ATOM      8  C   UNL     1     158.082 168.338 184.074  0.00  0.00    -0.079 C 
ATOM      9  C   UNL     1     159.112 168.917 183.136  0.00  0.00    -0.008 C 
ATOM     10  C   UNL     1     160.353 168.024 182.930  0.00  0.00    +0.061 C 
ATOM     11  C   UNL     1     160.042 166.769 182.100  0.00  0.00    +0.003 C 
ATOM     12  C   UNL     1     161.286 165.961 181.672  0.00  0.00    +0.080 C 
ATOM     13  O   UNL     1     160.944 164.569 181.480  0.00  0.00    -0.369 OA
ATOM     14  C   UNL     1     160.293 164.294 180.224  0.00  0.00    +0.065 C 
ATOM     15  C   UNL     1     159.879 162.812 180.255  0.00  0.00    +0.000 C 
ATOM     16  C   UNL     1     159.264 162.280 178.941  0.00  0.00    +0.066 C 
ATOM     17  C   UNL     1     158.610 160.864 179.089  0.00  0.00    +0.009 C 
ATOM     18  C   UNL     1     157.510 160.787 180.176  0.00  0.00    +0.063 C 
ATOM     19  C   UNL     1     156.813 159.405 180.254  0.00  0.00    -0.000 C 
ATOM     20  C   UNL     1     155.623 159.473 181.224  0.00  0.00    +0.064 C 
ATOM     21  C   UNL     1     155.203 158.102 181.815  0.00  0.00    +0.020 C 
ATOM     22  C   UNL     1     154.285 158.245 183.071  0.00  0.00    +0.113 C 
ATOM     23  O   UNL     1     153.102 158.937 182.583  0.00  0.00    -0.458 OA
ATOM     24  C   UNL     1     151.871 158.533 182.963  0.00  0.00    +0.332 C 
ATOM     25  O   UNL     1     151.607 157.705 183.835  0.00  0.00    -0.246 OA
ATOM     26  C   UNL     1     150.822 159.231 182.190  0.00  0.00    +0.023 C 
ATOM     27  C   UNL     1     151.075 160.239 181.328  0.00  0.00    -0.052 C 
ATOM     28  C   UNL     1     150.113 160.999 180.535  0.00  0.00    -0.054 C 
ATOM     29  C   UNL     1     150.573 162.041 179.811  0.00  0.00    -0.079 C 
ATOM     30  C   UNL     1     149.789 163.022 178.987  0.00  0.00    -0.008 C 
ATOM     31  C   UNL     1     150.127 164.510 179.214  0.00  0.00    +0.061 C 
ATOM     32  C   UNL     1     149.838 165.082 180.618  0.00  0.00    +0.003 C 
ATOM     33  C   UNL     1     150.888 164.988 181.743  0.00  0.00    +0.080 C 
ATOM     34  O   UNL     1     151.001 163.638 182.205  0.00  0.00    -0.369 OA
ATOM     35  C   UNL     1     152.056 163.400 183.143  0.00  0.00    +0.065 C 
ATOM     36  C   UNL     1     151.838 164.085 184.503  0.00  0.00    +0.000 C 
ATOM     37  C   UNL     1     150.654 163.459 185.279  0.00  0.00    +0.066 C 
ATOM     38  C   UNL     1     150.815 163.668 186.811  0.00  0.00    +0.009 C 
ATOM     39  C   UNL     1     151.744 162.605 187.469  0.00  0.00    +0.063 C 
ATOM     40  C   UNL     1     152.246 163.052 188.868  0.00  0.00    -0.000 C 
ATOM     41  C   UNL     1     153.695 162.714 189.243  0.00  0.00    +0.064 C 
ATOM     42  C   UNL     1     154.791 163.544 188.529  0.00  0.00    +0.020 C 
ATOM     43  C   UNL     1     153.416 163.734 182.505  0.00  0.00    -0.008 C 
ATOM     44  C   UNL     1     153.390 165.010 181.718  0.00  0.00    -0.083 C 
ATOM     45  C   UNL     1     152.228 165.578 181.387  0.00  0.00    -0.059 C 
ATOM     46  C   UNL     1     161.237 164.611 179.054  0.00  0.00    -0.008 C 
ATOM     47  C   UNL     1     161.932 165.924 179.244  0.00  0.00    -0.083 C 
ATOM     48  C   UNL     1     161.963 166.518 180.442  0.00  0.00    -0.059 C 
ATOM     49  H   UNL     1     153.647 165.333 188.413  0.00  0.00    +0.074 HD
ATOM     50  H   UNL     1     157.179 166.531 186.150  0.00  0.00    +0.069 HD
ATOM     51  H   UNL     1     154.832 167.653 184.495  0.00  0.00    +0.062 HD
ATOM     52  H   UNL     1     158.402 168.293 185.114  0.00  0.00    +0.058 HD
ATOM     53  H   UNL     1     159.431 169.878 183.560  0.00  0.00    +0.033 HD
ATOM     54  H   UNL     1     158.690 169.179 182.162  0.00  0.00    +0.033 HD
ATOM     55  H   UNL     1     160.753 167.722 183.901  0.00  0.00    +0.060 HD
ATOM     56  H   UNL     1     159.371 166.119 182.673  0.00  0.00    +0.032 HD
ATOM     57  H   UNL     1     159.483 167.053 181.201  0.00  0.00    +0.032 HD
ATOM     58  H   UNL     1     162.012 165.959 182.491  0.00  0.00    +0.064 HD
ATOM     59  H   UNL     1     159.386 164.908 180.161  0.00  0.00    +0.060 HD
ATOM     60  H   UNL     1     160.739 162.192 180.532  0.00  0.00    +0.032 HD
ATOM     61  H   UNL     1     159.164 162.712 181.081  0.00  0.00    +0.032 HD
ATOM     62  H   UNL     1     160.080 162.195 178.208  0.00  0.00    +0.060 HD
ATOM     63  H   UNL     1     158.125 160.638 178.134  0.00  0.00    +0.035 HD
ATOM     64  H   UNL     1     157.954 160.968 181.162  0.00  0.00    +0.060 HD
ATOM     65  H   UNL     1     157.534 158.652 180.597  0.00  0.00    +0.032 HD
ATOM     66  H   UNL     1     156.463 159.116 179.259  0.00  0.00    +0.032 HD
ATOM     67  H   UNL     1     155.916 160.135 182.040  0.00  0.00    +0.060 HD
ATOM     68  H   UNL     1     156.122 157.587 182.108  0.00  0.00    +0.036 HD
ATOM     69  H   UNL     1     154.007 157.243 183.421  0.00  0.00    +0.074 HD
ATOM     70  H   UNL     1     149.816 158.883 182.393  0.00  0.00    +0.069 HD
ATOM     71  H   UNL     1     152.108 160.568 181.220  0.00  0.00    +0.062 HD
ATOM     72  H   UNL     1     151.644 162.256 179.840  0.00  0.00    +0.058 HD
ATOM     73  H   UNL     1     149.992 162.782 177.935  0.00  0.00    +0.033 HD
ATOM     74  H   UNL     1     148.715 162.901 179.135  0.00  0.00    +0.033 HD
ATOM     75  H   UNL     1     149.444 165.046 178.544  0.00  0.00    +0.060 HD
ATOM     76  H   UNL     1     148.902 164.638 180.981  0.00  0.00    +0.032 HD
ATOM     77  H   UNL     1     149.638 166.149 180.482  0.00  0.00    +0.032 HD
ATOM     78  H   UNL     1     150.478 165.577 182.570  0.00  0.00    +0.064 HD
ATOM     79  H   UNL     1     152.064 162.317 183.322  0.00  0.00    +0.060 HD
ATOM     80  H   UNL     1     151.667 165.160 184.378  0.00  0.00    +0.032 HD
ATOM     81  H   UNL     1     152.768 163.993 185.076  0.00  0.00    +0.032 HD
ATOM     82  H   UNL     1     150.586 162.382 185.077  0.00  0.00    +0.060 HD
ATOM     83  H   UNL     1     151.257 164.663 186.954  0.00  0.00    +0.035 HD
ATOM     84  H   UNL     1     151.163 161.682 187.600  0.00  0.00    +0.060 HD
ATOM     85  H   UNL     1     151.588 162.561 189.602  0.00  0.00    +0.032 HD
ATOM     86  H   UNL     1     152.060 164.118 189.017  0.00  0.00    +0.032 HD
ATOM     87  H   UNL     1     153.821 162.844 190.322  0.00  0.00    +0.060 HD
ATOM     88  H   UNL     1     154.703 163.375 187.447  0.00  0.00    +0.036 HD
ATOM     89  H   UNL     1     154.201 163.783 183.268  0.00  0.00    +0.033 HD
ATOM     90  H   UNL     1     153.690 162.938 181.801  0.00  0.00    +0.033 HD
ATOM     91  H   UNL     1     154.334 165.434 181.392  0.00  0.00    +0.057 HD
ATOM     92  H   UNL     1     152.227 166.504 180.812  0.00  0.00    +0.059 HD
ATOM     93  H   UNL     1     161.999 163.832 178.952  0.00  0.00    +0.033 HD
ATOM     94  H   UNL     1     160.669 164.639 178.118  0.00  0.00    +0.033 HD
ATOM     95  H   UNL     1     162.432 166.369 178.393  0.00  0.00    +0.057 HD
ATOM     96  H   UNL     1     162.481 167.468 180.551  0.00  0.00    +0.059 HD
ENDROOT
BRANCH  28  97
ATOM     97  C   UNL     1     148.666 160.580 180.595  0.00  0.00    -0.040 C 
ATOM     98  H   UNL     1     148.417 160.214 181.596  0.00  0.00    +0.028 HD
ATOM     99  H   UNL     1     148.418 159.762 179.912  0.00  0.00    +0.028 HD
ATOM    100  H   UNL     1     148.006 161.419 180.351  0.00  0.00    +0.028 HD
ENDBRANCH  28  97
BRANCH  21 101
ATOM    101  C   UNL     1     154.523 157.199 180.776  0.00  0.00    -0.057 C 
ATOM    102  H   UNL     1     153.603 157.652 180.399  0.00  0.00    +0.023 HD
ATOM    103  H   UNL     1     155.186 157.040 179.922  0.00  0.00    +0.023 HD
ATOM    104  H   UNL     1     154.269 156.214 181.178  0.00  0.00    +0.023 HD
ENDBRANCH  21 101
BRANCH  42 105
ATOM    105  C   UNL     1     156.186 162.985 188.857  0.00  0.00    -0.057 C 
ATOM    106  H   UNL     1     156.844 163.757 189.259  0.00  0.00    +0.023 HD
ATOM    107  H   UNL     1     156.656 162.520 187.987  0.00  0.00    +0.023 HD
ATOM    108  H   UNL     1     156.107 162.217 189.631  0.00  0.00    +0.023 HD
ENDBRANCH  42 105
BRANCH  17 109
ATOM    109  C   UNL     1     159.686 159.794 179.305  0.00  0.00    -0.058 C 
ATOM    110  H   UNL     1     160.151 159.500 178.364  0.00  0.00    +0.023 HD
ATOM    111  H   UNL     1     159.245 158.890 179.736  0.00  0.00    +0.023 HD
ATOM    112  H   UNL     1     160.468 160.138 179.982  0.00  0.00    +0.023 HD
ENDBRANCH  17 109
BRANCH  38 113
ATOM    113  C   UNL     1     149.471 163.677 187.563  0.00  0.00    -0.058 C 
ATOM    114  H   UNL     1     148.910 164.604 187.399  0.00  0.00    +0.023 HD
ATOM    115  H   UNL     1     148.838 162.836 187.239  0.00  0.00    +0.023 HD
ATOM    116  H   UNL     1     149.618 163.582 188.642  0.00  0.00    +0.023 HD
ENDBRANCH  38 113
BRANCH   7 117
ATOM    117  C   UNL     1     156.289 168.024 182.344  0.00  0.00    -0.040 C 
ATOM    118  H   UNL     1     155.989 169.048 182.104  0.00  0.00    +0.028 HD
ATOM    119  H   UNL     1     155.415 167.379 182.222  0.00  0.00    +0.028 HD
ATOM    120  H   UNL     1     157.025 167.693 181.601  0.00  0.00    +0.028 HD
ENDBRANCH   7 117
BRANCH   1 121
ATOM    121  C   UNL     1     154.832 165.669 190.156  0.00  0.00    +0.020 C 
ATOM    122  H   UNL     1     154.663 164.868 190.883  0.00  0.00    +0.036 HD
BRANCH 121 123
ATOM    123  C   UNL     1     156.243 166.217 190.442  0.00  0.00    -0.057 C 
ATOM    124  H   UNL     1     156.350 166.581 191.467  0.00  0.00    +0.023 HD
ATOM    125  H   UNL     1     157.005 165.451 190.273  0.00  0.00    +0.023 HD
ATOM    126  H   UNL     1     156.496 167.026 189.754  0.00  0.00    +0.023 HD
ENDBRANCH 121 123
BRANCH 121 127
ATOM    127  C   UNL     1     153.804 166.809 190.471  0.00  0.00    +0.064 C 
ATOM    128  H   UNL     1     154.362 167.729 190.688  0.00  0.00    +0.060 HD
BRANCH 127 129
ATOM    129  C   UNL     1     152.859 166.552 191.681  0.00  0.00    -0.017 C 
ATOM    130  H   UNL     1     152.576 165.496 191.704  0.00  0.00    +0.032 HD
BRANCH 129 131
ATOM    131  C   UNL     1     153.541 166.898 193.008  0.00  0.00    -0.060 C 
ATOM    132  H   UNL     1     154.469 167.459 192.866  0.00  0.00    +0.023 HD
ATOM    133  H   UNL     1     152.882 167.495 193.649  0.00  0.00    +0.023 HD
ATOM    134  H   UNL     1     153.808 165.987 193.556  0.00  0.00    +0.023 HD
ENDBRANCH 129 131
BRANCH 129 135
ATOM    135  C   UNL     1     151.537 167.359 191.607  0.00  0.00    -0.046 C 
ATOM    136  H   UNL     1     151.796 168.407 191.409  0.00  0.00    +0.027 HD
ATOM    137  H   UNL     1     150.932 167.026 190.756  0.00  0.00    +0.027 HD
BRANCH 135 138
ATOM    138  C   UNL     1     150.687 167.301 192.884  0.00  0.00    -0.026 C 
ATOM    139  H   UNL     1     151.300 167.568 193.750  0.00  0.00    +0.029 HD
ATOM    140  H   UNL     1     149.889 168.050 192.815  0.00  0.00    +0.029 HD
BRANCH 138 143
ATOM    141  C   UNL     1     148.046 166.564 194.232  0.00  0.00    +0.059 C 
ATOM    142  O   UNL     1     148.664 165.908 193.119  0.00  0.00    -0.373 OA
ATOM    143  C   UNL     1     150.095 165.904 193.136  0.00  0.00    +0.061 C 
ATOM    144  C   UNL     1     150.606 165.267 194.430  0.00  0.00    -0.000 C 
ATOM    145  C   UNL     1     150.001 165.932 195.665  0.00  0.00    +0.063 C 
ATOM    146  C   UNL     1     148.479 165.930 195.547  0.00  0.00    -0.000 C 
ATOM    147  H   UNL     1     148.309 167.626 194.211  0.00  0.00    +0.059 HD
ATOM    148  H   UNL     1     150.403 165.261 192.300  0.00  0.00    +0.060 HD
ATOM    149  H   UNL     1     150.329 164.203 194.435  0.00  0.00    +0.032 HD
ATOM    150  H   UNL     1     151.700 165.293 194.475  0.00  0.00    +0.032 HD
ATOM    151  H   UNL     1     150.375 166.960 195.742  0.00  0.00    +0.060 HD
ATOM    152  H   UNL     1     148.021 166.457 196.393  0.00  0.00    +0.032 HD
ATOM    153  H   UNL     1     148.124 164.890 195.604  0.00  0.00    +0.032 HD
BRANCH 141 154
ATOM    154  C   UNL     1     146.541 166.453 194.040  0.00  0.00    -0.039 C 
ATOM    155  H   UNL     1     146.097 167.419 193.779  0.00  0.00    +0.025 HD
ATOM    156  H   UNL     1     146.307 165.735 193.245  0.00  0.00    +0.025 HD
ATOM    157  H   UNL     1     146.058 166.078 194.950  0.00  0.00    +0.025 HD
ENDBRANCH 141 154
BRANCH 145 158
ATOM    158  O   UNL     1     150.453 165.198 196.808  0.00  0.00    -0.380 OA
BRANCH 158 159
ATOM    159  C   UNL     1     150.917 163.891 196.492  0.00  0.00    +0.037 C 
ATOM    160  H   UNL     1     152.009 163.917 196.468  0.00  0.00    +0.052 HD
ATOM    161  H   UNL     1     150.562 163.585 195.507  0.00  0.00    +0.052 HD
ATOM    162  H   UNL     1     150.608 163.163 197.248  0.00  0.00    +0.052 HD
ENDBRANCH 158 159
ENDBRANCH 145 158
ENDBRANCH 138 143
ENDBRANCH 135 138
ENDBRANCH 129 135
ENDBRANCH 127 129
BRANCH 127 163
ATOM    163  O   UNL     1     153.021 167.074 189.308  0.00  0.00    -0.391 OA
ATOM    164  H   UNL     1     152.245 167.592 189.576  0.00  0.00    +0.210 HD
ENDBRANCH 127 163
ENDBRANCH 121 127
ENDBRANCH   1 121
BRANCH  41 165
ATOM    165  O   UNL     1     153.903 161.320 188.966  0.00  0.00    -0.391 OA
ATOM    166  H   UNL     1     153.135 161.011 188.452  0.00  0.00    +0.210 HD
ENDBRANCH  41 165
BRANCH  39 167
ATOM    167  O   UNL     1     152.811 162.250 186.611  0.00  0.00    -0.391 OA
ATOM    168  H   UNL     1     153.412 163.025 186.560  0.00  0.00    +0.210 HD
ENDBRANCH  39 167
BRANCH  31 169
ATOM    169  O   UNL     1     151.424 164.863 178.742  0.00  0.00    -0.391 OA
ATOM    170  H   UNL     1     151.937 164.046 178.604  0.00  0.00    +0.210 HD
ENDBRANCH  31 169
BRANCH  22 171
ATOM    171  C   UNL     1     154.899 159.053 184.261  0.00  0.00    +0.020 C 
ATOM    172  H   UNL     1     155.968 159.149 184.064  0.00  0.00    +0.036 HD
BRANCH 171 173
ATOM    173  C   UNL     1     154.396 160.509 184.265  0.00  0.00    -0.057 C 
ATOM    174  H   UNL     1     154.185 160.849 185.286  0.00  0.00    +0.023 HD
ATOM    175  H   UNL     1     155.149 161.188 183.846  0.00  0.00    +0.023 HD
ATOM    176  H   UNL     1     153.492 160.625 183.659  0.00  0.00    +0.023 HD
ENDBRANCH 171 173
BRANCH 171 177
ATOM    177  C   UNL     1     154.691 158.473 185.703  0.00  0.00    +0.064 C 
ATOM    178  H   UNL     1     153.964 159.100 186.238  0.00  0.00    +0.060 HD
BRANCH 177 179
ATOM    179  O   UNL     1     154.092 157.180 185.650  0.00  0.00    -0.391 OA
ATOM    180  H   UNL     1     154.341 156.703 186.461  0.00  0.00    +0.210 HD
ENDBRANCH 177 179
BRANCH 177 181
ATOM    181  C   UNL     1     155.999 158.411 186.568  0.00  0.00    -0.017 C 
ATOM    182  H   UNL     1     155.843 159.033 187.460  0.00  0.00    +0.032 HD
BRANCH 181 183
ATOM    183  C   UNL     1     156.305 156.970 187.011  0.00  0.00    -0.060 C 
ATOM    184  H   UNL     1     157.135 156.572 186.418  0.00  0.00    +0.023 HD
ATOM    185  H   UNL     1     155.451 156.299 186.896  0.00  0.00    +0.023 HD
ATOM    186  H   UNL     1     156.571 156.920 188.069  0.00  0.00    +0.023 HD
ENDBRANCH 181 183
BRANCH 181 187
ATOM    187  C   UNL     1     157.216 159.001 185.795  0.00  0.00    -0.046 C 
ATOM    188  H   UNL     1     156.985 159.021 184.727  0.00  0.00    +0.027 HD
ATOM    189  H   UNL     1     158.065 158.322 185.938  0.00  0.00    +0.027 HD
BRANCH 187 190
ATOM    190  C   UNL     1     157.620 160.422 186.235  0.00  0.00    -0.026 C 
ATOM    191  H   UNL     1     158.167 160.344 187.179  0.00  0.00    +0.029 HD
ATOM    192  H   UNL     1     156.709 160.998 186.438  0.00  0.00    +0.029 HD
BRANCH 190 193
ATOM    193  C   UNL     1     158.531 161.249 185.301  0.00  0.00    +0.061 C 
ATOM    194  O   UNL     1     159.120 162.379 185.944  0.00  0.00    -0.373 OA
ATOM    195  C   UNL     1     158.354 163.577 185.953  0.00  0.00    +0.059 C 
ATOM    196  C   UNL     1     157.946 163.991 184.547  0.00  0.00    -0.000 C 
ATOM    197  C   UNL     1     157.166 162.862 183.865  0.00  0.00    +0.063 C 
ATOM    198  C   UNL     1     157.984 161.573 183.910  0.00  0.00    -0.000 C 
ATOM    199  H   UNL     1     159.390 160.586 185.126  0.00  0.00    +0.060 HD
ATOM    200  H   UNL     1     157.470 163.432 186.583  0.00  0.00    +0.059 HD
ATOM    201  H   UNL     1     157.342 164.904 184.583  0.00  0.00    +0.032 HD
ATOM    202  H   UNL     1     158.825 164.224 183.935  0.00  0.00    +0.032 HD
ATOM    203  H   UNL     1     156.211 162.719 184.375  0.00  0.00    +0.060 HD
ATOM    204  H   UNL     1     158.840 161.712 183.235  0.00  0.00    +0.032 HD
ATOM    205  H   UNL     1     157.417 160.732 183.495  0.00  0.00    +0.032 HD
BRANCH 195 206
ATOM    206  C   UNL     1     159.214 164.662 186.589  0.00  0.00    -0.039 C 
ATOM    207  H   UNL     1     158.689 165.141 187.417  0.00  0.00    +0.025 HD
ATOM    208  H   UNL     1     160.150 164.244 186.967  0.00  0.00    +0.025 HD
ATOM    209  H   UNL     1     159.484 165.428 185.859  0.00  0.00    +0.025 HD
ENDBRANCH 195 206
BRANCH 197 210
ATOM    210  O   UNL     1     156.885 163.130 182.486  0.00  0.00    -0.380 OA
BRANCH 210 211
ATOM    211  C   UNL     1     157.084 164.483 182.105  0.00  0.00    +0.037 C 
ATOM    212  H   UNL     1     157.827 164.948 182.753  0.00  0.00    +0.052 HD
ATOM    213  H   UNL     1     157.476 164.497 181.085  0.00  0.00    +0.052 HD
ATOM    214  H   UNL     1     156.148 165.045 182.129  0.00  0.00    +0.052 HD
ENDBRANCH 210 211
ENDBRANCH 197 210
ENDBRANCH 190 193
ENDBRANCH 187 190
ENDBRANCH 181 187
ENDBRANCH 177 181
ENDBRANCH 171 177
ENDBRANCH  22 171
BRANCH  20 215
ATOM    215  O   UNL     1     154.560 160.136 180.526  0.00  0.00    -0.391 OA
ATOM    216  H   UNL     1     153.831 160.299 181.148  0.00  0.00    +0.210 HD
ENDBRANCH  20 215
BRANCH  18 217
ATOM    217  O   UNL     1     156.560 161.825 179.952  0.00  0.00    -0.391 OA
ATOM    218  H   UNL     1     156.836 162.375 179.187  0.00  0.00    +0.210 HD
ENDBRANCH  18 217
BRANCH  10 219
ATOM    219  O   UNL     1     161.357 168.818 182.294  0.00  0.00    -0.391 OA
ATOM    220  H   UNL     1     161.418 168.532 181.365  0.00  0.00    +0.210 HD
ENDBRANCH  10 219
BRANCH  37 221
ATOM    221  O   UNL     1     149.462 164.127 184.835  0.00  0.00    -0.379 OA
BRANCH 221 222
ATOM    222  C   UNL     1     148.498 163.225 184.308  0.00  0.00    +0.037 C 
ATOM    223  H   UNL     1     148.654 163.081 183.233  0.00  0.00    +0.052 HD
ATOM    224  H   UNL     1     147.480 163.584 184.486  0.00  0.00    +0.052 HD
ATOM    225  H   UNL     1     148.613 162.257 184.807  0.00  0.00    +0.052 HD
ENDBRANCH 221 222
ENDBRANCH  37 221
BRANCH  16 226
ATOM    226  O   UNL     1     158.363 163.279 178.448  0.00  0.00    -0.379 OA
BRANCH 226 227
ATOM    227  C   UNL     1     158.143 163.245 177.046  0.00  0.00    +0.037 C 
ATOM    228  H   UNL     1     157.124 163.593 176.858  0.00  0.00    +0.052 HD
ATOM    229  H   UNL     1     158.833 163.915 176.521  0.00  0.00    +0.052 HD
ATOM    230  H   UNL     1     158.227 162.228 176.654  0.00  0.00    +0.052 HD
ENDBRANCH 226 227
ENDBRANCH  16 226
TORSDOF 40
ENDMDL
