MODEL 1
REMARK VINA RESULT:      -4.8      0.000      0.000
REMARK  Name = Swinholide A_conf1
REMARK  40 active torsions:
REMARK  status: ('A' for Active; 'I' for Inactive)
REMARK    1  A    between atoms: C_1  and  C_2
REMARK    2  A    between atoms: C_4  and  C_10
REMARK    3  A    between atoms: C_6  and  O_8
REMARK    4  A    between atoms: O_8  and  C_9
REMARK    5  A    between atoms: C_10  and  C_11
REMARK    6  A    between atoms: C_11  and  C_12
REMARK    7  A    between atoms: C_12  and  C_13
REMARK    8  A    between atoms: C_12  and  C_98
REMARK    9  A    between atoms: C_13  and  O_14
REMARK   10  A    between atoms: C_13  and  C_15
REMARK   11  A    between atoms: C_15  and  C_16
REMARK   12  A    between atoms: C_15  and  C_97
REMARK   13  A    between atoms: C_22  and  C_96
REMARK   14  A    between atoms: C_25  and  O_95
REMARK   15  A    between atoms: C_31  and  O_90
REMARK   16  A    between atoms: C_32  and  C_89
REMARK   17  A    between atoms: C_33  and  O_88
REMARK   18  A    between atoms: C_35  and  O_87
REMARK   19  A    between atoms: C_36  and  C_86
REMARK   20  A    between atoms: C_37  and  C_69
REMARK   21  A    between atoms: C_43  and  C_68
REMARK   22  A    between atoms: C_46  and  O_67
REMARK   23  A    between atoms: C_52  and  O_62
REMARK   24  A    between atoms: C_53  and  C_61
REMARK   25  A    between atoms: C_54  and  O_60
REMARK   26  A    between atoms: C_56  and  O_59
REMARK   27  A    between atoms: C_57  and  C_58
REMARK   28  A    between atoms: O_62  and  C_63
REMARK   29  A    between atoms: C_69  and  C_70
REMARK   30  A    between atoms: C_69  and  C_85
REMARK   31  A    between atoms: C_70  and  O_71
REMARK   32  A    between atoms: C_70  and  C_72
REMARK   33  A    between atoms: C_72  and  C_73
REMARK   34  A    between atoms: C_72  and  C_84
REMARK   35  A    between atoms: C_73  and  C_74
REMARK   36  A    between atoms: C_74  and  C_75
REMARK   37  A    between atoms: C_77  and  C_83
REMARK   38  A    between atoms: C_79  and  O_81
REMARK   39  A    between atoms: O_81  and  C_82
REMARK   40  A    between atoms: O_90  and  C_91
REMARK                            x       y       z     vdW  Elec       q    Type
REMARK                         _______ _______ _______ _____ _____    ______ ____
ROOT
ATOM      1  C   UNL     1     153.124 167.177 178.940  0.00  0.00    +0.113 C 
ATOM      2  O   UNL     1     152.248 166.362 179.766  0.00  0.00    -0.458 OA
ATOM      3  C   UNL     1     151.698 165.274 179.160  0.00  0.00    +0.332 C 
ATOM      4  O   UNL     1     151.839 164.952 177.986  0.00  0.00    -0.246 OA
ATOM      5  C   UNL     1     150.867 164.469 180.069  0.00  0.00    +0.023 C 
ATOM      6  C   UNL     1     151.001 164.446 181.403  0.00  0.00    -0.052 C 
ATOM      7  C   UNL     1     150.273 163.548 182.294  0.00  0.00    -0.054 C 
ATOM      8  C   UNL     1     150.109 162.243 181.998  0.00  0.00    -0.079 C 
ATOM      9  C   UNL     1     149.580 161.181 182.930  0.00  0.00    -0.008 C 
ATOM     10  C   UNL     1     150.173 159.777 182.706  0.00  0.00    +0.061 C 
ATOM     11  C   UNL     1     151.692 159.649 182.526  0.00  0.00    +0.003 C 
ATOM     12  C   UNL     1     152.605 159.930 183.734  0.00  0.00    +0.080 C 
ATOM     13  O   UNL     1     153.867 159.316 183.371  0.00  0.00    -0.369 OA
ATOM     14  C   UNL     1     155.050 159.856 183.983  0.00  0.00    +0.065 C 
ATOM     15  C   UNL     1     155.090 159.535 185.492  0.00  0.00    +0.000 C 
ATOM     16  C   UNL     1     156.411 159.944 186.178  0.00  0.00    +0.066 C 
ATOM     17  C   UNL     1     156.333 159.651 187.708  0.00  0.00    +0.009 C 
ATOM     18  C   UNL     1     156.580 160.912 188.576  0.00  0.00    +0.063 C 
ATOM     19  C   UNL     1     155.478 161.983 188.422  0.00  0.00    -0.000 C 
ATOM     20  C   UNL     1     155.637 163.112 189.460  0.00  0.00    +0.064 C 
ATOM     21  C   UNL     1     154.464 164.141 189.510  0.00  0.00    +0.020 C 
ATOM     22  C   UNL     1     154.195 164.858 188.149  0.00  0.00    +0.113 C 
ATOM     23  O   UNL     1     155.410 165.567 187.791  0.00  0.00    -0.458 OA
ATOM     24  C   UNL     1     155.841 165.423 186.510  0.00  0.00    +0.332 C 
ATOM     25  O   UNL     1     155.247 164.853 185.610  0.00  0.00    -0.246 OA
ATOM     26  C   UNL     1     157.145 166.107 186.360  0.00  0.00    +0.023 C 
ATOM     27  C   UNL     1     157.776 166.061 185.177  0.00  0.00    -0.052 C 
ATOM     28  C   UNL     1     159.045 166.704 184.856  0.00  0.00    -0.054 C 
ATOM     29  C   UNL     1     159.247 168.017 185.093  0.00  0.00    -0.079 C 
ATOM     30  C   UNL     1     160.476 168.823 184.777  0.00  0.00    -0.008 C 
ATOM     31  C   UNL     1     160.343 169.763 183.555  0.00  0.00    +0.061 C 
ATOM     32  C   UNL     1     159.587 171.069 183.880  0.00  0.00    +0.003 C 
ATOM     33  C   UNL     1     159.680 172.127 182.757  0.00  0.00    +0.080 C 
ATOM     34  O   UNL     1     158.745 171.860 181.698  0.00  0.00    -0.369 OA
ATOM     35  C   UNL     1     157.497 172.588 181.731  0.00  0.00    +0.065 C 
ATOM     36  C   UNL     1     156.750 172.184 180.448  0.00  0.00    +0.000 C 
ATOM     37  C   UNL     1     155.322 172.726 180.199  0.00  0.00    +0.066 C 
ATOM     38  C   UNL     1     154.311 172.246 181.285  0.00  0.00    +0.009 C 
ATOM     39  C   UNL     1     152.985 171.679 180.705  0.00  0.00    +0.063 C 
ATOM     40  C   UNL     1     153.177 170.661 179.569  0.00  0.00    -0.000 C 
ATOM     41  C   UNL     1     152.100 169.559 179.568  0.00  0.00    +0.064 C 
ATOM     42  C   UNL     1     152.399 168.490 178.475  0.00  0.00    +0.020 C 
ATOM     43  C   UNL     1     157.741 174.102 181.807  0.00  0.00    -0.008 C 
ATOM     44  C   UNL     1     158.704 174.439 182.897  0.00  0.00    -0.083 C 
ATOM     45  C   UNL     1     159.582 173.526 183.318  0.00  0.00    -0.059 C 
ATOM     46  C   UNL     1     155.161 161.346 183.617  0.00  0.00    -0.008 C 
ATOM     47  C   UNL     1     153.904 162.068 183.972  0.00  0.00    -0.083 C 
ATOM     48  C   UNL     1     152.746 161.400 184.051  0.00  0.00    -0.059 C 
ATOM     49  H   UNL     1     153.322 166.632 178.005  0.00  0.00    +0.074 HD
ATOM     50  H   UNL     1     150.176 163.808 179.556  0.00  0.00    +0.069 HD
ATOM     51  H   UNL     1     151.723 165.089 181.902  0.00  0.00    +0.062 HD
ATOM     52  H   UNL     1     150.449 161.874 181.031  0.00  0.00    +0.058 HD
ATOM     53  H   UNL     1     149.714 161.458 183.982  0.00  0.00    +0.033 HD
ATOM     54  H   UNL     1     148.492 161.113 182.787  0.00  0.00    +0.033 HD
ATOM     55  H   UNL     1     149.710 159.383 181.792  0.00  0.00    +0.060 HD
ATOM     56  H   UNL     1     152.029 160.245 181.668  0.00  0.00    +0.032 HD
ATOM     57  H   UNL     1     151.881 158.608 182.225  0.00  0.00    +0.032 HD
ATOM     58  H   UNL     1     152.236 159.401 184.619  0.00  0.00    +0.064 HD
ATOM     59  H   UNL     1     155.887 159.334 183.502  0.00  0.00    +0.060 HD
ATOM     60  H   UNL     1     154.945 158.451 185.602  0.00  0.00    +0.032 HD
ATOM     61  H   UNL     1     154.246 160.007 186.009  0.00  0.00    +0.032 HD
ATOM     62  H   UNL     1     156.568 161.014 186.007  0.00  0.00    +0.060 HD
ATOM     63  H   UNL     1     155.314 159.316 187.952  0.00  0.00    +0.035 HD
ATOM     64  H   UNL     1     156.616 160.607 189.629  0.00  0.00    +0.060 HD
ATOM     65  H   UNL     1     155.548 162.419 187.418  0.00  0.00    +0.032 HD
ATOM     66  H   UNL     1     154.495 161.510 188.528  0.00  0.00    +0.032 HD
ATOM     67  H   UNL     1     155.725 162.661 190.457  0.00  0.00    +0.060 HD
ATOM     68  H   UNL     1     154.781 164.907 190.229  0.00  0.00    +0.036 HD
ATOM     69  H   UNL     1     153.977 164.072 187.417  0.00  0.00    +0.074 HD
ATOM     70  H   UNL     1     157.549 166.623 187.220  0.00  0.00    +0.069 HD
ATOM     71  H   UNL     1     157.328 165.498 184.357  0.00  0.00    +0.062 HD
ATOM     72  H   UNL     1     158.458 168.590 185.576  0.00  0.00    +0.058 HD
ATOM     73  H   UNL     1     160.741 169.414 185.666  0.00  0.00    +0.033 HD
ATOM     74  H   UNL     1     161.343 168.167 184.637  0.00  0.00    +0.033 HD
ATOM     75  H   UNL     1     159.855 169.252 182.718  0.00  0.00    +0.060 HD
ATOM     76  H   UNL     1     160.029 171.486 184.795  0.00  0.00    +0.032 HD
ATOM     77  H   UNL     1     158.537 170.837 184.096  0.00  0.00    +0.032 HD
ATOM     78  H   UNL     1     160.667 172.072 182.285  0.00  0.00    +0.064 HD
ATOM     79  H   UNL     1     156.941 172.247 182.611  0.00  0.00    +0.060 HD
ATOM     80  H   UNL     1     156.705 171.085 180.418  0.00  0.00    +0.032 HD
ATOM     81  H   UNL     1     157.385 172.449 179.593  0.00  0.00    +0.032 HD
ATOM     82  H   UNL     1     155.020 172.310 179.233  0.00  0.00    +0.060 HD
ATOM     83  H   UNL     1     154.768 171.399 181.809  0.00  0.00    +0.035 HD
ATOM     84  H   UNL     1     152.460 171.194 181.538  0.00  0.00    +0.060 HD
ATOM     85  H   UNL     1     153.127 171.189 178.606  0.00  0.00    +0.032 HD
ATOM     86  H   UNL     1     154.165 170.213 179.636  0.00  0.00    +0.032 HD
ATOM     87  H   UNL     1     152.029 169.081 180.549  0.00  0.00    +0.060 HD
ATOM     88  H   UNL     1     153.053 168.956 177.725  0.00  0.00    +0.036 HD
ATOM     89  H   UNL     1     156.803 174.634 181.995  0.00  0.00    +0.033 HD
ATOM     90  H   UNL     1     158.158 174.479 180.866  0.00  0.00    +0.033 HD
ATOM     91  H   UNL     1     158.703 175.445 183.304  0.00  0.00    +0.057 HD
ATOM     92  H   UNL     1     160.302 173.798 184.088  0.00  0.00    +0.059 HD
ATOM     93  H   UNL     1     155.309 161.451 182.535  0.00  0.00    +0.033 HD
ATOM     94  H   UNL     1     156.019 161.815 184.104  0.00  0.00    +0.033 HD
ATOM     95  H   UNL     1     153.949 163.133 184.180  0.00  0.00    +0.057 HD
ATOM     96  H   UNL     1     151.860 161.936 184.371  0.00  0.00    +0.059 HD
ENDROOT
BRANCH  28  97
ATOM     97  C   UNL     1     160.021 165.792 184.158  0.00  0.00    -0.040 C 
ATOM     98  H   UNL     1     159.494 165.056 183.538  0.00  0.00    +0.028 HD
ATOM     99  H   UNL     1     160.621 165.249 184.897  0.00  0.00    +0.028 HD
ATOM    100  H   UNL     1     160.708 166.321 183.493  0.00  0.00    +0.028 HD
ENDBRANCH  28  97
BRANCH  21 101
ATOM    101  C   UNL     1     153.207 163.465 190.068  0.00  0.00    -0.057 C 
ATOM    102  H   UNL     1     153.400 162.986 191.034  0.00  0.00    +0.023 HD
ATOM    103  H   UNL     1     152.829 162.700 189.382  0.00  0.00    +0.023 HD
ATOM    104  H   UNL     1     152.397 164.190 190.204  0.00  0.00    +0.023 HD
ENDBRANCH  21 101
BRANCH  42 105
ATOM    105  C   UNL     1     151.115 168.106 177.703  0.00  0.00    -0.057 C 
ATOM    106  H   UNL     1     150.864 168.865 176.953  0.00  0.00    +0.023 HD
ATOM    107  H   UNL     1     151.221 167.140 177.196  0.00  0.00    +0.023 HD
ATOM    108  H   UNL     1     150.253 168.043 178.377  0.00  0.00    +0.023 HD
ENDBRANCH  42 105
BRANCH  17 109
ATOM    109  C   UNL     1     157.269 158.518 188.155  0.00  0.00    -0.058 C 
ATOM    110  H   UNL     1     156.732 157.723 188.682  0.00  0.00    +0.023 HD
ATOM    111  H   UNL     1     157.760 158.062 187.287  0.00  0.00    +0.023 HD
ATOM    112  H   UNL     1     158.058 158.899 188.811  0.00  0.00    +0.023 HD
ENDBRANCH  17 109
BRANCH  38 113
ATOM    113  C   UNL     1     153.995 173.321 182.339  0.00  0.00    -0.058 C 
ATOM    114  H   UNL     1     153.244 172.985 183.063  0.00  0.00    +0.023 HD
ATOM    115  H   UNL     1     153.625 174.239 181.874  0.00  0.00    +0.023 HD
ATOM    116  H   UNL     1     154.895 173.581 182.908  0.00  0.00    +0.023 HD
ENDBRANCH  38 113
BRANCH   7 117
ATOM    117  C   UNL     1     149.840 164.185 183.585  0.00  0.00    -0.040 C 
ATOM    118  H   UNL     1     149.535 165.225 183.421  0.00  0.00    +0.028 HD
ATOM    119  H   UNL     1     150.660 164.172 184.306  0.00  0.00    +0.028 HD
ATOM    120  H   UNL     1     148.983 163.679 184.035  0.00  0.00    +0.028 HD
ENDBRANCH   7 117
BRANCH   1 121
ATOM    121  C   UNL     1     154.545 167.241 179.615  0.00  0.00    +0.020 C 
ATOM    122  H   UNL     1     154.877 166.191 179.630  0.00  0.00    +0.036 HD
BRANCH 121 123
ATOM    123  C   UNL     1     155.500 168.012 178.686  0.00  0.00    -0.057 C 
ATOM    124  H   UNL     1     156.541 167.871 178.986  0.00  0.00    +0.023 HD
ATOM    125  H   UNL     1     155.295 169.084 178.676  0.00  0.00    +0.023 HD
ATOM    126  H   UNL     1     155.451 167.652 177.653  0.00  0.00    +0.023 HD
ENDBRANCH 121 123
BRANCH 121 127
ATOM    127  C   UNL     1     154.607 167.699 181.112  0.00  0.00    +0.064 C 
ATOM    128  H   UNL     1     153.806 168.413 181.285  0.00  0.00    +0.060 HD
BRANCH 127 129
ATOM    129  C   UNL     1     155.926 168.341 181.660  0.00  0.00    -0.017 C 
ATOM    130  H   UNL     1     156.419 168.857 180.825  0.00  0.00    +0.032 HD
BRANCH 129 131
ATOM    131  C   UNL     1     155.768 169.375 182.773  0.00  0.00    -0.060 C 
ATOM    132  H   UNL     1     154.961 169.095 183.456  0.00  0.00    +0.023 HD
ATOM    133  H   UNL     1     156.697 169.519 183.329  0.00  0.00    +0.023 HD
ATOM    134  H   UNL     1     155.482 170.350 182.358  0.00  0.00    +0.023 HD
ENDBRANCH 129 131
BRANCH 129 135
ATOM    135  C   UNL     1     156.908 167.245 182.171  0.00  0.00    -0.046 C 
ATOM    136  H   UNL     1     156.338 166.399 182.573  0.00  0.00    +0.027 HD
ATOM    137  H   UNL     1     157.472 167.644 183.018  0.00  0.00    +0.027 HD
BRANCH 135 138
ATOM    138  C   UNL     1     157.913 166.757 181.127  0.00  0.00    -0.026 C 
ATOM    139  H   UNL     1     158.923 166.830 181.538  0.00  0.00    +0.029 HD
ATOM    140  H   UNL     1     157.894 167.419 180.259  0.00  0.00    +0.029 HD
BRANCH 138 143
ATOM    141  C   UNL     1     156.128 163.482 180.974  0.00  0.00    +0.059 C 
ATOM    142  O   UNL     1     156.590 164.756 181.449  0.00  0.00    -0.373 OA
ATOM    143  C   UNL     1     157.650 165.313 180.667  0.00  0.00    +0.061 C 
ATOM    144  C   UNL     1     158.897 164.438 180.806  0.00  0.00    -0.000 C 
ATOM    145  C   UNL     1     158.564 162.950 180.967  0.00  0.00    +0.063 C 
ATOM    146  C   UNL     1     157.224 162.648 180.310  0.00  0.00    -0.000 C 
ATOM    147  H   UNL     1     155.785 162.945 181.867  0.00  0.00    +0.059 HD
ATOM    148  H   UNL     1     157.323 165.327 179.622  0.00  0.00    +0.060 HD
ATOM    149  H   UNL     1     159.548 164.604 179.944  0.00  0.00    +0.032 HD
ATOM    150  H   UNL     1     159.483 164.735 181.684  0.00  0.00    +0.032 HD
ATOM    151  H   UNL     1     158.517 162.715 182.039  0.00  0.00    +0.060 HD
ATOM    152  H   UNL     1     157.299 162.866 179.236  0.00  0.00    +0.032 HD
ATOM    153  H   UNL     1     156.967 161.585 180.370  0.00  0.00    +0.032 HD
BRANCH 141 154
ATOM    154  C   UNL     1     154.928 163.669 180.051  0.00  0.00    -0.039 C 
ATOM    155  H   UNL     1     154.785 162.800 179.403  0.00  0.00    +0.025 HD
ATOM    156  H   UNL     1     154.011 163.827 180.629  0.00  0.00    +0.025 HD
ATOM    157  H   UNL     1     155.077 164.532 179.396  0.00  0.00    +0.025 HD
ENDBRANCH 141 154
BRANCH 145 158
ATOM    158  O   UNL     1     159.632 162.207 180.370  0.00  0.00    -0.380 OA
BRANCH 158 159
ATOM    159  C   UNL     1     160.775 162.997 180.064  0.00  0.00    +0.037 C 
ATOM    160  H   UNL     1     161.440 162.402 179.433  0.00  0.00    +0.052 HD
ATOM    161  H   UNL     1     161.319 163.258 180.977  0.00  0.00    +0.052 HD
ATOM    162  H   UNL     1     160.497 163.903 179.518  0.00  0.00    +0.052 HD
ENDBRANCH 158 159
ENDBRANCH 145 158
ENDBRANCH 138 143
ENDBRANCH 135 138
ENDBRANCH 129 135
ENDBRANCH 127 129
BRANCH 127 163
ATOM    163  O   UNL     1     154.332 166.605 181.998  0.00  0.00    -0.391 OA
ATOM    164  H   UNL     1     153.381 166.590 182.201  0.00  0.00    +0.210 HD
ENDBRANCH 127 163
ENDBRANCH 121 127
ENDBRANCH   1 121
BRANCH  41 165
ATOM    165  O   UNL     1     150.836 170.183 179.322  0.00  0.00    -0.391 OA
ATOM    166  H   UNL     1     150.276 169.576 178.796  0.00  0.00    +0.210 HD
ENDBRANCH  41 165
BRANCH  39 167
ATOM    167  O   UNL     1     152.111 172.700 180.228  0.00  0.00    -0.391 OA
ATOM    168  H   UNL     1     151.508 172.301 179.571  0.00  0.00    +0.210 HD
ENDBRANCH  39 167
BRANCH  31 169
ATOM    169  O   UNL     1     161.676 170.097 183.141  0.00  0.00    -0.391 OA
ATOM    170  H   UNL     1     162.285 169.715 183.796  0.00  0.00    +0.210 HD
ENDBRANCH  31 169
BRANCH  22 171
ATOM    171  C   UNL     1     152.984 165.858 188.164  0.00  0.00    +0.020 C 
ATOM    172  H   UNL     1     152.415 165.646 189.076  0.00  0.00    +0.036 HD
BRANCH 171 173
ATOM    173  C   UNL     1     153.448 167.316 188.213  0.00  0.00    -0.057 C 
ATOM    174  H   UNL     1     153.810 167.645 187.238  0.00  0.00    +0.023 HD
ATOM    175  H   UNL     1     154.255 167.460 188.937  0.00  0.00    +0.023 HD
ATOM    176  H   UNL     1     152.639 167.987 188.515  0.00  0.00    +0.023 HD
ENDBRANCH 171 173
BRANCH 171 177
ATOM    177  C   UNL     1     152.028 165.599 186.970  0.00  0.00    +0.064 C 
ATOM    178  H   UNL     1     152.149 166.406 186.240  0.00  0.00    +0.060 HD
BRANCH 177 179
ATOM    179  O   UNL     1     152.438 164.382 186.343  0.00  0.00    -0.391 OA
ATOM    180  H   UNL     1     152.221 163.659 186.973  0.00  0.00    +0.210 HD
ENDBRANCH 177 179
BRANCH 177 181
ATOM    181  C   UNL     1     150.508 165.509 187.283  0.00  0.00    -0.017 C 
ATOM    182  H   UNL     1     149.964 165.563 186.330  0.00  0.00    +0.032 HD
BRANCH 181 183
ATOM    183  C   UNL     1     150.198 164.132 187.899  0.00  0.00    -0.060 C 
ATOM    184  H   UNL     1     149.538 163.543 187.253  0.00  0.00    +0.023 HD
ATOM    185  H   UNL     1     151.110 163.553 188.071  0.00  0.00    +0.023 HD
ATOM    186  H   UNL     1     149.705 164.238 188.866  0.00  0.00    +0.023 HD
ENDBRANCH 181 183
BRANCH 181 187
ATOM    187  C   UNL     1     149.986 166.631 188.209  0.00  0.00    -0.046 C 
ATOM    188  H   UNL     1     148.995 166.960 187.881  0.00  0.00    +0.027 HD
ATOM    189  H   UNL     1     150.648 167.503 188.137  0.00  0.00    +0.027 HD
BRANCH 187 190
ATOM    190  C   UNL     1     149.868 166.178 189.675  0.00  0.00    -0.026 C 
ATOM    191  H   UNL     1     150.570 165.362 189.860  0.00  0.00    +0.029 HD
ATOM    192  H   UNL     1     148.864 165.772 189.845  0.00  0.00    +0.029 HD
BRANCH 190 193
ATOM    193  C   UNL     1     150.125 167.317 190.678  0.00  0.00    +0.061 C 
ATOM    194  O   UNL     1     151.494 167.392 191.086  0.00  0.00    -0.373 OA
ATOM    195  C   UNL     1     151.936 166.313 191.915  0.00  0.00    +0.059 C 
ATOM    196  C   UNL     1     151.099 166.223 193.190  0.00  0.00    -0.000 C 
ATOM    197  C   UNL     1     149.610 166.115 192.857  0.00  0.00    +0.063 C 
ATOM    198  C   UNL     1     149.212 167.242 191.903  0.00  0.00    -0.000 C 
ATOM    199  H   UNL     1     149.911 168.261 190.164  0.00  0.00    +0.060 HD
ATOM    200  H   UNL     1     151.876 165.375 191.352  0.00  0.00    +0.059 HD
ATOM    201  H   UNL     1     151.256 167.114 193.812  0.00  0.00    +0.032 HD
ATOM    202  H   UNL     1     151.424 165.367 193.790  0.00  0.00    +0.032 HD
ATOM    203  H   UNL     1     149.398 165.150 192.382  0.00  0.00    +0.060 HD
ATOM    204  H   UNL     1     149.272 168.193 192.452  0.00  0.00    +0.032 HD
ATOM    205  H   UNL     1     148.160 167.136 191.610  0.00  0.00    +0.032 HD
BRANCH 195 206
ATOM    206  C   UNL     1     153.403 166.566 192.246  0.00  0.00    -0.039 C 
ATOM    207  H   UNL     1     153.744 167.495 191.778  0.00  0.00    +0.025 HD
ATOM    208  H   UNL     1     154.034 165.744 191.895  0.00  0.00    +0.025 HD
ATOM    209  H   UNL     1     153.545 166.686 193.326  0.00  0.00    +0.025 HD
ENDBRANCH 195 206
BRANCH 197 210
ATOM    210  O   UNL     1     148.798 166.244 194.031  0.00  0.00    -0.380 OA
BRANCH 210 211
ATOM    211  C   UNL     1     149.441 165.816 195.224  0.00  0.00    +0.037 C 
ATOM    212  H   UNL     1     148.964 166.325 196.067  0.00  0.00    +0.052 HD
ATOM    213  H   UNL     1     150.500 166.089 195.218  0.00  0.00    +0.052 HD
ATOM    214  H   UNL     1     149.328 164.736 195.360  0.00  0.00    +0.052 HD
ENDBRANCH 210 211
ENDBRANCH 197 210
ENDBRANCH 190 193
ENDBRANCH 187 190
ENDBRANCH 181 187
ENDBRANCH 177 181
ENDBRANCH 171 177
ENDBRANCH  22 171
BRANCH  20 215
ATOM    215  O   UNL     1     156.893 163.763 189.220  0.00  0.00    -0.391 OA
ATOM    216  H   UNL     1     157.061 163.732 188.261  0.00  0.00    +0.210 HD
ENDBRANCH  20 215
BRANCH  18 217
ATOM    217  O   UNL     1     157.857 161.473 188.262  0.00  0.00    -0.391 OA
ATOM    218  H   UNL     1     157.861 161.631 187.296  0.00  0.00    +0.210 HD
ENDBRANCH  18 217
BRANCH  10 219
ATOM    219  O   UNL     1     149.739 158.929 183.774  0.00  0.00    -0.391 OA
ATOM    220  H   UNL     1     148.764 158.934 183.770  0.00  0.00    +0.210 HD
ENDBRANCH  10 219
BRANCH  37 221
ATOM    221  O   UNL     1     155.259 174.147 180.066  0.00  0.00    -0.379 OA
BRANCH 221 222
ATOM    222  C   UNL     1     154.833 174.599 178.787  0.00  0.00    +0.037 C 
ATOM    223  H   UNL     1     155.132 175.646 178.683  0.00  0.00    +0.052 HD
ATOM    224  H   UNL     1     155.312 174.029 177.989  0.00  0.00    +0.052 HD
ATOM    225  H   UNL     1     153.744 174.538 178.696  0.00  0.00    +0.052 HD
ENDBRANCH 221 222
ENDBRANCH  37 221
BRANCH  16 226
ATOM    226  O   UNL     1     157.454 159.191 185.539  0.00  0.00    -0.379 OA
BRANCH 226 227
ATOM    227  C   UNL     1     158.522 160.010 185.077  0.00  0.00    +0.037 C 
ATOM    228  H   UNL     1     158.770 160.795 185.798  0.00  0.00    +0.052 HD
ATOM    229  H   UNL     1     158.252 160.456 184.114  0.00  0.00    +0.052 HD
ATOM    230  H   UNL     1     159.406 159.379 184.935  0.00  0.00    +0.052 HD
ENDBRANCH 226 227
ENDBRANCH  16 226
TORSDOF 40
ENDMDL
MODEL 2
REMARK VINA RESULT:      -4.8      4.428     11.868
REMARK  Name = Swinholide A_conf1
REMARK  40 active torsions:
REMARK  status: ('A' for Active; 'I' for Inactive)
REMARK    1  A    between atoms: C_1  and  C_2
REMARK    2  A    between atoms: C_4  and  C_10
REMARK    3  A    between atoms: C_6  and  O_8
REMARK    4  A    between atoms: O_8  and  C_9
REMARK    5  A    between atoms: C_10  and  C_11
REMARK    6  A    between atoms: C_11  and  C_12
REMARK    7  A    between atoms: C_12  and  C_13
REMARK    8  A    between atoms: C_12  and  C_98
REMARK    9  A    between atoms: C_13  and  O_14
REMARK   10  A    between atoms: C_13  and  C_15
REMARK   11  A    between atoms: C_15  and  C_16
REMARK   12  A    between atoms: C_15  and  C_97
REMARK   13  A    between atoms: C_22  and  C_96
REMARK   14  A    between atoms: C_25  and  O_95
REMARK   15  A    between atoms: C_31  and  O_90
REMARK   16  A    between atoms: C_32  and  C_89
REMARK   17  A    between atoms: C_33  and  O_88
REMARK   18  A    between atoms: C_35  and  O_87
REMARK   19  A    between atoms: C_36  and  C_86
REMARK   20  A    between atoms: C_37  and  C_69
REMARK   21  A    between atoms: C_43  and  C_68
REMARK   22  A    between atoms: C_46  and  O_67
REMARK   23  A    between atoms: C_52  and  O_62
REMARK   24  A    between atoms: C_53  and  C_61
REMARK   25  A    between atoms: C_54  and  O_60
REMARK   26  A    between atoms: C_56  and  O_59
REMARK   27  A    between atoms: C_57  and  C_58
REMARK   28  A    between atoms: O_62  and  C_63
REMARK   29  A    between atoms: C_69  and  C_70
REMARK   30  A    between atoms: C_69  and  C_85
REMARK   31  A    between atoms: C_70  and  O_71
REMARK   32  A    between atoms: C_70  and  C_72
REMARK   33  A    between atoms: C_72  and  C_73
REMARK   34  A    between atoms: C_72  and  C_84
REMARK   35  A    between atoms: C_73  and  C_74
REMARK   36  A    between atoms: C_74  and  C_75
REMARK   37  A    between atoms: C_77  and  C_83
REMARK   38  A    between atoms: C_79  and  O_81
REMARK   39  A    between atoms: O_81  and  C_82
REMARK   40  A    between atoms: O_90  and  C_91
REMARK                            x       y       z     vdW  Elec       q    Type
REMARK                         _______ _______ _______ _____ _____    ______ ____
ROOT
ATOM      1  C   UNL     1     148.866 167.384 191.416  0.00  0.00    +0.113 C 
ATOM      2  O   UNL     1     150.125 167.372 190.689  0.00  0.00    -0.458 OA
ATOM      3  C   UNL     1     151.253 167.333 191.449  0.00  0.00    +0.332 C 
ATOM      4  O   UNL     1     151.301 167.353 192.674  0.00  0.00    -0.246 OA
ATOM      5  C   UNL     1     152.485 167.269 190.647  0.00  0.00    +0.023 C 
ATOM      6  C   UNL     1     152.553 166.793 189.395  0.00  0.00    -0.052 C 
ATOM      7  C   UNL     1     153.792 166.601 188.647  0.00  0.00    -0.054 C 
ATOM      8  C   UNL     1     154.884 166.056 189.223  0.00  0.00    -0.079 C 
ATOM      9  C   UNL     1     156.132 165.605 188.506  0.00  0.00    -0.008 C 
ATOM     10  C   UNL     1     156.841 164.399 189.151  0.00  0.00    +0.061 C 
ATOM     11  C   UNL     1     155.988 163.199 189.587  0.00  0.00    +0.003 C 
ATOM     12  C   UNL     1     155.326 162.331 188.500  0.00  0.00    +0.080 C 
ATOM     13  O   UNL     1     154.992 161.100 189.188  0.00  0.00    -0.369 OA
ATOM     14  C   UNL     1     153.902 160.332 188.651  0.00  0.00    +0.065 C 
ATOM     15  C   UNL     1     154.278 159.712 187.289  0.00  0.00    +0.000 C 
ATOM     16  C   UNL     1     153.213 158.743 186.734  0.00  0.00    +0.066 C 
ATOM     17  C   UNL     1     153.643 158.224 185.327  0.00  0.00    +0.009 C 
ATOM     18  C   UNL     1     152.592 158.526 184.228  0.00  0.00    +0.063 C 
ATOM     19  C   UNL     1     152.419 160.035 183.948  0.00  0.00    -0.000 C 
ATOM     20  C   UNL     1     151.542 160.283 182.703  0.00  0.00    +0.064 C 
ATOM     21  C   UNL     1     151.466 161.768 182.228  0.00  0.00    +0.020 C 
ATOM     22  C   UNL     1     150.937 162.753 183.317  0.00  0.00    +0.113 C 
ATOM     23  O   UNL     1     149.598 162.318 183.673  0.00  0.00    -0.458 OA
ATOM     24  C   UNL     1     149.317 162.245 185.002  0.00  0.00    +0.332 C 
ATOM     25  O   UNL     1     150.039 162.618 185.911  0.00  0.00    -0.246 OA
ATOM     26  C   UNL     1     147.964 161.672 185.178  0.00  0.00    +0.023 C 
ATOM     27  C   UNL     1     147.493 161.475 186.419  0.00  0.00    -0.052 C 
ATOM     28  C   UNL     1     146.178 160.950 186.763  0.00  0.00    -0.054 C 
ATOM     29  C   UNL     1     145.051 161.485 186.249  0.00  0.00    -0.079 C 
ATOM     30  C   UNL     1     143.632 161.084 186.543  0.00  0.00    -0.008 C 
ATOM     31  C   UNL     1     142.857 162.055 187.466  0.00  0.00    +0.061 C 
ATOM     32  C   UNL     1     142.335 163.303 186.724  0.00  0.00    +0.003 C 
ATOM     33  C   UNL     1     141.340 164.141 187.558  0.00  0.00    +0.080 C 
ATOM     34  O   UNL     1     142.019 164.994 188.495  0.00  0.00    -0.369 OA
ATOM     35  C   UNL     1     142.222 166.369 188.096  0.00  0.00    +0.065 C 
ATOM     36  C   UNL     1     142.870 167.058 189.311  0.00  0.00    +0.000 C 
ATOM     37  C   UNL     1     143.301 168.540 189.200  0.00  0.00    +0.066 C 
ATOM     38  C   UNL     1     144.408 168.754 188.122  0.00  0.00    +0.009 C 
ATOM     39  C   UNL     1     145.610 169.608 188.614  0.00  0.00    +0.063 C 
ATOM     40  C   UNL     1     146.174 169.178 189.978  0.00  0.00    -0.000 C 
ATOM     41  C   UNL     1     147.698 169.377 190.082  0.00  0.00    +0.064 C 
ATOM     42  C   UNL     1     148.241 168.824 191.433  0.00  0.00    +0.020 C 
ATOM     43  C   UNL     1     140.896 167.030 187.694  0.00  0.00    -0.008 C 
ATOM     44  C   UNL     1     140.149 166.188 186.714  0.00  0.00    -0.083 C 
ATOM     45  C   UNL     1     140.363 164.871 186.666  0.00  0.00    -0.059 C 
ATOM     46  C   UNL     1     152.633 161.202 188.658  0.00  0.00    -0.008 C 
ATOM     47  C   UNL     1     152.879 162.494 187.951  0.00  0.00    -0.083 C 
ATOM     48  C   UNL     1     154.122 162.983 187.862  0.00  0.00    -0.059 C 
ATOM     49  H   UNL     1     149.077 167.168 192.475  0.00  0.00    +0.074 HD
ATOM     50  H   UNL     1     153.376 167.559 191.193  0.00  0.00    +0.069 HD
ATOM     51  H   UNL     1     151.656 166.472 188.871  0.00  0.00    +0.062 HD
ATOM     52  H   UNL     1     154.866 165.840 190.290  0.00  0.00    +0.058 HD
ATOM     53  H   UNL     1     155.937 165.378 187.452  0.00  0.00    +0.033 HD
ATOM     54  H   UNL     1     156.841 166.444 188.494  0.00  0.00    +0.033 HD
ATOM     55  H   UNL     1     157.344 164.775 190.052  0.00  0.00    +0.060 HD
ATOM     56  H   UNL     1     155.229 163.512 190.316  0.00  0.00    +0.032 HD
ATOM     57  H   UNL     1     156.655 162.535 190.156  0.00  0.00    +0.032 HD
ATOM     58  H   UNL     1     156.055 162.075 187.723  0.00  0.00    +0.064 HD
ATOM     59  H   UNL     1     153.746 159.515 189.366  0.00  0.00    +0.060 HD
ATOM     60  H   UNL     1     155.226 159.171 187.424  0.00  0.00    +0.032 HD
ATOM     61  H   UNL     1     154.482 160.498 186.551  0.00  0.00    +0.032 HD
ATOM     62  H   UNL     1     152.264 159.282 186.662  0.00  0.00    +0.060 HD
ATOM     63  H   UNL     1     154.557 158.753 185.019  0.00  0.00    +0.035 HD
ATOM     64  H   UNL     1     152.914 158.040 183.298  0.00  0.00    +0.060 HD
ATOM     65  H   UNL     1     151.936 160.501 184.814  0.00  0.00    +0.032 HD
ATOM     66  H   UNL     1     153.405 160.494 183.811  0.00  0.00    +0.032 HD
ATOM     67  H   UNL     1     151.940 159.688 181.871  0.00  0.00    +0.060 HD
ATOM     68  H   UNL     1     150.744 161.770 181.401  0.00  0.00    +0.036 HD
ATOM     69  H   UNL     1     151.612 162.666 184.176  0.00  0.00    +0.074 HD
ATOM     70  H   UNL     1     147.398 161.425 184.290  0.00  0.00    +0.069 HD
ATOM     71  H   UNL     1     148.127 161.717 187.273  0.00  0.00    +0.062 HD
ATOM     72  H   UNL     1     145.137 162.295 185.527  0.00  0.00    +0.058 HD
ATOM     73  H   UNL     1     143.096 160.981 185.589  0.00  0.00    +0.033 HD
ATOM     74  H   UNL     1     143.597 160.074 186.969  0.00  0.00    +0.033 HD
ATOM     75  H   UNL     1     143.474 162.363 188.318  0.00  0.00    +0.060 HD
ATOM     76  H   UNL     1     141.829 162.956 185.813  0.00  0.00    +0.032 HD
ATOM     77  H   UNL     1     143.185 163.923 186.413  0.00  0.00    +0.032 HD
ATOM     78  H   UNL     1     140.727 163.473 188.173  0.00  0.00    +0.064 HD
ATOM     79  H   UNL     1     142.919 166.366 187.252  0.00  0.00    +0.060 HD
ATOM     80  H   UNL     1     143.754 166.469 189.598  0.00  0.00    +0.032 HD
ATOM     81  H   UNL     1     142.186 166.949 190.162  0.00  0.00    +0.032 HD
ATOM     82  H   UNL     1     143.716 168.793 190.181  0.00  0.00    +0.060 HD
ATOM     83  H   UNL     1     144.840 167.773 187.894  0.00  0.00    +0.035 HD
ATOM     84  H   UNL     1     146.396 169.512 187.853  0.00  0.00    +0.060 HD
ATOM     85  H   UNL     1     145.696 169.779 190.765  0.00  0.00    +0.032 HD
ATOM     86  H   UNL     1     145.922 168.140 190.172  0.00  0.00    +0.032 HD
ATOM     87  H   UNL     1     148.214 168.895 189.246  0.00  0.00    +0.060 HD
ATOM     88  H   UNL     1     147.398 168.788 192.139  0.00  0.00    +0.036 HD
ATOM     89  H   UNL     1     141.078 168.011 187.243  0.00  0.00    +0.033 HD
ATOM     90  H   UNL     1     140.251 167.177 188.568  0.00  0.00    +0.033 HD
ATOM     91  H   UNL     1     139.403 166.658 186.080  0.00  0.00    +0.057 HD
ATOM     92  H   UNL     1     139.784 164.265 185.972  0.00  0.00    +0.059 HD
ATOM     93  H   UNL     1     152.352 161.438 189.692  0.00  0.00    +0.033 HD
ATOM     94  H   UNL     1     151.787 160.678 188.208  0.00  0.00    +0.033 HD
ATOM     95  H   UNL     1     152.040 163.016 187.501  0.00  0.00    +0.057 HD
ATOM     96  H   UNL     1     154.281 163.890 187.290  0.00  0.00    +0.059 HD
ENDROOT
BRANCH  28  97
ATOM     97  C   UNL     1     146.219 159.858 187.802  0.00  0.00    -0.040 C 
ATOM     98  H   UNL     1     146.099 158.872 187.338  0.00  0.00    +0.028 HD
ATOM     99  H   UNL     1     145.407 159.997 188.524  0.00  0.00    +0.028 HD
ATOM    100  H   UNL     1     147.159 159.825 188.358  0.00  0.00    +0.028 HD
ENDBRANCH  28  97
BRANCH  21 101
ATOM    101  C   UNL     1     152.825 162.201 181.665  0.00  0.00    -0.057 C 
ATOM    102  H   UNL     1     152.787 163.215 181.253  0.00  0.00    +0.023 HD
ATOM    103  H   UNL     1     153.158 161.526 180.871  0.00  0.00    +0.023 HD
ATOM    104  H   UNL     1     153.598 162.179 182.441  0.00  0.00    +0.023 HD
ENDBRANCH  21 101
BRANCH  42 105
ATOM    105  C   UNL     1     149.255 169.804 192.071  0.00  0.00    -0.057 C 
ATOM    106  H   UNL     1     149.024 169.977 193.128  0.00  0.00    +0.023 HD
ATOM    107  H   UNL     1     150.281 169.427 191.997  0.00  0.00    +0.023 HD
ATOM    108  H   UNL     1     149.216 170.784 191.583  0.00  0.00    +0.023 HD
ENDBRANCH  42 105
BRANCH  17 109
ATOM    109  C   UNL     1     153.997 156.729 185.316  0.00  0.00    -0.058 C 
ATOM    110  H   UNL     1     155.050 156.553 185.553  0.00  0.00    +0.023 HD
ATOM    111  H   UNL     1     153.398 156.188 186.057  0.00  0.00    +0.023 HD
ATOM    112  H   UNL     1     153.782 156.285 184.339  0.00  0.00    +0.023 HD
ENDBRANCH  17 109
BRANCH  38 113
ATOM    113  C   UNL     1     143.868 169.334 186.803  0.00  0.00    -0.058 C 
ATOM    114  H   UNL     1     144.033 168.660 185.955  0.00  0.00    +0.023 HD
ATOM    115  H   UNL     1     144.338 170.292 186.567  0.00  0.00    +0.023 HD
ATOM    116  H   UNL     1     142.787 169.506 186.871  0.00  0.00    +0.023 HD
ENDBRANCH  38 113
BRANCH   7 117
ATOM    117  C   UNL     1     153.690 166.955 187.190  0.00  0.00    -0.040 C 
ATOM    118  H   UNL     1     153.234 166.136 186.623  0.00  0.00    +0.028 HD
ATOM    119  H   UNL     1     154.682 167.154 186.780  0.00  0.00    +0.028 HD
ATOM    120  H   UNL     1     153.066 167.836 187.016  0.00  0.00    +0.028 HD
ENDBRANCH   7 117
BRANCH   1 121
ATOM    121  C   UNL     1     148.008 166.143 190.970  0.00  0.00    +0.020 C 
ATOM    122  H   UNL     1     148.697 165.291 191.084  0.00  0.00    +0.036 HD
BRANCH 121 123
ATOM    123  C   UNL     1     146.862 165.943 191.980  0.00  0.00    -0.057 C 
ATOM    124  H   UNL     1     146.311 165.023 191.774  0.00  0.00    +0.023 HD
ATOM    125  H   UNL     1     146.151 166.771 191.970  0.00  0.00    +0.023 HD
ATOM    126  H   UNL     1     147.231 165.831 193.004  0.00  0.00    +0.023 HD
ENDBRANCH 121 123
BRANCH 121 127
ATOM    127  C   UNL     1     147.552 166.088 189.472  0.00  0.00    +0.064 C 
ATOM    128  H   UNL     1     146.749 166.806 189.333  0.00  0.00    +0.060 HD
BRANCH 127 129
ATOM    129  C   UNL     1     147.065 164.725 188.873  0.00  0.00    -0.017 C 
ATOM    130  H   UNL     1     147.552 163.918 189.436  0.00  0.00    +0.032 HD
BRANCH 129 131
ATOM    131  C   UNL     1     145.564 164.451 188.938  0.00  0.00    -0.060 C 
ATOM    132  H   UNL     1     145.097 165.021 189.746  0.00  0.00    +0.023 HD
ATOM    133  H   UNL     1     145.068 164.669 187.989  0.00  0.00    +0.023 HD
ATOM    134  H   UNL     1     145.373 163.395 189.170  0.00  0.00    +0.023 HD
ENDBRANCH 129 131
BRANCH 129 135
ATOM    135  C   UNL     1     147.505 164.583 187.385  0.00  0.00    -0.046 C 
ATOM    136  H   UNL     1     147.905 163.578 187.214  0.00  0.00    +0.027 HD
ATOM    137  H   UNL     1     148.339 165.263 187.197  0.00  0.00    +0.027 HD
BRANCH 135 138
ATOM    138  C   UNL     1     146.408 164.895 186.367  0.00  0.00    -0.026 C 
ATOM    139  H   UNL     1     145.468 165.079 186.894  0.00  0.00    +0.029 HD
ATOM    140  H   UNL     1     146.230 164.022 185.735  0.00  0.00    +0.029 HD
BRANCH 138 143
ATOM    141  C   UNL     1     147.270 168.443 185.589  0.00  0.00    +0.059 C 
ATOM    142  O   UNL     1     146.776 167.286 186.281  0.00  0.00    -0.373 OA
ATOM    143  C   UNL     1     146.739 166.104 185.476  0.00  0.00    +0.061 C 
ATOM    144  C   UNL     1     145.711 166.283 184.358  0.00  0.00    -0.000 C 
ATOM    145  C   UNL     1     145.619 167.731 183.861  0.00  0.00    +0.063 C 
ATOM    146  C   UNL     1     146.945 168.441 184.095  0.00  0.00    -0.000 C 
ATOM    147  H   UNL     1     146.758 169.297 186.049  0.00  0.00    +0.059 HD
ATOM    148  H   UNL     1     147.735 165.964 185.043  0.00  0.00    +0.060 HD
ATOM    149  H   UNL     1     145.952 165.602 183.538  0.00  0.00    +0.032 HD
ATOM    150  H   UNL     1     144.710 165.995 184.701  0.00  0.00    +0.032 HD
ATOM    151  H   UNL     1     144.819 168.241 184.414  0.00  0.00    +0.060 HD
ATOM    152  H   UNL     1     147.728 167.932 183.515  0.00  0.00    +0.032 HD
ATOM    153  H   UNL     1     146.933 169.470 183.719  0.00  0.00    +0.032 HD
BRANCH 141 154
ATOM    154  C   UNL     1     148.766 168.605 185.839  0.00  0.00    -0.039 C 
ATOM    155  H   UNL     1     149.261 169.082 184.990  0.00  0.00    +0.025 HD
ATOM    156  H   UNL     1     148.949 169.209 186.734  0.00  0.00    +0.025 HD
ATOM    157  H   UNL     1     149.241 167.630 185.976  0.00  0.00    +0.025 HD
ENDBRANCH 141 154
BRANCH 145 158
ATOM    158  O   UNL     1     145.275 167.685 182.473  0.00  0.00    -0.380 OA
BRANCH 158 159
ATOM    159  C   UNL     1     145.806 166.555 181.791  0.00  0.00    +0.037 C 
ATOM    160  H   UNL     1     146.895 166.581 181.888  0.00  0.00    +0.052 HD
ATOM    161  H   UNL     1     145.561 166.597 180.725  0.00  0.00    +0.052 HD
ATOM    162  H   UNL     1     145.440 165.620 182.225  0.00  0.00    +0.052 HD
ENDBRANCH 158 159
ENDBRANCH 145 158
ENDBRANCH 138 143
ENDBRANCH 135 138
ENDBRANCH 129 135
ENDBRANCH 127 129
BRANCH 127 163
ATOM    163  O   UNL     1     148.601 166.523 188.598  0.00  0.00    -0.391 OA
ATOM    164  H   UNL     1     149.411 166.667 189.116  0.00  0.00    +0.210 HD
ENDBRANCH 127 163
ENDBRANCH 121 127
ENDBRANCH   1 121
BRANCH  41 165
ATOM    165  O   UNL     1     147.965 170.779 189.974  0.00  0.00    -0.391 OA
ATOM    166  H   UNL     1     148.265 171.116 190.843  0.00  0.00    +0.210 HD
ENDBRANCH  41 165
BRANCH  39 167
ATOM    167  O   UNL     1     145.303 170.999 188.690  0.00  0.00    -0.391 OA
ATOM    168  H   UNL     1     146.026 171.493 188.259  0.00  0.00    +0.210 HD
ENDBRANCH  39 167
BRANCH  31 169
ATOM    169  O   UNL     1     141.734 161.328 187.985  0.00  0.00    -0.391 OA
ATOM    170  H   UNL     1     141.842 161.283 188.951  0.00  0.00    +0.210 HD
ENDBRANCH  31 169
BRANCH  22 171
ATOM    171  C   UNL     1     150.902 164.260 182.876  0.00  0.00    +0.020 C 
ATOM    172  H   UNL     1     151.235 164.288 181.833  0.00  0.00    +0.036 HD
BRANCH 171 173
ATOM    173  C   UNL     1     149.490 164.845 182.948  0.00  0.00    -0.057 C 
ATOM    174  H   UNL     1     148.897 164.345 183.715  0.00  0.00    +0.023 HD
ATOM    175  H   UNL     1     148.961 164.745 181.995  0.00  0.00    +0.023 HD
ATOM    176  H   UNL     1     149.506 165.914 183.179  0.00  0.00    +0.023 HD
ENDBRANCH 171 173
BRANCH 171 177
ATOM    177  C   UNL     1     151.916 165.106 183.691  0.00  0.00    +0.064 C 
ATOM    178  H   UNL     1     151.596 166.152 183.676  0.00  0.00    +0.060 HD
BRANCH 177 179
ATOM    179  O   UNL     1     151.864 164.656 185.047  0.00  0.00    -0.391 OA
ATOM    180  H   UNL     1     152.287 163.768 185.060  0.00  0.00    +0.210 HD
ENDBRANCH 177 179
BRANCH 177 181
ATOM    181  C   UNL     1     153.398 165.090 183.218  0.00  0.00    -0.017 C 
ATOM    182  H   UNL     1     153.701 164.041 183.099  0.00  0.00    +0.032 HD
BRANCH 181 183
ATOM    183  C   UNL     1     153.493 165.745 181.829  0.00  0.00    -0.060 C 
ATOM    184  H   UNL     1     153.978 166.726 181.880  0.00  0.00    +0.023 HD
ATOM    185  H   UNL     1     154.057 165.124 181.127  0.00  0.00    +0.023 HD
ATOM    186  H   UNL     1     152.502 165.889 181.395  0.00  0.00    +0.023 HD
ENDBRANCH 181 183
BRANCH 181 187
ATOM    187  C   UNL     1     154.380 165.777 184.195  0.00  0.00    -0.046 C 
ATOM    188  H   UNL     1     153.971 165.763 185.211  0.00  0.00    +0.027 HD
ATOM    189  H   UNL     1     154.496 166.831 183.916  0.00  0.00    +0.027 HD
BRANCH 187 190
ATOM    190  C   UNL     1     155.754 165.086 184.233  0.00  0.00    -0.026 C 
ATOM    191  H   UNL     1     155.683 164.112 183.743  0.00  0.00    +0.029 HD
ATOM    192  H   UNL     1     156.028 164.891 185.277  0.00  0.00    +0.029 HD
BRANCH 190 193
ATOM    193  C   UNL     1     156.864 165.919 183.568  0.00  0.00    +0.061 C 
ATOM    194  O   UNL     1     158.161 165.628 184.096  0.00  0.00    -0.373 OA
ATOM    195  C   UNL     1     158.378 166.069 185.439  0.00  0.00    +0.059 C 
ATOM    196  C   UNL     1     158.181 167.579 185.558  0.00  0.00    -0.000 C 
ATOM    197  C   UNL     1     156.804 167.991 185.038  0.00  0.00    +0.063 C 
ATOM    198  C   UNL     1     156.593 167.423 183.634  0.00  0.00    -0.000 C 
ATOM    199  H   UNL     1     156.897 165.635 182.510  0.00  0.00    +0.060 HD
ATOM    200  H   UNL     1     157.692 165.541 186.110  0.00  0.00    +0.059 HD
ATOM    201  H   UNL     1     158.949 168.110 184.980  0.00  0.00    +0.032 HD
ATOM    202  H   UNL     1     158.311 167.892 186.600  0.00  0.00    +0.032 HD
ATOM    203  H   UNL     1     156.019 167.611 185.702  0.00  0.00    +0.060 HD
ATOM    204  H   UNL     1     157.278 167.940 182.947  0.00  0.00    +0.032 HD
ATOM    205  H   UNL     1     155.583 167.661 183.277  0.00  0.00    +0.032 HD
BRANCH 195 206
ATOM    206  C   UNL     1     159.801 165.676 185.822  0.00  0.00    -0.039 C 
ATOM    207  H   UNL     1     159.904 164.586 185.832  0.00  0.00    +0.025 HD
ATOM    208  H   UNL     1     160.065 166.062 186.811  0.00  0.00    +0.025 HD
ATOM    209  H   UNL     1     160.523 166.054 185.090  0.00  0.00    +0.025 HD
ENDBRANCH 195 206
BRANCH 197 210
ATOM    210  O   UNL     1     156.682 169.416 184.942  0.00  0.00    -0.380 OA
BRANCH 210 211
ATOM    211  C   UNL     1     157.924 170.105 185.022  0.00  0.00    +0.037 C 
ATOM    212  H   UNL     1     157.736 171.092 185.457  0.00  0.00    +0.052 HD
ATOM    213  H   UNL     1     158.357 170.249 184.028  0.00  0.00    +0.052 HD
ATOM    214  H   UNL     1     158.625 169.568 185.668  0.00  0.00    +0.052 HD
ENDBRANCH 210 211
ENDBRANCH 197 210
ENDBRANCH 190 193
ENDBRANCH 187 190
ENDBRANCH 181 187
ENDBRANCH 177 181
ENDBRANCH 171 177
ENDBRANCH  22 171
BRANCH  20 215
ATOM    215  O   UNL     1     150.236 159.751 182.967  0.00  0.00    -0.391 OA
ATOM    216  H   UNL     1     149.726 159.801 182.138  0.00  0.00    +0.210 HD
ENDBRANCH  20 215
BRANCH  18 217
ATOM    217  O   UNL     1     151.336 157.946 184.586  0.00  0.00    -0.391 OA
ATOM    218  H   UNL     1     151.175 158.190 185.521  0.00  0.00    +0.210 HD
ENDBRANCH  18 217
BRANCH  10 219
ATOM    219  O   UNL     1     157.877 163.960 188.268  0.00  0.00    -0.391 OA
ATOM    220  H   UNL     1     157.967 164.633 187.568  0.00  0.00    +0.210 HD
ENDBRANCH  10 219
BRANCH  37 221
ATOM    221  O   UNL     1     142.217 169.442 188.974  0.00  0.00    -0.379 OA
BRANCH 221 222
ATOM    222  C   UNL     1     142.001 170.376 190.023  0.00  0.00    +0.037 C 
ATOM    223  H   UNL     1     141.898 171.368 189.575  0.00  0.00    +0.052 HD
ATOM    224  H   UNL     1     141.080 170.152 190.566  0.00  0.00    +0.052 HD
ATOM    225  H   UNL     1     142.852 170.391 190.711  0.00  0.00    +0.052 HD
ENDBRANCH 221 222
ENDBRANCH  37 221
BRANCH  16 226
ATOM    226  O   UNL     1     153.095 157.675 187.687  0.00  0.00    -0.379 OA
BRANCH 226 227
ATOM    227  C   UNL     1     151.743 157.350 187.986  0.00  0.00    +0.037 C 
ATOM    228  H   UNL     1     151.506 157.535 189.038  0.00  0.00    +0.052 HD
ATOM    229  H   UNL     1     151.555 156.299 187.738  0.00  0.00    +0.052 HD
ATOM    230  H   UNL     1     151.092 157.977 187.369  0.00  0.00    +0.052 HD
ENDBRANCH 226 227
ENDBRANCH  16 226
TORSDOF 40
ENDMDL
MODEL 3
REMARK VINA RESULT:      -4.7      4.731     11.923
REMARK  Name = Swinholide A_conf1
REMARK  40 active torsions:
REMARK  status: ('A' for Active; 'I' for Inactive)
REMARK    1  A    between atoms: C_1  and  C_2
REMARK    2  A    between atoms: C_4  and  C_10
REMARK    3  A    between atoms: C_6  and  O_8
REMARK    4  A    between atoms: O_8  and  C_9
REMARK    5  A    between atoms: C_10  and  C_11
REMARK    6  A    between atoms: C_11  and  C_12
REMARK    7  A    between atoms: C_12  and  C_13
REMARK    8  A    between atoms: C_12  and  C_98
REMARK    9  A    between atoms: C_13  and  O_14
REMARK   10  A    between atoms: C_13  and  C_15
REMARK   11  A    between atoms: C_15  and  C_16
REMARK   12  A    between atoms: C_15  and  C_97
REMARK   13  A    between atoms: C_22  and  C_96
REMARK   14  A    between atoms: C_25  and  O_95
REMARK   15  A    between atoms: C_31  and  O_90
REMARK   16  A    between atoms: C_32  and  C_89
REMARK   17  A    between atoms: C_33  and  O_88
REMARK   18  A    between atoms: C_35  and  O_87
REMARK   19  A    between atoms: C_36  and  C_86
REMARK   20  A    between atoms: C_37  and  C_69
REMARK   21  A    between atoms: C_43  and  C_68
REMARK   22  A    between atoms: C_46  and  O_67
REMARK   23  A    between atoms: C_52  and  O_62
REMARK   24  A    between atoms: C_53  and  C_61
REMARK   25  A    between atoms: C_54  and  O_60
REMARK   26  A    between atoms: C_56  and  O_59
REMARK   27  A    between atoms: C_57  and  C_58
REMARK   28  A    between atoms: O_62  and  C_63
REMARK   29  A    between atoms: C_69  and  C_70
REMARK   30  A    between atoms: C_69  and  C_85
REMARK   31  A    between atoms: C_70  and  O_71
REMARK   32  A    between atoms: C_70  and  C_72
REMARK   33  A    between atoms: C_72  and  C_73
REMARK   34  A    between atoms: C_72  and  C_84
REMARK   35  A    between atoms: C_73  and  C_74
REMARK   36  A    between atoms: C_74  and  C_75
REMARK   37  A    between atoms: C_77  and  C_83
REMARK   38  A    between atoms: C_79  and  O_81
REMARK   39  A    between atoms: O_81  and  C_82
REMARK   40  A    between atoms: O_90  and  C_91
REMARK                            x       y       z     vdW  Elec       q    Type
REMARK                         _______ _______ _______ _____ _____    ______ ____
ROOT
ATOM      1  C   UNL     1     149.685 167.481 191.971  0.00  0.00    +0.113 C 
ATOM      2  O   UNL     1     150.891 167.280 191.183  0.00  0.00    -0.458 OA
ATOM      3  C   UNL     1     152.027 167.024 191.887  0.00  0.00    +0.332 C 
ATOM      4  O   UNL     1     152.129 166.991 193.109  0.00  0.00    -0.246 OA
ATOM      5  C   UNL     1     153.194 166.779 191.026  0.00  0.00    +0.023 C 
ATOM      6  C   UNL     1     153.127 166.344 189.759  0.00  0.00    -0.052 C 
ATOM      7  C   UNL     1     154.281 165.970 188.947  0.00  0.00    -0.054 C 
ATOM      8  C   UNL     1     155.287 165.228 189.454  0.00  0.00    -0.079 C 
ATOM      9  C   UNL     1     156.408 164.597 188.666  0.00  0.00    -0.008 C 
ATOM     10  C   UNL     1     156.926 163.265 189.242  0.00  0.00    +0.061 C 
ATOM     11  C   UNL     1     155.899 162.214 189.684  0.00  0.00    +0.003 C 
ATOM     12  C   UNL     1     155.052 161.511 188.607  0.00  0.00    +0.080 C 
ATOM     13  O   UNL     1     154.542 160.330 189.275  0.00  0.00    -0.369 OA
ATOM     14  C   UNL     1     153.315 159.779 188.770  0.00  0.00    +0.065 C 
ATOM     15  C   UNL     1     153.520 159.153 187.374  0.00  0.00    +0.000 C 
ATOM     16  C   UNL     1     152.282 158.399 186.844  0.00  0.00    +0.066 C 
ATOM     17  C   UNL     1     152.556 157.866 185.404  0.00  0.00    +0.009 C 
ATOM     18  C   UNL     1     151.527 158.381 184.365  0.00  0.00    +0.063 C 
ATOM     19  C   UNL     1     151.604 159.907 184.137  0.00  0.00    -0.000 C 
ATOM     20  C   UNL     1     150.730 160.345 182.943  0.00  0.00    +0.064 C 
ATOM     21  C   UNL     1     150.890 161.837 182.514  0.00  0.00    +0.020 C 
ATOM     22  C   UNL     1     150.584 162.859 183.655  0.00  0.00    +0.113 C 
ATOM     23  O   UNL     1     149.207 162.644 184.062  0.00  0.00    -0.458 OA
ATOM     24  C   UNL     1     148.975 162.573 185.400  0.00  0.00    +0.332 C 
ATOM     25  O   UNL     1     149.788 162.785 186.284  0.00  0.00    -0.246 OA
ATOM     26  C   UNL     1     147.552 162.232 185.625  0.00  0.00    +0.023 C 
ATOM     27  C   UNL     1     147.107 162.074 186.881  0.00  0.00    -0.052 C 
ATOM     28  C   UNL     1     145.737 161.769 187.273  0.00  0.00    -0.054 C 
ATOM     29  C   UNL     1     144.698 162.506 186.829  0.00  0.00    -0.079 C 
ATOM     30  C   UNL     1     143.245 162.342 187.180  0.00  0.00    -0.008 C 
ATOM     31  C   UNL     1     142.689 163.397 188.165  0.00  0.00    +0.061 C 
ATOM     32  C   UNL     1     142.357 164.741 187.484  0.00  0.00    +0.003 C 
ATOM     33  C   UNL     1     141.557 165.706 188.388  0.00  0.00    +0.080 C 
ATOM     34  O   UNL     1     142.412 166.397 189.315  0.00  0.00    -0.369 OA
ATOM     35  C   UNL     1     142.830 167.730 188.946  0.00  0.00    +0.065 C 
ATOM     36  C   UNL     1     143.638 168.255 190.147  0.00  0.00    +0.000 C 
ATOM     37  C   UNL     1     144.312 169.645 190.057  0.00  0.00    +0.066 C 
ATOM     38  C   UNL     1     145.392 169.706 188.933  0.00  0.00    +0.009 C 
ATOM     39  C   UNL     1     146.743 170.325 189.391  0.00  0.00    +0.063 C 
ATOM     40  C   UNL     1     147.282 169.757 190.714  0.00  0.00    -0.000 C 
ATOM     41  C   UNL     1     148.821 169.690 190.750  0.00  0.00    +0.064 C 
ATOM     42  C   UNL     1     149.317 169.005 192.058  0.00  0.00    +0.020 C 
ATOM     43  C   UNL     1     141.622 168.622 188.626  0.00  0.00    -0.008 C 
ATOM     44  C   UNL     1     140.700 167.954 187.661  0.00  0.00    -0.083 C 
ATOM     45  C   UNL     1     140.683 166.623 187.565  0.00  0.00    -0.059 C 
ATOM     46  C   UNL     1     152.215 160.850 188.862  0.00  0.00    -0.008 C 
ATOM     47  C   UNL     1     152.648 162.106 188.181  0.00  0.00    -0.083 C 
ATOM     48  C   UNL     1     153.952 162.380 188.045  0.00  0.00    -0.059 C 
ATOM     49  H   UNL     1     149.900 167.194 193.011  0.00  0.00    +0.074 HD
ATOM     50  H   UNL     1     154.145 166.894 191.536  0.00  0.00    +0.069 HD
ATOM     51  H   UNL     1     152.166 166.200 189.269  0.00  0.00    +0.062 HD
ATOM     52  H   UNL     1     155.278 164.980 190.515  0.00  0.00    +0.058 HD
ATOM     53  H   UNL     1     156.132 164.445 187.616  0.00  0.00    +0.033 HD
ATOM     54  H   UNL     1     157.249 165.304 188.643  0.00  0.00    +0.033 HD
ATOM     55  H   UNL     1     157.523 163.518 190.128  0.00  0.00    +0.060 HD
ATOM     56  H   UNL     1     155.237 162.625 190.457  0.00  0.00    +0.032 HD
ATOM     57  H   UNL     1     156.465 161.426 190.202  0.00  0.00    +0.032 HD
ATOM     58  H   UNL     1     155.693 161.162 187.789  0.00  0.00    +0.064 HD
ATOM     59  H   UNL     1     153.051 158.975 189.468  0.00  0.00    +0.060 HD
ATOM     60  H   UNL     1     154.366 158.454 187.448  0.00  0.00    +0.032 HD
ATOM     61  H   UNL     1     153.824 159.918 186.650  0.00  0.00    +0.032 HD
ATOM     62  H   UNL     1     151.437 159.095 186.833  0.00  0.00    +0.060 HD
ATOM     63  H   UNL     1     153.533 158.243 185.067  0.00  0.00    +0.035 HD
ATOM     64  H   UNL     1     151.720 157.881 183.408  0.00  0.00    +0.060 HD
ATOM     65  H   UNL     1     151.245 160.417 185.038  0.00  0.00    +0.032 HD
ATOM     66  H   UNL     1     152.647 160.196 183.966  0.00  0.00    +0.032 HD
ATOM     67  H   UNL     1     150.984 159.721 182.076  0.00  0.00    +0.060 HD
ATOM     68  H   UNL     1     150.145 161.992 181.723  0.00  0.00    +0.036 HD
ATOM     69  H   UNL     1     151.270 162.627 184.477  0.00  0.00    +0.074 HD
ATOM     70  H   UNL     1     146.915 162.118 184.759  0.00  0.00    +0.069 HD
ATOM     71  H   UNL     1     147.809 162.174 187.710  0.00  0.00    +0.062 HD
ATOM     72  H   UNL     1     144.891 163.314 186.126  0.00  0.00    +0.058 HD
ATOM     73  H   UNL     1     142.660 162.366 186.250  0.00  0.00    +0.033 HD
ATOM     74  H   UNL     1     143.055 161.338 187.578  0.00  0.00    +0.033 HD
ATOM     75  H   UNL     1     143.385 163.564 188.995  0.00  0.00    +0.060 HD
ATOM     76  H   UNL     1     141.761 164.518 186.590  0.00  0.00    +0.032 HD
ATOM     77  H   UNL     1     143.287 165.218 187.151  0.00  0.00    +0.032 HD
ATOM     78  H   UNL     1     140.866 165.130 189.013  0.00  0.00    +0.064 HD
ATOM     79  H   UNL     1     143.480 167.639 188.069  0.00  0.00    +0.060 HD
ATOM     80  H   UNL     1     144.419 167.514 190.375  0.00  0.00    +0.032 HD
ATOM     81  H   UNL     1     142.983 168.234 191.026  0.00  0.00    +0.032 HD
ATOM     82  H   UNL     1     144.805 169.788 191.024  0.00  0.00    +0.060 HD
ATOM     83  H   UNL     1     145.640 168.675 188.658  0.00  0.00    +0.035 HD
ATOM     84  H   UNL     1     147.467 170.124 188.591  0.00  0.00    +0.060 HD
ATOM     85  H   UNL     1     146.948 170.402 191.539  0.00  0.00    +0.032 HD
ATOM     86  H   UNL     1     146.864 168.771 190.891  0.00  0.00    +0.032 HD
ATOM     87  H   UNL     1     149.210 169.157 189.877  0.00  0.00    +0.060 HD
ATOM     88  H   UNL     1     148.512 169.087 192.802  0.00  0.00    +0.036 HD
ATOM     89  H   UNL     1     141.950 169.573 188.195  0.00  0.00    +0.033 HD
ATOM     90  H   UNL     1     141.049 168.844 189.534  0.00  0.00    +0.033 HD
ATOM     91  H   UNL     1     140.020 168.567 187.077  0.00  0.00    +0.057 HD
ATOM     92  H   UNL     1     139.979 166.149 186.883  0.00  0.00    +0.059 HD
ATOM     93  H   UNL     1     152.022 161.094 189.914  0.00  0.00    +0.033 HD
ATOM     94  H   UNL     1     151.273 160.495 188.438  0.00  0.00    +0.033 HD
ATOM     95  H   UNL     1     151.893 162.780 187.786  0.00  0.00    +0.057 HD
ATOM     96  H   UNL     1     154.240 163.267 187.492  0.00  0.00    +0.059 HD
ENDROOT
BRANCH  28  97
ATOM     97  C   UNL     1     145.635 160.649 188.277  0.00  0.00    -0.040 C 
ATOM     98  H   UNL     1     146.624 160.228 188.495  0.00  0.00    +0.028 HD
ATOM     99  H   UNL     1     145.001 159.848 187.882  0.00  0.00    +0.028 HD
ATOM    100  H   UNL     1     145.216 160.965 189.236  0.00  0.00    +0.028 HD
ENDBRANCH  28  97
BRANCH  21 101
ATOM    101  C   UNL     1     152.278 162.053 181.899  0.00  0.00    -0.057 C 
ATOM    102  H   UNL     1     152.436 161.415 181.024  0.00  0.00    +0.023 HD
ATOM    103  H   UNL     1     153.070 161.835 182.622  0.00  0.00    +0.023 HD
ATOM    104  H   UNL     1     152.414 163.095 181.590  0.00  0.00    +0.023 HD
ENDBRANCH  21 101
BRANCH  42 105
ATOM    105  C   UNL     1     150.510 169.774 192.673  0.00  0.00    -0.057 C 
ATOM    106  H   UNL     1     151.232 170.064 191.902  0.00  0.00    +0.023 HD
ATOM    107  H   UNL     1     150.181 170.678 193.198  0.00  0.00    +0.023 HD
ATOM    108  H   UNL     1     151.057 169.147 193.387  0.00  0.00    +0.023 HD
ENDBRANCH  42 105
BRANCH  17 109
ATOM    109  C   UNL     1     152.648 156.334 185.334  0.00  0.00    -0.058 C 
ATOM    110  H   UNL     1     153.660 155.992 185.098  0.00  0.00    +0.023 HD
ATOM    111  H   UNL     1     152.366 155.889 186.295  0.00  0.00    +0.023 HD
ATOM    112  H   UNL     1     151.961 155.936 184.579  0.00  0.00    +0.023 HD
ENDBRANCH  17 109
BRANCH  38 113
ATOM    113  C   UNL     1     144.904 170.417 187.659  0.00  0.00    -0.058 C 
ATOM    114  H   UNL     1     145.363 171.404 187.532  0.00  0.00    +0.023 HD
ATOM    115  H   UNL     1     143.819 170.549 187.668  0.00  0.00    +0.023 HD
ATOM    116  H   UNL     1     145.156 169.829 186.769  0.00  0.00    +0.023 HD
ENDBRANCH  38 113
BRANCH   7 117
ATOM    117  C   UNL     1     154.180 166.390 187.507  0.00  0.00    -0.040 C 
ATOM    118  H   UNL     1     155.174 166.580 187.088  0.00  0.00    +0.028 HD
ATOM    119  H   UNL     1     153.585 167.301 187.421  0.00  0.00    +0.028 HD
ATOM    120  H   UNL     1     153.721 165.623 186.879  0.00  0.00    +0.028 HD
ENDBRANCH   7 117
BRANCH   1 121
ATOM    121  C   UNL     1     148.608 166.420 191.531  0.00  0.00    +0.020 C 
ATOM    122  H   UNL     1     149.148 165.461 191.581  0.00  0.00    +0.036 HD
BRANCH 121 123
ATOM    123  C   UNL     1     147.495 166.375 192.594  0.00  0.00    -0.057 C 
ATOM    124  H   UNL     1     146.785 165.571 192.387  0.00  0.00    +0.023 HD
ATOM    125  H   UNL     1     146.937 167.311 192.651  0.00  0.00    +0.023 HD
ATOM    126  H   UNL     1     147.887 166.158 193.593  0.00  0.00    +0.023 HD
ENDBRANCH 121 123
BRANCH 121 127
ATOM    127  C   UNL     1     148.079 166.504 190.059  0.00  0.00    +0.064 C 
ATOM    128  H   UNL     1     147.472 167.400 189.964  0.00  0.00    +0.060 HD
BRANCH 127 129
ATOM    129  C   UNL     1     147.242 165.313 189.481  0.00  0.00    -0.017 C 
ATOM    130  H   UNL     1     147.748 164.380 189.761  0.00  0.00    +0.032 HD
BRANCH 129 131
ATOM    131  C   UNL     1     145.803 165.188 189.980  0.00  0.00    -0.060 C 
ATOM    132  H   UNL     1     145.459 166.127 190.422  0.00  0.00    +0.023 HD
ATOM    133  H   UNL     1     145.122 164.876 189.184  0.00  0.00    +0.023 HD
ATOM    134  H   UNL     1     145.734 164.439 190.780  0.00  0.00    +0.023 HD
ENDBRANCH 129 131
BRANCH 129 135
ATOM    135  C   UNL     1     147.197 165.368 187.925  0.00  0.00    -0.046 C 
ATOM    136  H   UNL     1     147.492 164.396 187.513  0.00  0.00    +0.027 HD
ATOM    137  H   UNL     1     147.954 166.073 187.574  0.00  0.00    +0.027 HD
BRANCH 135 138
ATOM    138  C   UNL     1     145.850 165.801 187.344  0.00  0.00    -0.026 C 
ATOM    139  H   UNL     1     145.250 166.266 188.131  0.00  0.00    +0.029 HD
ATOM    140  H   UNL     1     145.288 164.923 187.019  0.00  0.00    +0.029 HD
BRANCH 138 143
ATOM    141  C   UNL     1     146.184 166.832 183.772  0.00  0.00    +0.059 C 
ATOM    142  O   UNL     1     146.234 166.036 184.966  0.00  0.00    -0.373 OA
ATOM    143  C   UNL     1     145.990 166.778 186.164  0.00  0.00    +0.061 C 
ATOM    144  C   UNL     1     147.128 167.775 186.384  0.00  0.00    -0.000 C 
ATOM    145  C   UNL     1     147.702 168.322 185.072  0.00  0.00    +0.063 C 
ATOM    146  C   UNL     1     146.637 168.276 183.985  0.00  0.00    -0.000 C 
ATOM    147  H   UNL     1     146.883 166.354 183.074  0.00  0.00    +0.059 HD
ATOM    148  H   UNL     1     145.045 167.318 186.036  0.00  0.00    +0.060 HD
ATOM    149  H   UNL     1     146.774 168.587 187.026  0.00  0.00    +0.032 HD
ATOM    150  H   UNL     1     147.956 167.305 186.929  0.00  0.00    +0.032 HD
ATOM    151  H   UNL     1     148.561 167.702 184.780  0.00  0.00    +0.060 HD
ATOM    152  H   UNL     1     145.798 168.920 184.283  0.00  0.00    +0.032 HD
ATOM    153  H   UNL     1     146.997 168.694 183.038  0.00  0.00    +0.032 HD
BRANCH 141 154
ATOM    154  C   UNL     1     144.790 166.765 183.155  0.00  0.00    -0.039 C 
ATOM    155  H   UNL     1     144.840 166.622 182.073  0.00  0.00    +0.025 HD
ATOM    156  H   UNL     1     144.210 165.943 183.588  0.00  0.00    +0.025 HD
ATOM    157  H   UNL     1     144.248 167.700 183.326  0.00  0.00    +0.025 HD
ENDBRANCH 141 154
BRANCH 145 158
ATOM    158  O   UNL     1     148.151 169.657 185.326  0.00  0.00    -0.380 OA
BRANCH 158 159
ATOM    159  C   UNL     1     147.304 170.658 184.773  0.00  0.00    +0.037 C 
ATOM    160  H   UNL     1     147.600 170.816 183.732  0.00  0.00    +0.052 HD
ATOM    161  H   UNL     1     147.428 171.605 185.307  0.00  0.00    +0.052 HD
ATOM    162  H   UNL     1     146.256 170.347 184.794  0.00  0.00    +0.052 HD
ENDBRANCH 158 159
ENDBRANCH 145 158
ENDBRANCH 138 143
ENDBRANCH 135 138
ENDBRANCH 129 135
ENDBRANCH 127 129
BRANCH 127 163
ATOM    163  O   UNL     1     149.158 166.681 189.132  0.00  0.00    -0.391 OA
ATOM    164  H   UNL     1     149.056 166.052 188.398  0.00  0.00    +0.210 HD
ENDBRANCH 127 163
ENDBRANCH 121 127
ENDBRANCH   1 121
BRANCH  41 165
ATOM    165  O   UNL     1     149.319 171.029 190.669  0.00  0.00    -0.391 OA
ATOM    166  H   UNL     1     149.025 171.528 191.458  0.00  0.00    +0.210 HD
ENDBRANCH  41 165
BRANCH  39 167
ATOM    167  O   UNL     1     146.682 171.744 189.521  0.00  0.00    -0.391 OA
ATOM    168  H   UNL     1     147.594 172.079 189.624  0.00  0.00    +0.210 HD
ENDBRANCH  39 167
BRANCH  31 169
ATOM    169  O   UNL     1     141.481 162.853 188.717  0.00  0.00    -0.391 OA
ATOM    170  H   UNL     1     141.439 163.130 189.648  0.00  0.00    +0.210 HD
ENDBRANCH  31 169
BRANCH  22 171
ATOM    171  C   UNL     1     150.790 164.364 183.258  0.00  0.00    +0.020 C 
ATOM    172  H   UNL     1     151.082 164.372 182.202  0.00  0.00    +0.036 HD
BRANCH 171 173
ATOM    173  C   UNL     1     149.502 165.177 183.408  0.00  0.00    -0.057 C 
ATOM    174  H   UNL     1     149.294 165.391 184.458  0.00  0.00    +0.023 HD
ATOM    175  H   UNL     1     148.638 164.646 182.997  0.00  0.00    +0.023 HD
ATOM    176  H   UNL     1     149.560 166.130 182.876  0.00  0.00    +0.023 HD
ENDBRANCH 171 173
BRANCH 171 177
ATOM    177  C   UNL     1     151.964 164.997 184.051  0.00  0.00    +0.064 C 
ATOM    178  H   UNL     1     151.937 166.083 183.916  0.00  0.00    +0.060 HD
BRANCH 177 179
ATOM    179  O   UNL     1     151.745 164.727 185.437  0.00  0.00    -0.391 OA
ATOM    180  H   UNL     1     151.907 165.573 185.913  0.00  0.00    +0.210 HD
ENDBRANCH 177 179
BRANCH 177 181
ATOM    181  C   UNL     1     153.403 164.540 183.677  0.00  0.00    -0.017 C 
ATOM    182  H   UNL     1     153.321 163.790 182.879  0.00  0.00    +0.032 HD
BRANCH 181 183
ATOM    183  C   UNL     1     154.177 165.735 183.091  0.00  0.00    -0.060 C 
ATOM    184  H   UNL     1     153.511 166.421 182.557  0.00  0.00    +0.023 HD
ATOM    185  H   UNL     1     154.694 166.302 183.870  0.00  0.00    +0.023 HD
ATOM    186  H   UNL     1     154.940 165.400 182.387  0.00  0.00    +0.023 HD
ENDBRANCH 181 183
BRANCH 181 187
ATOM    187  C   UNL     1     154.195 163.922 184.852  0.00  0.00    -0.046 C 
ATOM    188  H   UNL     1     153.670 164.103 185.796  0.00  0.00    +0.027 HD
ATOM    189  H   UNL     1     155.172 164.414 184.934  0.00  0.00    +0.027 HD
BRANCH 187 190
ATOM    190  C   UNL     1     154.380 162.402 184.703  0.00  0.00    -0.026 C 
ATOM    191  H   UNL     1     153.536 161.986 184.147  0.00  0.00    +0.029 HD
ATOM    192  H   UNL     1     154.358 161.939 185.697  0.00  0.00    +0.029 HD
BRANCH 190 193
ATOM    193  C   UNL     1     155.697 162.023 184.001  0.00  0.00    +0.061 C 
ATOM    194  O   UNL     1     155.548 160.906 183.120  0.00  0.00    -0.373 OA
ATOM    195  C   UNL     1     155.318 159.652 183.770  0.00  0.00    +0.059 C 
ATOM    196  C   UNL     1     156.460 159.313 184.726  0.00  0.00    -0.000 C 
ATOM    197  C   UNL     1     156.683 160.444 185.730  0.00  0.00    +0.063 C 
ATOM    198  C   UNL     1     156.839 161.771 184.986  0.00  0.00    -0.000 C 
ATOM    199  H   UNL     1     155.986 162.871 183.369  0.00  0.00    +0.060 HD
ATOM    200  H   UNL     1     154.366 159.693 184.312  0.00  0.00    +0.059 HD
ATOM    201  H   UNL     1     157.390 159.151 184.166  0.00  0.00    +0.032 HD
ATOM    202  H   UNL     1     156.246 158.372 185.244  0.00  0.00    +0.032 HD
ATOM    203  H   UNL     1     155.831 160.514 186.417  0.00  0.00    +0.060 HD
ATOM    204  H   UNL     1     157.788 161.744 184.432  0.00  0.00    +0.032 HD
ATOM    205  H   UNL     1     156.938 162.596 185.702  0.00  0.00    +0.032 HD
BRANCH 195 206
ATOM    206  C   UNL     1     155.190 158.593 182.681  0.00  0.00    -0.039 C 
ATOM    207  H   UNL     1     154.145 158.280 182.575  0.00  0.00    +0.025 HD
ATOM    208  H   UNL     1     155.797 157.712 182.913  0.00  0.00    +0.025 HD
ATOM    209  H   UNL     1     155.500 158.991 181.709  0.00  0.00    +0.025 HD
ENDBRANCH 195 206
BRANCH 197 210
ATOM    210  O   UNL     1     157.880 160.242 186.494  0.00  0.00    -0.380 OA
BRANCH 210 211
ATOM    211  C   UNL     1     157.769 159.217 187.474  0.00  0.00    +0.037 C 
ATOM    212  H   UNL     1     157.541 158.279 186.958  0.00  0.00    +0.052 HD
ATOM    213  H   UNL     1     156.953 159.428 188.170  0.00  0.00    +0.052 HD
ATOM    214  H   UNL     1     158.710 159.096 188.017  0.00  0.00    +0.052 HD
ENDBRANCH 210 211
ENDBRANCH 197 210
ENDBRANCH 190 193
ENDBRANCH 187 190
ENDBRANCH 181 187
ENDBRANCH 177 181
ENDBRANCH 171 177
ENDBRANCH  22 171
BRANCH  20 215
ATOM    215  O   UNL     1     149.365 160.034 183.254  0.00  0.00    -0.391 OA
ATOM    216  H   UNL     1     149.121 159.241 182.743  0.00  0.00    +0.210 HD
ENDBRANCH  20 215
BRANCH  18 217
ATOM    217  O   UNL     1     150.206 158.011 184.767  0.00  0.00    -0.391 OA
ATOM    218  H   UNL     1     149.732 157.747 183.952  0.00  0.00    +0.210 HD
ENDBRANCH  18 217
BRANCH  10 219
ATOM    219  O   UNL     1     157.833 162.689 188.298  0.00  0.00    -0.391 OA
ATOM    220  H   UNL     1     158.269 161.936 188.737  0.00  0.00    +0.210 HD
ENDBRANCH  10 219
BRANCH  37 221
ATOM    221  O   UNL     1     143.390 170.725 189.909  0.00  0.00    -0.379 OA
BRANCH 221 222
ATOM    222  C   UNL     1     142.808 171.173 191.126  0.00  0.00    +0.037 C 
ATOM    223  H   UNL     1     143.424 170.803 191.950  0.00  0.00    +0.052 HD
ATOM    224  H   UNL     1     142.792 172.264 191.177  0.00  0.00    +0.052 HD
ATOM    225  H   UNL     1     141.796 170.774 191.242  0.00  0.00    +0.052 HD
ENDBRANCH 221 222
ENDBRANCH  37 221
BRANCH  16 226
ATOM    226  O   UNL     1     152.023 157.333 187.771  0.00  0.00    -0.379 OA
BRANCH 226 227
ATOM    227  C   UNL     1     150.651 157.237 188.132  0.00  0.00    +0.037 C 
ATOM    228  H   UNL     1     150.469 156.401 188.814  0.00  0.00    +0.052 HD
ATOM    229  H   UNL     1     150.041 157.124 187.229  0.00  0.00    +0.052 HD
ATOM    230  H   UNL     1     150.359 158.164 188.636  0.00  0.00    +0.052 HD
ENDBRANCH 226 227
ENDBRANCH  16 226
TORSDOF 40
ENDMDL
MODEL 4
REMARK VINA RESULT:      -4.6      6.383     11.070
REMARK  Name = Swinholide A_conf1
REMARK  40 active torsions:
REMARK  status: ('A' for Active; 'I' for Inactive)
REMARK    1  A    between atoms: C_1  and  C_2
REMARK    2  A    between atoms: C_4  and  C_10
REMARK    3  A    between atoms: C_6  and  O_8
REMARK    4  A    between atoms: O_8  and  C_9
REMARK    5  A    between atoms: C_10  and  C_11
REMARK    6  A    between atoms: C_11  and  C_12
REMARK    7  A    between atoms: C_12  and  C_13
REMARK    8  A    between atoms: C_12  and  C_98
REMARK    9  A    between atoms: C_13  and  O_14
REMARK   10  A    between atoms: C_13  and  C_15
REMARK   11  A    between atoms: C_15  and  C_16
REMARK   12  A    between atoms: C_15  and  C_97
REMARK   13  A    between atoms: C_22  and  C_96
REMARK   14  A    between atoms: C_25  and  O_95
REMARK   15  A    between atoms: C_31  and  O_90
REMARK   16  A    between atoms: C_32  and  C_89
REMARK   17  A    between atoms: C_33  and  O_88
REMARK   18  A    between atoms: C_35  and  O_87
REMARK   19  A    between atoms: C_36  and  C_86
REMARK   20  A    between atoms: C_37  and  C_69
REMARK   21  A    between atoms: C_43  and  C_68
REMARK   22  A    between atoms: C_46  and  O_67
REMARK   23  A    between atoms: C_52  and  O_62
REMARK   24  A    between atoms: C_53  and  C_61
REMARK   25  A    between atoms: C_54  and  O_60
REMARK   26  A    between atoms: C_56  and  O_59
REMARK   27  A    between atoms: C_57  and  C_58
REMARK   28  A    between atoms: O_62  and  C_63
REMARK   29  A    between atoms: C_69  and  C_70
REMARK   30  A    between atoms: C_69  and  C_85
REMARK   31  A    between atoms: C_70  and  O_71
REMARK   32  A    between atoms: C_70  and  C_72
REMARK   33  A    between atoms: C_72  and  C_73
REMARK   34  A    between atoms: C_72  and  C_84
REMARK   35  A    between atoms: C_73  and  C_74
REMARK   36  A    between atoms: C_74  and  C_75
REMARK   37  A    between atoms: C_77  and  C_83
REMARK   38  A    between atoms: C_79  and  O_81
REMARK   39  A    between atoms: O_81  and  C_82
REMARK   40  A    between atoms: O_90  and  C_91
REMARK                            x       y       z     vdW  Elec       q    Type
REMARK                         _______ _______ _______ _____ _____    ______ ____
ROOT
ATOM      1  C   UNL     1     145.270 166.133 186.596  0.00  0.00    +0.113 C 
ATOM      2  O   UNL     1     144.408 164.962 186.609  0.00  0.00    -0.458 OA
ATOM      3  C   UNL     1     143.545 164.845 185.562  0.00  0.00    +0.332 C 
ATOM      4  O   UNL     1     143.403 165.651 184.649  0.00  0.00    -0.246 OA
ATOM      5  C   UNL     1     142.744 163.613 185.613  0.00  0.00    +0.023 C 
ATOM      6  C   UNL     1     143.109 162.494 186.255  0.00  0.00    -0.052 C 
ATOM      7  C   UNL     1     142.384 161.228 186.195  0.00  0.00    -0.054 C 
ATOM      8  C   UNL     1     141.902 160.748 185.030  0.00  0.00    -0.079 C 
ATOM      9  C   UNL     1     141.342 159.366 184.804  0.00  0.00    -0.008 C 
ATOM     10  C   UNL     1     141.582 158.800 183.391  0.00  0.00    +0.061 C 
ATOM     11  C   UNL     1     142.984 158.936 182.780  0.00  0.00    +0.003 C 
ATOM     12  C   UNL     1     144.138 158.120 183.391  0.00  0.00    +0.080 C 
ATOM     13  O   UNL     1     145.159 158.130 182.363  0.00  0.00    -0.369 OA
ATOM     14  C   UNL     1     146.519 157.963 182.797  0.00  0.00    +0.065 C 
ATOM     15  C   UNL     1     146.764 156.530 183.317  0.00  0.00    +0.000 C 
ATOM     16  C   UNL     1     148.242 156.235 183.647  0.00  0.00    +0.066 C 
ATOM     17  C   UNL     1     148.383 154.795 184.232  0.00  0.00    +0.009 C 
ATOM     18  C   UNL     1     149.038 154.779 185.638  0.00  0.00    +0.063 C 
ATOM     19  C   UNL     1     148.171 155.456 186.722  0.00  0.00    -0.000 C 
ATOM     20  C   UNL     1     148.745 155.221 188.134  0.00  0.00    +0.064 C 
ATOM     21  C   UNL     1     147.838 155.704 189.309  0.00  0.00    +0.020 C 
ATOM     22  C   UNL     1     147.482 157.223 189.250  0.00  0.00    +0.113 C 
ATOM     23  O   UNL     1     148.733 157.958 189.305  0.00  0.00    -0.458 OA
ATOM     24  C   UNL     1     148.886 158.962 188.401  0.00  0.00    +0.332 C 
ATOM     25  O   UNL     1     148.035 159.374 187.631  0.00  0.00    -0.246 OA
ATOM     26  C   UNL     1     150.255 159.514 188.521  0.00  0.00    +0.023 C 
ATOM     27  C   UNL     1     150.638 160.497 187.694  0.00  0.00    -0.052 C 
ATOM     28  C   UNL     1     151.933 161.167 187.700  0.00  0.00    -0.054 C 
ATOM     29  C   UNL     1     152.442 161.702 188.829  0.00  0.00    -0.079 C 
ATOM     30  C   UNL     1     153.734 162.456 188.982  0.00  0.00    -0.008 C 
ATOM     31  C   UNL     1     153.580 163.988 189.138  0.00  0.00    +0.061 C 
ATOM     32  C   UNL     1     153.181 164.410 190.568  0.00  0.00    +0.003 C 
ATOM     33  C   UNL     1     153.286 165.933 190.809  0.00  0.00    +0.080 C 
ATOM     34  O   UNL     1     152.141 166.633 190.294  0.00  0.00    -0.369 OA
ATOM     35  C   UNL     1     151.097 166.960 191.239  0.00  0.00    +0.065 C 
ATOM     36  C   UNL     1     150.064 167.778 190.444  0.00  0.00    +0.000 C 
ATOM     37  C   UNL     1     148.758 168.231 191.140  0.00  0.00    +0.066 C 
ATOM     38  C   UNL     1     147.882 167.023 191.595  0.00  0.00    +0.009 C 
ATOM     39  C   UNL     1     146.385 167.143 191.194  0.00  0.00    +0.063 C 
ATOM     40  C   UNL     1     146.155 167.535 189.724  0.00  0.00    -0.000 C 
ATOM     41  C   UNL     1     144.891 166.886 189.127  0.00  0.00    +0.064 C 
ATOM     42  C   UNL     1     144.761 167.218 187.610  0.00  0.00    +0.020 C 
ATOM     43  C   UNL     1     151.659 167.742 192.435  0.00  0.00    -0.008 C 
ATOM     44  C   UNL     1     152.851 167.056 193.016  0.00  0.00    -0.083 C 
ATOM     45  C   UNL     1     153.582 166.234 192.260  0.00  0.00    -0.059 C 
ATOM     46  C   UNL     1     146.868 159.095 183.779  0.00  0.00    -0.008 C 
ATOM     47  C   UNL     1     145.872 159.150 184.890  0.00  0.00    -0.083 C 
ATOM     48  C   UNL     1     144.635 158.673 184.706  0.00  0.00    -0.059 C 
ATOM     49  H   UNL     1     145.180 166.618 185.612  0.00  0.00    +0.074 HD
ATOM     50  H   UNL     1     141.850 163.649 184.998  0.00  0.00    +0.069 HD
ATOM     51  H   UNL     1     144.026 162.461 186.841  0.00  0.00    +0.062 HD
ATOM     52  H   UNL     1     141.979 161.363 184.134  0.00  0.00    +0.058 HD
ATOM     53  H   UNL     1     141.719 158.648 185.541  0.00  0.00    +0.033 HD
ATOM     54  H   UNL     1     140.256 159.406 184.970  0.00  0.00    +0.033 HD
ATOM     55  H   UNL     1     140.891 159.326 182.720  0.00  0.00    +0.060 HD
ATOM     56  H   UNL     1     143.276 159.992 182.721  0.00  0.00    +0.032 HD
ATOM     57  H   UNL     1     142.896 158.619 181.730  0.00  0.00    +0.032 HD
ATOM     58  H   UNL     1     143.833 157.076 183.528  0.00  0.00    +0.064 HD
ATOM     59  H   UNL     1     147.129 158.107 181.897  0.00  0.00    +0.060 HD
ATOM     60  H   UNL     1     146.420 155.835 182.538  0.00  0.00    +0.032 HD
ATOM     61  H   UNL     1     146.142 156.329 184.198  0.00  0.00    +0.032 HD
ATOM     62  H   UNL     1     148.584 156.973 184.379  0.00  0.00    +0.060 HD
ATOM     63  H   UNL     1     147.378 154.369 184.366  0.00  0.00    +0.035 HD
ATOM     64  H   UNL     1     149.199 153.734 185.932  0.00  0.00    +0.060 HD
ATOM     65  H   UNL     1     148.147 156.535 186.530  0.00  0.00    +0.032 HD
ATOM     66  H   UNL     1     147.147 155.070 186.662  0.00  0.00    +0.032 HD
ATOM     67  H   UNL     1     148.916 154.144 188.267  0.00  0.00    +0.060 HD
ATOM     68  H   UNL     1     148.431 155.539 190.218  0.00  0.00    +0.036 HD
ATOM     69  H   UNL     1     146.978 157.390 188.291  0.00  0.00    +0.074 HD
ATOM     70  H   UNL     1     150.905 159.097 189.278  0.00  0.00    +0.069 HD
ATOM     71  H   UNL     1     149.943 160.853 186.931  0.00  0.00    +0.062 HD
ATOM     72  H   UNL     1     151.889 161.586 189.759  0.00  0.00    +0.058 HD
ATOM     73  H   UNL     1     154.270 162.052 189.852  0.00  0.00    +0.033 HD
ATOM     74  H   UNL     1     154.406 162.244 188.142  0.00  0.00    +0.033 HD
ATOM     75  H   UNL     1     152.854 164.385 188.419  0.00  0.00    +0.060 HD
ATOM     76  H   UNL     1     153.857 163.895 191.263  0.00  0.00    +0.032 HD
ATOM     77  H   UNL     1     152.163 164.063 190.778  0.00  0.00    +0.032 HD
ATOM     78  H   UNL     1     154.139 166.333 190.250  0.00  0.00    +0.064 HD
ATOM     79  H   UNL     1     150.651 166.018 191.574  0.00  0.00    +0.060 HD
ATOM     80  H   UNL     1     149.788 167.194 189.553  0.00  0.00    +0.032 HD
ATOM     81  H   UNL     1     150.575 168.661 190.039  0.00  0.00    +0.032 HD
ATOM     82  H   UNL     1     148.208 168.794 190.380  0.00  0.00    +0.060 HD
ATOM     83  H   UNL     1     148.241 166.136 191.061  0.00  0.00    +0.035 HD
ATOM     84  H   UNL     1     145.930 166.162 191.381  0.00  0.00    +0.060 HD
ATOM     85  H   UNL     1     146.042 168.626 189.661  0.00  0.00    +0.032 HD
ATOM     86  H   UNL     1     147.024 167.269 189.130  0.00  0.00    +0.032 HD
ATOM     87  H   UNL     1     144.901 165.803 189.274  0.00  0.00    +0.060 HD
ATOM     88  H   UNL     1     145.351 168.125 187.417  0.00  0.00    +0.036 HD
ATOM     89  H   UNL     1     150.900 167.844 193.218  0.00  0.00    +0.033 HD
ATOM     90  H   UNL     1     151.968 168.749 192.134  0.00  0.00    +0.033 HD
ATOM     91  H   UNL     1     153.132 167.273 194.042  0.00  0.00    +0.057 HD
ATOM     92  H   UNL     1     154.470 165.771 192.686  0.00  0.00    +0.059 HD
ATOM     93  H   UNL     1     146.837 160.060 183.258  0.00  0.00    +0.033 HD
ATOM     94  H   UNL     1     147.877 158.980 184.180  0.00  0.00    +0.033 HD
ATOM     95  H   UNL     1     146.173 159.567 185.847  0.00  0.00    +0.057 HD
ATOM     96  H   UNL     1     143.951 158.669 185.548  0.00  0.00    +0.059 HD
ENDROOT
BRANCH  28  97
ATOM     97  C   UNL     1     152.557 161.281 186.333  0.00  0.00    -0.040 C 
ATOM     98  H   UNL     1     152.867 160.298 185.960  0.00  0.00    +0.028 HD
ATOM     99  H   UNL     1     153.444 161.924 186.378  0.00  0.00    +0.028 HD
ATOM    100  H   UNL     1     151.881 161.697 185.582  0.00  0.00    +0.028 HD
ENDBRANCH  28  97
BRANCH  21 101
ATOM    101  C   UNL     1     146.590 154.818 189.397  0.00  0.00    -0.057 C 
ATOM    102  H   UNL     1     145.774 155.207 188.780  0.00  0.00    +0.023 HD
ATOM    103  H   UNL     1     146.228 154.745 190.428  0.00  0.00    +0.023 HD
ATOM    104  H   UNL     1     146.807 153.796 189.068  0.00  0.00    +0.023 HD
ENDBRANCH  21 101
BRANCH  42 105
ATOM    105  C   UNL     1     143.307 167.601 187.246  0.00  0.00    -0.057 C 
ATOM    106  H   UNL     1     142.693 167.722 188.145  0.00  0.00    +0.023 HD
ATOM    107  H   UNL     1     143.267 168.534 186.671  0.00  0.00    +0.023 HD
ATOM    108  H   UNL     1     142.829 166.814 186.651  0.00  0.00    +0.023 HD
ENDBRANCH  42 105
BRANCH  17 109
ATOM    109  C   UNL     1     149.128 153.833 183.296  0.00  0.00    -0.058 C 
ATOM    110  H   UNL     1     148.459 153.094 182.846  0.00  0.00    +0.023 HD
ATOM    111  H   UNL     1     149.605 154.386 182.478  0.00  0.00    +0.023 HD
ATOM    112  H   UNL     1     149.921 153.302 183.833  0.00  0.00    +0.023 HD
ENDBRANCH  17 109
BRANCH  38 113
ATOM    113  C   UNL     1     147.991 166.727 193.101  0.00  0.00    -0.058 C 
ATOM    114  H   UNL     1     147.522 167.506 193.712  0.00  0.00    +0.023 HD
ATOM    115  H   UNL     1     149.034 166.636 193.415  0.00  0.00    +0.023 HD
ATOM    116  H   UNL     1     147.490 165.783 193.346  0.00  0.00    +0.023 HD
ENDBRANCH  38 113
BRANCH   7 117
ATOM    117  C   UNL     1     142.332 160.489 187.502  0.00  0.00    -0.040 C 
ATOM    118  H   UNL     1     141.355 160.617 187.981  0.00  0.00    +0.028 HD
ATOM    119  H   UNL     1     143.104 160.862 188.178  0.00  0.00    +0.028 HD
ATOM    120  H   UNL     1     142.477 159.412 187.381  0.00  0.00    +0.028 HD
ENDBRANCH   7 117
BRANCH   1 121
ATOM    121  C   UNL     1     146.771 165.660 186.615  0.00  0.00    +0.020 C 
ATOM    122  H   UNL     1     147.164 166.070 187.559  0.00  0.00    +0.036 HD
BRANCH 121 123
ATOM    123  C   UNL     1     146.806 164.125 186.733  0.00  0.00    -0.057 C 
ATOM    124  H   UNL     1     147.619 163.798 187.385  0.00  0.00    +0.023 HD
ATOM    125  H   UNL     1     146.933 163.637 185.765  0.00  0.00    +0.023 HD
ATOM    126  H   UNL     1     145.896 163.726 187.192  0.00  0.00    +0.023 HD
ENDBRANCH 121 123
BRANCH 121 127
ATOM    127  C   UNL     1     147.718 166.234 185.507  0.00  0.00    +0.064 C 
ATOM    128  H   UNL     1     148.110 165.403 184.928  0.00  0.00    +0.060 HD
BRANCH 127 129
ATOM    129  C   UNL     1     148.937 167.121 185.929  0.00  0.00    -0.017 C 
ATOM    130  H   UNL     1     149.749 166.939 185.212  0.00  0.00    +0.032 HD
BRANCH 129 131
ATOM    131  C   UNL     1     148.707 168.631 185.943  0.00  0.00    -0.060 C 
ATOM    132  H   UNL     1     149.562 169.154 186.381  0.00  0.00    +0.023 HD
ATOM    133  H   UNL     1     148.501 169.021 184.943  0.00  0.00    +0.023 HD
ATOM    134  H   UNL     1     147.846 168.886 186.576  0.00  0.00    +0.023 HD
ENDBRANCH 129 131
BRANCH 129 135
ATOM    135  C   UNL     1     149.462 166.712 187.338  0.00  0.00    -0.046 C 
ATOM    136  H   UNL     1     148.620 166.409 187.970  0.00  0.00    +0.027 HD
ATOM    137  H   UNL     1     149.888 167.593 187.825  0.00  0.00    +0.027 HD
BRANCH 135 138
ATOM    138  C   UNL     1     150.533 165.621 187.323  0.00  0.00    -0.026 C 
ATOM    139  H   UNL     1     150.089 164.675 187.643  0.00  0.00    +0.029 HD
ATOM    140  H   UNL     1     151.307 165.852 188.059  0.00  0.00    +0.029 HD
BRANCH 138 143
ATOM    141  C   UNL     1     151.140 164.023 184.004  0.00  0.00    +0.059 C 
ATOM    142  O   UNL     1     150.748 164.202 185.374  0.00  0.00    -0.373 OA
ATOM    143  C   UNL     1     151.187 165.439 185.943  0.00  0.00    +0.061 C 
ATOM    144  C   UNL     1     152.714 165.441 186.035  0.00  0.00    -0.000 C 
ATOM    145  C   UNL     1     153.380 164.676 184.884  0.00  0.00    +0.063 C 
ATOM    146  C   UNL     1     152.472 164.691 183.662  0.00  0.00    -0.000 C 
ATOM    147  H   UNL     1     151.258 162.940 183.875  0.00  0.00    +0.059 HD
ATOM    148  H   UNL     1     150.856 166.247 185.283  0.00  0.00    +0.060 HD
ATOM    149  H   UNL     1     153.069 166.474 186.076  0.00  0.00    +0.032 HD
ATOM    150  H   UNL     1     153.047 164.974 186.969  0.00  0.00    +0.032 HD
ATOM    151  H   UNL     1     153.556 163.641 185.207  0.00  0.00    +0.060 HD
ATOM    152  H   UNL     1     152.328 165.731 183.340  0.00  0.00    +0.032 HD
ATOM    153  H   UNL     1     152.929 164.185 182.804  0.00  0.00    +0.032 HD
BRANCH 141 154
ATOM    154  C   UNL     1     150.024 164.486 183.074  0.00  0.00    -0.039 C 
ATOM    155  H   UNL     1     150.298 165.406 182.551  0.00  0.00    +0.025 HD
ATOM    156  H   UNL     1     149.792 163.718 182.328  0.00  0.00    +0.025 HD
ATOM    157  H   UNL     1     149.115 164.704 183.642  0.00  0.00    +0.025 HD
ENDBRANCH 141 154
BRANCH 145 158
ATOM    158  O   UNL     1     154.638 165.307 184.624  0.00  0.00    -0.380 OA
BRANCH 158 159
ATOM    159  C   UNL     1     155.054 166.195 185.655  0.00  0.00    +0.037 C 
ATOM    160  H   UNL     1     156.051 165.889 185.985  0.00  0.00    +0.052 HD
ATOM    161  H   UNL     1     154.380 166.133 186.514  0.00  0.00    +0.052 HD
ATOM    162  H   UNL     1     155.110 167.226 185.292  0.00  0.00    +0.052 HD
ENDBRANCH 158 159
ENDBRANCH 145 158
ENDBRANCH 138 143
ENDBRANCH 135 138
ENDBRANCH 129 135
ENDBRANCH 127 129
BRANCH 127 163
ATOM    163  O   UNL     1     146.987 167.033 184.567  0.00  0.00    -0.391 OA
ATOM    164  H   UNL     1     146.761 167.884 184.979  0.00  0.00    +0.210 HD
ENDBRANCH 127 163
ENDBRANCH 121 127
ENDBRANCH   1 121
BRANCH  41 165
ATOM    165  O   UNL     1     143.760 167.389 189.846  0.00  0.00    -0.391 OA
ATOM    166  H   UNL     1     143.626 168.330 189.613  0.00  0.00    +0.210 HD
ENDBRANCH  41 165
BRANCH  39 167
ATOM    167  O   UNL     1     145.670 168.072 192.007  0.00  0.00    -0.391 OA
ATOM    168  H   UNL     1     146.264 168.370 192.722  0.00  0.00    +0.210 HD
ENDBRANCH  39 167
BRANCH  31 169
ATOM    169  O   UNL     1     154.855 164.567 188.829  0.00  0.00    -0.391 OA
ATOM    170  H   UNL     1     154.751 165.070 188.002  0.00  0.00    +0.210 HD
ENDBRANCH  31 169
BRANCH  22 171
ATOM    171  C   UNL     1     146.527 157.716 190.394  0.00  0.00    +0.020 C 
ATOM    172  H   UNL     1     146.237 156.828 190.965  0.00  0.00    +0.036 HD
BRANCH 171 173
ATOM    173  C   UNL     1     147.229 158.691 191.344  0.00  0.00    -0.057 C 
ATOM    174  H   UNL     1     147.505 158.199 192.277  0.00  0.00    +0.023 HD
ATOM    175  H   UNL     1     146.592 159.545 191.590  0.00  0.00    +0.023 HD
ATOM    176  H   UNL     1     148.139 159.104 190.900  0.00  0.00    +0.023 HD
ENDBRANCH 171 173
BRANCH 171 177
ATOM    177  C   UNL     1     145.222 158.321 189.813  0.00  0.00    +0.064 C 
ATOM    178  H   UNL     1     144.971 159.226 190.376  0.00  0.00    +0.060 HD
BRANCH 177 179
ATOM    179  O   UNL     1     145.487 158.709 188.464  0.00  0.00    -0.391 OA
ATOM    180  H   UNL     1     146.129 159.453 188.511  0.00  0.00    +0.210 HD
ENDBRANCH 177 179
BRANCH 177 181
ATOM    181  C   UNL     1     143.953 157.422 189.832  0.00  0.00    -0.017 C 
ATOM    182  H   UNL     1     144.151 156.575 190.501  0.00  0.00    +0.032 HD
BRANCH 181 183
ATOM    183  C   UNL     1     142.781 158.213 190.443  0.00  0.00    -0.060 C 
ATOM    184  H   UNL     1     143.136 159.075 191.018  0.00  0.00    +0.023 HD
ATOM    185  H   UNL     1     142.095 158.578 189.673  0.00  0.00    +0.023 HD
ATOM    186  H   UNL     1     142.195 157.586 191.115  0.00  0.00    +0.023 HD
ENDBRANCH 181 183
BRANCH 181 187
ATOM    187  C   UNL     1     143.550 156.869 188.445  0.00  0.00    -0.046 C 
ATOM    188  H   UNL     1     144.029 155.899 188.274  0.00  0.00    +0.027 HD
ATOM    189  H   UNL     1     143.916 157.544 187.661  0.00  0.00    +0.027 HD
BRANCH 187 190
ATOM    190  C   UNL     1     142.031 156.674 188.307  0.00  0.00    -0.026 C 
ATOM    191  H   UNL     1     141.665 157.258 187.459  0.00  0.00    +0.029 HD
ATOM    192  H   UNL     1     141.535 157.074 189.200  0.00  0.00    +0.029 HD
BRANCH 190 193
ATOM    193  C   UNL     1     141.629 155.199 188.128  0.00  0.00    +0.061 C 
ATOM    194  O   UNL     1     140.213 155.002 188.196  0.00  0.00    -0.373 OA
ATOM    195  C   UNL     1     139.640 155.193 189.493  0.00  0.00    +0.059 C 
ATOM    196  C   UNL     1     140.268 154.247 190.514  0.00  0.00    -0.000 C 
ATOM    197  C   UNL     1     141.789 154.399 190.534  0.00  0.00    +0.063 C 
ATOM    198  C   UNL     1     142.339 154.269 189.113  0.00  0.00    -0.000 C 
ATOM    199  H   UNL     1     141.927 154.899 187.116  0.00  0.00    +0.060 HD
ATOM    200  H   UNL     1     139.781 156.235 189.802  0.00  0.00    +0.059 HD
ATOM    201  H   UNL     1     140.022 153.205 190.269  0.00  0.00    +0.032 HD
ATOM    202  H   UNL     1     139.847 154.437 191.507  0.00  0.00    +0.032 HD
ATOM    203  H   UNL     1     142.066 155.380 190.939  0.00  0.00    +0.060 HD
ATOM    204  H   UNL     1     142.201 153.229 188.785  0.00  0.00    +0.032 HD
ATOM    205  H   UNL     1     143.423 154.439 189.110  0.00  0.00    +0.032 HD
BRANCH 195 206
ATOM    206  C   UNL     1     138.142 154.941 189.369  0.00  0.00    -0.039 C 
ATOM    207  H   UNL     1     137.711 154.715 190.350  0.00  0.00    +0.025 HD
ATOM    208  H   UNL     1     137.937 154.103 188.695  0.00  0.00    +0.025 HD
ATOM    209  H   UNL     1     137.624 155.831 188.994  0.00  0.00    +0.025 HD
ENDBRANCH 195 206
BRANCH 197 210
ATOM    210  O   UNL     1     142.410 153.377 191.325  0.00  0.00    -0.380 OA
BRANCH 210 211
ATOM    211  C   UNL     1     141.574 152.252 191.568  0.00  0.00    +0.037 C 
ATOM    212  H   UNL     1     140.596 152.622 191.891  0.00  0.00    +0.052 HD
ATOM    213  H   UNL     1     141.981 151.628 192.367  0.00  0.00    +0.052 HD
ATOM    214  H   UNL     1     141.440 151.664 190.656  0.00  0.00    +0.052 HD
ENDBRANCH 210 211
ENDBRANCH 197 210
ENDBRANCH 190 193
ENDBRANCH 187 190
ENDBRANCH 181 187
ENDBRANCH 177 181
ENDBRANCH 171 177
ENDBRANCH  22 171
BRANCH  20 215
ATOM    215  O   UNL     1     150.044 155.827 188.192  0.00  0.00    -0.391 OA
ATOM    216  H   UNL     1     150.574 155.455 187.465  0.00  0.00    +0.210 HD
ENDBRANCH  20 215
BRANCH  18 217
ATOM    217  O   UNL     1     150.324 155.397 185.579  0.00  0.00    -0.391 OA
ATOM    218  H   UNL     1     150.981 154.684 185.720  0.00  0.00    +0.210 HD
ENDBRANCH  18 217
BRANCH  10 219
ATOM    219  O   UNL     1     141.183 157.426 183.383  0.00  0.00    -0.391 OA
ATOM    220  H   UNL     1     140.306 157.376 183.806  0.00  0.00    +0.210 HD
ENDBRANCH  10 219
BRANCH  37 221
ATOM    221  O   UNL     1     148.967 169.123 192.235  0.00  0.00    -0.379 OA
BRANCH 221 222
ATOM    222  C   UNL     1     148.477 170.441 192.021  0.00  0.00    +0.037 C 
ATOM    223  H   UNL     1     148.296 170.563 190.949  0.00  0.00    +0.052 HD
ATOM    224  H   UNL     1     147.532 170.600 192.544  0.00  0.00    +0.052 HD
ATOM    225  H   UNL     1     149.214 171.185 192.336  0.00  0.00    +0.052 HD
ENDBRANCH 221 222
ENDBRANCH  37 221
BRANCH  16 226
ATOM    226  O   UNL     1     148.974 156.390 182.421  0.00  0.00    -0.379 OA
BRANCH 226 227
ATOM    227  C   UNL     1     150.084 157.270 182.550  0.00  0.00    +0.037 C 
ATOM    228  H   UNL     1     150.156 157.685 183.560  0.00  0.00    +0.052 HD
ATOM    229  H   UNL     1     149.998 158.080 181.817  0.00  0.00    +0.052 HD
ATOM    230  H   UNL     1     150.999 156.707 182.342  0.00  0.00    +0.052 HD
ENDBRANCH 226 227
ENDBRANCH  16 226
TORSDOF 40
ENDMDL
MODEL 5
REMARK VINA RESULT:      -4.4      2.176      3.955
REMARK  Name = Swinholide A_conf1
REMARK  40 active torsions:
REMARK  status: ('A' for Active; 'I' for Inactive)
REMARK    1  A    between atoms: C_1  and  C_2
REMARK    2  A    between atoms: C_4  and  C_10
REMARK    3  A    between atoms: C_6  and  O_8
REMARK    4  A    between atoms: O_8  and  C_9
REMARK    5  A    between atoms: C_10  and  C_11
REMARK    6  A    between atoms: C_11  and  C_12
REMARK    7  A    between atoms: C_12  and  C_13
REMARK    8  A    between atoms: C_12  and  C_98
REMARK    9  A    between atoms: C_13  and  O_14
REMARK   10  A    between atoms: C_13  and  C_15
REMARK   11  A    between atoms: C_15  and  C_16
REMARK   12  A    between atoms: C_15  and  C_97
REMARK   13  A    between atoms: C_22  and  C_96
REMARK   14  A    between atoms: C_25  and  O_95
REMARK   15  A    between atoms: C_31  and  O_90
REMARK   16  A    between atoms: C_32  and  C_89
REMARK   17  A    between atoms: C_33  and  O_88
REMARK   18  A    between atoms: C_35  and  O_87
REMARK   19  A    between atoms: C_36  and  C_86
REMARK   20  A    between atoms: C_37  and  C_69
REMARK   21  A    between atoms: C_43  and  C_68
REMARK   22  A    between atoms: C_46  and  O_67
REMARK   23  A    between atoms: C_52  and  O_62
REMARK   24  A    between atoms: C_53  and  C_61
REMARK   25  A    between atoms: C_54  and  O_60
REMARK   26  A    between atoms: C_56  and  O_59
REMARK   27  A    between atoms: C_57  and  C_58
REMARK   28  A    between atoms: O_62  and  C_63
REMARK   29  A    between atoms: C_69  and  C_70
REMARK   30  A    between atoms: C_69  and  C_85
REMARK   31  A    between atoms: C_70  and  O_71
REMARK   32  A    between atoms: C_70  and  C_72
REMARK   33  A    between atoms: C_72  and  C_73
REMARK   34  A    between atoms: C_72  and  C_84
REMARK   35  A    between atoms: C_73  and  C_74
REMARK   36  A    between atoms: C_74  and  C_75
REMARK   37  A    between atoms: C_77  and  C_83
REMARK   38  A    between atoms: C_79  and  O_81
REMARK   39  A    between atoms: O_81  and  C_82
REMARK   40  A    between atoms: O_90  and  C_91
REMARK                            x       y       z     vdW  Elec       q    Type
REMARK                         _______ _______ _______ _____ _____    ______ ____
ROOT
ATOM      1  C   UNL     1     150.852 168.428 178.025  0.00  0.00    +0.113 C 
ATOM      2  O   UNL     1     150.397 167.456 179.005  0.00  0.00    -0.458 OA
ATOM      3  C   UNL     1     149.618 166.447 178.527  0.00  0.00    +0.332 C 
ATOM      4  O   UNL     1     149.237 166.314 177.369  0.00  0.00    -0.246 OA
ATOM      5  C   UNL     1     149.239 165.473 179.562  0.00  0.00    +0.023 C 
ATOM      6  C   UNL     1     149.931 165.254 180.690  0.00  0.00    -0.052 C 
ATOM      7  C   UNL     1     149.636 164.197 181.652  0.00  0.00    -0.054 C 
ATOM      8  C   UNL     1     149.333 162.945 181.251  0.00  0.00    -0.079 C 
ATOM      9  C   UNL     1     149.232 161.729 182.139  0.00  0.00    -0.008 C 
ATOM     10  C   UNL     1     149.643 160.406 181.464  0.00  0.00    +0.061 C 
ATOM     11  C   UNL     1     150.936 160.382 180.637  0.00  0.00    +0.003 C 
ATOM     12  C   UNL     1     152.283 160.521 181.369  0.00  0.00    +0.080 C 
ATOM     13  O   UNL     1     153.256 160.032 180.412  0.00  0.00    -0.369 OA
ATOM     14  C   UNL     1     154.598 160.530 180.540  0.00  0.00    +0.065 C 
ATOM     15  C   UNL     1     155.273 159.986 181.816  0.00  0.00    +0.000 C 
ATOM     16  C   UNL     1     156.769 160.351 181.930  0.00  0.00    +0.066 C 
ATOM     17  C   UNL     1     157.347 159.825 183.280  0.00  0.00    +0.009 C 
ATOM     18  C   UNL     1     157.967 160.950 184.148  0.00  0.00    +0.063 C 
ATOM     19  C   UNL     1     156.927 161.977 184.650  0.00  0.00    -0.000 C 
ATOM     20  C   UNL     1     157.539 162.942 185.686  0.00  0.00    +0.064 C 
ATOM     21  C   UNL     1     156.522 163.891 186.392  0.00  0.00    +0.020 C 
ATOM     22  C   UNL     1     155.711 164.793 185.408  0.00  0.00    +0.113 C 
ATOM     23  O   UNL     1     156.671 165.607 184.684  0.00  0.00    -0.458 OA
ATOM     24  C   UNL     1     156.509 165.680 183.336  0.00  0.00    +0.332 C 
ATOM     25  O   UNL     1     155.576 165.225 182.697  0.00  0.00    -0.246 OA
ATOM     26  C   UNL     1     157.638 166.443 182.756  0.00  0.00    +0.023 C 
ATOM     27  C   UNL     1     157.701 166.609 181.426  0.00  0.00    -0.052 C 
ATOM     28  C   UNL     1     158.723 167.354 180.703  0.00  0.00    -0.054 C 
ATOM     29  C   UNL     1     159.035 168.624 181.036  0.00  0.00    -0.079 C 
ATOM     30  C   UNL     1     160.027 169.529 180.359  0.00  0.00    -0.008 C 
ATOM     31  C   UNL     1     159.404 170.636 179.476  0.00  0.00    +0.061 C 
ATOM     32  C   UNL     1     158.887 171.838 180.293  0.00  0.00    +0.003 C 
ATOM     33  C   UNL     1     158.512 173.057 179.421  0.00  0.00    +0.080 C 
ATOM     34  O   UNL     1     157.209 172.909 178.832  0.00  0.00    -0.369 OA
ATOM     35  C   UNL     1     156.111 173.561 179.509  0.00  0.00    +0.065 C 
ATOM     36  C   UNL     1     154.878 173.321 178.619  0.00  0.00    +0.000 C 
ATOM     37  C   UNL     1     153.493 173.824 179.090  0.00  0.00    +0.066 C 
ATOM     38  C   UNL     1     153.033 173.135 180.413  0.00  0.00    +0.009 C 
ATOM     39  C   UNL     1     151.575 172.598 180.369  0.00  0.00    +0.063 C 
ATOM     40  C   UNL     1     151.242 171.775 179.114  0.00  0.00    -0.000 C 
ATOM     41  C   UNL     1     150.246 170.634 179.397  0.00  0.00    +0.064 C 
ATOM     42  C   UNL     1     150.026 169.760 178.127  0.00  0.00    +0.020 C 
ATOM     43  C   UNL     1     156.395 175.056 179.712  0.00  0.00    -0.008 C 
ATOM     44  C   UNL     1     157.738 175.271 180.327  0.00  0.00    -0.083 C 
ATOM     45  C   UNL     1     158.693 174.348 180.184  0.00  0.00    -0.059 C 
ATOM     46  C   UNL     1     154.573 162.062 180.402  0.00  0.00    -0.008 C 
ATOM     47  C   UNL     1     153.604 162.659 181.368  0.00  0.00    -0.083 C 
ATOM     48  C   UNL     1     152.577 161.931 181.825  0.00  0.00    -0.059 C 
ATOM     49  H   UNL     1     150.620 168.042 177.021  0.00  0.00    +0.074 HD
ATOM     50  H   UNL     1     148.382 164.864 179.295  0.00  0.00    +0.069 HD
ATOM     51  H   UNL     1     150.810 165.849 180.930  0.00  0.00    +0.062 HD
ATOM     52  H   UNL     1     149.219 162.744 180.186  0.00  0.00    +0.058 HD
ATOM     53  H   UNL     1     149.809 161.850 183.062  0.00  0.00    +0.033 HD
ATOM     54  H   UNL     1     148.186 161.630 182.463  0.00  0.00    +0.033 HD
ATOM     55  H   UNL     1     148.825 160.133 180.784  0.00  0.00    +0.060 HD
ATOM     56  H   UNL     1     150.885 161.117 179.823  0.00  0.00    +0.032 HD
ATOM     57  H   UNL     1     150.956 159.409 180.123  0.00  0.00    +0.032 HD
ATOM     58  H   UNL     1     152.317 159.846 182.232  0.00  0.00    +0.064 HD
ATOM     59  H   UNL     1     155.138 160.130 179.672  0.00  0.00    +0.060 HD
ATOM     60  H   UNL     1     155.167 158.892 181.804  0.00  0.00    +0.032 HD
ATOM     61  H   UNL     1     154.741 160.332 182.711  0.00  0.00    +0.032 HD
ATOM     62  H   UNL     1     156.860 161.440 181.881  0.00  0.00    +0.060 HD
ATOM     63  H   UNL     1     156.523 159.407 183.879  0.00  0.00    +0.035 HD
ATOM     64  H   UNL     1     158.444 160.490 185.023  0.00  0.00    +0.060 HD
ATOM     65  H   UNL     1     156.570 162.563 183.795  0.00  0.00    +0.032 HD
ATOM     66  H   UNL     1     156.074 161.445 185.087  0.00  0.00    +0.032 HD
ATOM     67  H   UNL     1     158.036 162.348 186.465  0.00  0.00    +0.060 HD
ATOM     68  H   UNL     1     157.131 164.554 187.019  0.00  0.00    +0.036 HD
ATOM     69  H   UNL     1     155.184 164.118 184.724  0.00  0.00    +0.074 HD
ATOM     70  H   UNL     1     158.381 166.841 183.432  0.00  0.00    +0.069 HD
ATOM     71  H   UNL     1     156.934 166.155 180.797  0.00  0.00    +0.062 HD
ATOM     72  H   UNL     1     158.541 169.077 181.893  0.00  0.00    +0.058 HD
ATOM     73  H   UNL     1     160.659 169.990 181.132  0.00  0.00    +0.033 HD
ATOM     74  H   UNL     1     160.737 168.945 179.761  0.00  0.00    +0.033 HD
ATOM     75  H   UNL     1     158.594 170.234 178.856  0.00  0.00    +0.060 HD
ATOM     76  H   UNL     1     159.686 172.132 180.987  0.00  0.00    +0.032 HD
ATOM     77  H   UNL     1     158.026 171.525 180.895  0.00  0.00    +0.032 HD
ATOM     78  H   UNL     1     159.202 173.124 178.572  0.00  0.00    +0.064 HD
ATOM     79  H   UNL     1     155.977 173.064 180.475  0.00  0.00    +0.060 HD
ATOM     80  H   UNL     1     154.801 172.238 178.437  0.00  0.00    +0.032 HD
ATOM     81  H   UNL     1     155.092 173.744 177.629  0.00  0.00    +0.032 HD
ATOM     82  H   UNL     1     152.798 173.545 178.292  0.00  0.00    +0.060 HD
ATOM     83  H   UNL     1     153.653 172.242 180.551  0.00  0.00    +0.035 HD
ATOM     84  H   UNL     1     151.447 171.967 181.258  0.00  0.00    +0.060 HD
ATOM     85  H   UNL     1     150.796 172.440 178.361  0.00  0.00    +0.032 HD
ATOM     86  H   UNL     1     152.154 171.372 178.683  0.00  0.00    +0.032 HD
ATOM     87  H   UNL     1     150.591 170.010 180.226  0.00  0.00    +0.060 HD
ATOM     88  H   UNL     1     150.306 170.366 177.254  0.00  0.00    +0.036 HD
ATOM     89  H   UNL     1     155.638 175.506 180.363  0.00  0.00    +0.033 HD
ATOM     90  H   UNL     1     156.378 175.592 178.756  0.00  0.00    +0.033 HD
ATOM     91  H   UNL     1     157.933 176.202 180.849  0.00  0.00    +0.057 HD
ATOM     92  H   UNL     1     159.678 174.536 180.607  0.00  0.00    +0.059 HD
ATOM     93  H   UNL     1     154.246 162.338 179.391  0.00  0.00    +0.033 HD
ATOM     94  H   UNL     1     155.566 162.493 180.546  0.00  0.00    +0.033 HD
ATOM     95  H   UNL     1     153.755 163.681 181.703  0.00  0.00    +0.057 HD
ATOM     96  H   UNL     1     151.924 162.368 182.572  0.00  0.00    +0.059 HD
ENDROOT
BRANCH  28  97
ATOM     97  C   UNL     1     159.288 166.608 179.521  0.00  0.00    -0.040 C 
ATOM     98  H   UNL     1     160.191 166.053 179.804  0.00  0.00    +0.028 HD
ATOM     99  H   UNL     1     159.555 167.312 178.726  0.00  0.00    +0.028 HD
ATOM    100  H   UNL     1     158.595 165.876 179.100  0.00  0.00    +0.028 HD
ENDBRANCH  28  97
BRANCH  21 101
ATOM    101  C   UNL     1     155.610 163.078 187.317  0.00  0.00    -0.057 C 
ATOM    102  H   UNL     1     155.207 162.193 186.813  0.00  0.00    +0.023 HD
ATOM    103  H   UNL     1     154.765 163.678 187.670  0.00  0.00    +0.023 HD
ATOM    104  H   UNL     1     156.150 162.744 188.210  0.00  0.00    +0.023 HD
ENDBRANCH  21 101
BRANCH  42 105
ATOM    105  C   UNL     1     148.527 169.435 177.924  0.00  0.00    -0.057 C 
ATOM    106  H   UNL     1     147.895 170.099 178.525  0.00  0.00    +0.023 HD
ATOM    107  H   UNL     1     148.231 169.532 176.873  0.00  0.00    +0.023 HD
ATOM    108  H   UNL     1     148.297 168.414 178.249  0.00  0.00    +0.023 HD
ENDBRANCH  42 105
BRANCH  17 109
ATOM    109  C   UNL     1     158.359 158.684 183.101  0.00  0.00    -0.058 C 
ATOM    110  H   UNL     1     158.832 158.704 182.114  0.00  0.00    +0.023 HD
ATOM    111  H   UNL     1     159.157 158.758 183.849  0.00  0.00    +0.023 HD
ATOM    112  H   UNL     1     157.878 157.710 183.236  0.00  0.00    +0.023 HD
ENDBRANCH  17 109
BRANCH  38 113
ATOM    113  C   UNL     1     153.221 174.020 181.656  0.00  0.00    -0.058 C 
ATOM    114  H   UNL     1     153.295 173.431 182.578  0.00  0.00    +0.023 HD
ATOM    115  H   UNL     1     152.392 174.724 181.773  0.00  0.00    +0.023 HD
ATOM    116  H   UNL     1     154.143 174.608 181.576  0.00  0.00    +0.023 HD
ENDBRANCH  38 113
BRANCH   7 117
ATOM    117  C   UNL     1     149.810 164.608 183.087  0.00  0.00    -0.040 C 
ATOM    118  H   UNL     1     150.697 165.241 183.204  0.00  0.00    +0.028 HD
ATOM    119  H   UNL     1     149.925 163.726 183.721  0.00  0.00    +0.028 HD
ATOM    120  H   UNL     1     148.964 165.189 183.462  0.00  0.00    +0.028 HD
ENDBRANCH   7 117
BRANCH   1 121
ATOM    121  C   UNL     1     152.426 168.460 178.032  0.00  0.00    +0.020 C 
ATOM    122  H   UNL     1     152.711 167.436 177.741  0.00  0.00    +0.036 HD
BRANCH 121 123
ATOM    123  C   UNL     1     152.909 169.404 176.916  0.00  0.00    -0.057 C 
ATOM    124  H   UNL     1     152.292 169.303 176.020  0.00  0.00    +0.023 HD
ATOM    125  H   UNL     1     153.946 169.218 176.634  0.00  0.00    +0.023 HD
ATOM    126  H   UNL     1     152.823 170.458 177.202  0.00  0.00    +0.023 HD
ENDBRANCH 121 123
BRANCH 121 127
ATOM    127  C   UNL     1     153.132 168.692 179.411  0.00  0.00    +0.064 C 
ATOM    128  H   UNL     1     152.801 169.648 179.808  0.00  0.00    +0.060 HD
BRANCH 127 129
ATOM    129  C   UNL     1     154.696 168.679 179.480  0.00  0.00    -0.017 C 
ATOM    130  H   UNL     1     155.034 167.664 179.233  0.00  0.00    +0.032 HD
BRANCH 129 131
ATOM    131  C   UNL     1     155.426 169.620 178.523  0.00  0.00    -0.060 C 
ATOM    132  H   UNL     1     155.446 169.210 177.509  0.00  0.00    +0.023 HD
ATOM    133  H   UNL     1     154.983 170.619 178.516  0.00  0.00    +0.023 HD
ATOM    134  H   UNL     1     156.478 169.733 178.818  0.00  0.00    +0.023 HD
ENDBRANCH 129 131
BRANCH 129 135
ATOM    135  C   UNL     1     155.193 168.996 180.922  0.00  0.00    -0.046 C 
ATOM    136  H   UNL     1     156.289 168.993 180.942  0.00  0.00    +0.027 HD
ATOM    137  H   UNL     1     154.889 168.184 181.586  0.00  0.00    +0.027 HD
BRANCH 135 138
ATOM    138  C   UNL     1     154.657 170.304 181.504  0.00  0.00    -0.026 C 
ATOM    139  H   UNL     1     153.621 170.160 181.822  0.00  0.00    +0.029 HD
ATOM    140  H   UNL     1     154.627 171.071 180.726  0.00  0.00    +0.029 HD
BRANCH 138 143
ATOM    141  C   UNL     1     157.042 172.549 183.296  0.00  0.00    +0.059 C 
ATOM    142  O   UNL     1     156.362 171.859 182.236  0.00  0.00    -0.373 OA
ATOM    143  C   UNL     1     155.489 170.821 182.690  0.00  0.00    +0.061 C 
ATOM    144  C   UNL     1     156.317 169.706 183.331  0.00  0.00    -0.000 C 
ATOM    145  C   UNL     1     157.566 170.231 184.050  0.00  0.00    +0.063 C 
ATOM    146  C   UNL     1     157.332 171.664 184.508  0.00  0.00    -0.000 C 
ATOM    147  H   UNL     1     158.001 172.867 182.867  0.00  0.00    +0.059 HD
ATOM    148  H   UNL     1     154.814 171.254 183.436  0.00  0.00    +0.060 HD
ATOM    149  H   UNL     1     155.682 169.136 184.013  0.00  0.00    +0.032 HD
ATOM    150  H   UNL     1     156.658 168.991 182.572  0.00  0.00    +0.032 HD
ATOM    151  H   UNL     1     158.413 170.195 183.352  0.00  0.00    +0.060 HD
ATOM    152  H   UNL     1     156.498 171.676 185.222  0.00  0.00    +0.032 HD
ATOM    153  H   UNL     1     158.189 172.064 185.060  0.00  0.00    +0.032 HD
BRANCH 141 154
ATOM    154  C   UNL     1     156.267 173.803 183.688  0.00  0.00    -0.039 C 
ATOM    155  H   UNL     1     156.621 174.678 183.136  0.00  0.00    +0.025 HD
ATOM    156  H   UNL     1     155.196 173.678 183.491  0.00  0.00    +0.025 HD
ATOM    157  H   UNL     1     156.401 174.023 184.750  0.00  0.00    +0.025 HD
ENDBRANCH 141 154
BRANCH 145 158
ATOM    158  O   UNL     1     157.825 169.353 185.150  0.00  0.00    -0.380 OA
BRANCH 158 159
ATOM    159  C   UNL     1     159.207 169.209 185.452  0.00  0.00    +0.037 C 
ATOM    160  H   UNL     1     159.545 170.125 185.943  0.00  0.00    +0.052 HD
ATOM    161  H   UNL     1     159.791 169.082 184.535  0.00  0.00    +0.052 HD
ATOM    162  H   UNL     1     159.380 168.367 186.128  0.00  0.00    +0.052 HD
ENDBRANCH 158 159
ENDBRANCH 145 158
ENDBRANCH 138 143
ENDBRANCH 135 138
ENDBRANCH 129 135
ENDBRANCH 127 129
BRANCH 127 163
ATOM    163  O   UNL     1     152.712 167.719 180.377  0.00  0.00    -0.391 OA
ATOM    164  H   UNL     1     151.910 167.273 180.053  0.00  0.00    +0.210 HD
ENDBRANCH 127 163
ENDBRANCH 121 127
ENDBRANCH   1 121
BRANCH  41 165
ATOM    165  O   UNL     1     149.011 171.226 179.814  0.00  0.00    -0.391 OA
ATOM    166  H   UNL     1     148.876 172.063 179.325  0.00  0.00    +0.210 HD
ENDBRANCH  41 165
BRANCH  39 167
ATOM    167  O   UNL     1     150.603 173.636 180.478  0.00  0.00    -0.391 OA
ATOM    168  H   UNL     1     149.993 173.560 179.719  0.00  0.00    +0.210 HD
ENDBRANCH  39 167
BRANCH  31 169
ATOM    169  O   UNL     1     160.438 171.094 178.593  0.00  0.00    -0.391 OA
ATOM    170  H   UNL     1     160.440 170.502 177.820  0.00  0.00    +0.210 HD
ENDBRANCH  31 169
BRANCH  22 171
ATOM    171  C   UNL     1     154.644 165.718 186.095  0.00  0.00    +0.020 C 
ATOM    172  H   UNL     1     154.511 165.339 187.114  0.00  0.00    +0.036 HD
BRANCH 171 173
ATOM    173  C   UNL     1     155.117 167.172 186.178  0.00  0.00    -0.057 C 
ATOM    174  H   UNL     1     154.730 167.758 185.343  0.00  0.00    +0.023 HD
ATOM    175  H   UNL     1     156.209 167.244 186.161  0.00  0.00    +0.023 HD
ATOM    176  H   UNL     1     154.791 167.651 187.105  0.00  0.00    +0.023 HD
ENDBRANCH 171 173
BRANCH 171 177
ATOM    177  C   UNL     1     153.266 165.602 185.392  0.00  0.00    +0.064 C 
ATOM    178  H   UNL     1     153.094 166.507 184.800  0.00  0.00    +0.060 HD
BRANCH 177 179
ATOM    179  O   UNL     1     153.333 164.499 184.487  0.00  0.00    -0.391 OA
ATOM    180  H   UNL     1     152.407 164.195 184.351  0.00  0.00    +0.210 HD
ENDBRANCH 177 179
BRANCH 177 181
ATOM    181  C   UNL     1     152.017 165.425 186.301  0.00  0.00    -0.017 C 
ATOM    182  H   UNL     1     151.165 165.170 185.656  0.00  0.00    +0.032 HD
BRANCH 181 183
ATOM    183  C   UNL     1     152.242 164.226 187.241  0.00  0.00    -0.060 C 
ATOM    184  H   UNL     1     152.895 163.475 186.784  0.00  0.00    +0.023 HD
ATOM    185  H   UNL     1     152.692 164.536 188.189  0.00  0.00    +0.023 HD
ATOM    186  H   UNL     1     151.297 163.739 187.486  0.00  0.00    +0.023 HD
ENDBRANCH 181 183
BRANCH 181 187
ATOM    187  C   UNL     1     151.651 166.681 187.124  0.00  0.00    -0.046 C 
ATOM    188  H   UNL     1     150.747 167.146 186.719  0.00  0.00    +0.027 HD
ATOM    189  H   UNL     1     152.455 167.423 187.036  0.00  0.00    +0.027 HD
BRANCH 187 190
ATOM    190  C   UNL     1     151.390 166.360 188.606  0.00  0.00    -0.026 C 
ATOM    191  H   UNL     1     151.676 165.325 188.808  0.00  0.00    +0.029 HD
ATOM    192  H   UNL     1     150.314 166.431 188.803  0.00  0.00    +0.029 HD
BRANCH 190 193
ATOM    193  C   UNL     1     152.141 167.300 189.566  0.00  0.00    +0.061 C 
ATOM    194  O   UNL     1     153.562 167.194 189.440  0.00  0.00    -0.373 OA
ATOM    195  C   UNL     1     154.119 165.964 189.912  0.00  0.00    +0.059 C 
ATOM    196  C   UNL     1     153.789 165.744 191.386  0.00  0.00    -0.000 C 
ATOM    197  C   UNL     1     152.280 165.814 191.623  0.00  0.00    +0.063 C 
ATOM    198  C   UNL     1     151.725 167.108 191.025  0.00  0.00    -0.000 C 
ATOM    199  H   UNL     1     151.887 168.328 189.282  0.00  0.00    +0.060 HD
ATOM    200  H   UNL     1     153.735 165.135 189.306  0.00  0.00    +0.059 HD
ATOM    201  H   UNL     1     154.279 166.508 192.004  0.00  0.00    +0.032 HD
ATOM    202  H   UNL     1     154.188 164.779 191.718  0.00  0.00    +0.032 HD
ATOM    203  H   UNL     1     151.783 164.958 191.152  0.00  0.00    +0.060 HD
ATOM    204  H   UNL     1     152.106 167.951 191.619  0.00  0.00    +0.032 HD
ATOM    205  H   UNL     1     150.634 167.137 191.136  0.00  0.00    +0.032 HD
BRANCH 195 206
ATOM    206  C   UNL     1     155.627 166.038 189.698  0.00  0.00    -0.039 C 
ATOM    207  H   UNL     1     156.099 165.093 189.990  0.00  0.00    +0.025 HD
ATOM    208  H   UNL     1     156.070 166.847 190.287  0.00  0.00    +0.025 HD
ATOM    209  H   UNL     1     155.866 166.197 188.641  0.00  0.00    +0.025 HD
ENDBRANCH 195 206
BRANCH 197 210
ATOM    210  O   UNL     1     151.966 165.823 193.022  0.00  0.00    -0.380 OA
BRANCH 210 211
ATOM    211  C   UNL     1     150.692 166.381 193.320  0.00  0.00    +0.037 C 
ATOM    212  H   UNL     1     150.755 167.464 193.176  0.00  0.00    +0.052 HD
ATOM    213  H   UNL     1     150.417 166.192 194.361  0.00  0.00    +0.052 HD
ATOM    214  H   UNL     1     149.928 165.983 192.646  0.00  0.00    +0.052 HD
ENDBRANCH 210 211
ENDBRANCH 197 210
ENDBRANCH 190 193
ENDBRANCH 187 190
ENDBRANCH 181 187
ENDBRANCH 177 181
ENDBRANCH 171 177
ENDBRANCH  22 171
BRANCH  20 215
ATOM    215  O   UNL     1     158.585 163.682 185.041  0.00  0.00    -0.391 OA
ATOM    216  H   UNL     1     158.305 163.844 184.121  0.00  0.00    +0.210 HD
ENDBRANCH  20 215
BRANCH  18 217
ATOM    217  O   UNL     1     158.998 161.614 183.415  0.00  0.00    -0.391 OA
ATOM    218  H   UNL     1     159.180 161.060 182.628  0.00  0.00    +0.210 HD
ENDBRANCH  18 217
BRANCH  10 219
ATOM    219  O   UNL     1     149.690 159.386 182.466  0.00  0.00    -0.391 OA
ATOM    220  H   UNL     1     150.617 159.305 182.754  0.00  0.00    +0.210 HD
ENDBRANCH  10 219
BRANCH  37 221
ATOM    221  O   UNL     1     153.408 175.243 179.224  0.00  0.00    -0.379 OA
BRANCH 221 222
ATOM    222  C   UNL     1     152.457 175.859 178.364  0.00  0.00    +0.037 C 
ATOM    223  H   UNL     1     152.670 176.931 178.341  0.00  0.00    +0.052 HD
ATOM    224  H   UNL     1     152.541 175.474 177.346  0.00  0.00    +0.052 HD
ATOM    225  H   UNL     1     151.441 175.713 178.742  0.00  0.00    +0.052 HD
ENDBRANCH 221 222
ENDBRANCH  37 221
BRANCH  16 226
ATOM    226  O   UNL     1     157.422 159.756 180.798  0.00  0.00    -0.379 OA
BRANCH 226 227
ATOM    227  C   UNL     1     158.204 160.687 180.060  0.00  0.00    +0.037 C 
ATOM    228  H   UNL     1     158.638 160.231 179.165  0.00  0.00    +0.052 HD
ATOM    229  H   UNL     1     158.997 161.089 180.700  0.00  0.00    +0.052 HD
ATOM    230  H   UNL     1     157.555 161.513 179.748  0.00  0.00    +0.052 HD
ENDBRANCH 226 227
ENDBRANCH  16 226
TORSDOF 40
ENDMDL
MODEL 6
REMARK VINA RESULT:      -4.4      3.402      7.720
REMARK  Name = Swinholide A_conf1
REMARK  40 active torsions:
REMARK  status: ('A' for Active; 'I' for Inactive)
REMARK    1  A    between atoms: C_1  and  C_2
REMARK    2  A    between atoms: C_4  and  C_10
REMARK    3  A    between atoms: C_6  and  O_8
REMARK    4  A    between atoms: O_8  and  C_9
REMARK    5  A    between atoms: C_10  and  C_11
REMARK    6  A    between atoms: C_11  and  C_12
REMARK    7  A    between atoms: C_12  and  C_13
REMARK    8  A    between atoms: C_12  and  C_98
REMARK    9  A    between atoms: C_13  and  O_14
REMARK   10  A    between atoms: C_13  and  C_15
REMARK   11  A    between atoms: C_15  and  C_16
REMARK   12  A    between atoms: C_15  and  C_97
REMARK   13  A    between atoms: C_22  and  C_96
REMARK   14  A    between atoms: C_25  and  O_95
REMARK   15  A    between atoms: C_31  and  O_90
REMARK   16  A    between atoms: C_32  and  C_89
REMARK   17  A    between atoms: C_33  and  O_88
REMARK   18  A    between atoms: C_35  and  O_87
REMARK   19  A    between atoms: C_36  and  C_86
REMARK   20  A    between atoms: C_37  and  C_69
REMARK   21  A    between atoms: C_43  and  C_68
REMARK   22  A    between atoms: C_46  and  O_67
REMARK   23  A    between atoms: C_52  and  O_62
REMARK   24  A    between atoms: C_53  and  C_61
REMARK   25  A    between atoms: C_54  and  O_60
REMARK   26  A    between atoms: C_56  and  O_59
REMARK   27  A    between atoms: C_57  and  C_58
REMARK   28  A    between atoms: O_62  and  C_63
REMARK   29  A    between atoms: C_69  and  C_70
REMARK   30  A    between atoms: C_69  and  C_85
REMARK   31  A    between atoms: C_70  and  O_71
REMARK   32  A    between atoms: C_70  and  C_72
REMARK   33  A    between atoms: C_72  and  C_73
REMARK   34  A    between atoms: C_72  and  C_84
REMARK   35  A    between atoms: C_73  and  C_74
REMARK   36  A    between atoms: C_74  and  C_75
REMARK   37  A    between atoms: C_77  and  C_83
REMARK   38  A    between atoms: C_79  and  O_81
REMARK   39  A    between atoms: O_81  and  C_82
REMARK   40  A    between atoms: O_90  and  C_91
REMARK                            x       y       z     vdW  Elec       q    Type
REMARK                         _______ _______ _______ _____ _____    ______ ____
ROOT
ATOM      1  C   UNL     1     151.741 169.439 177.645  0.00  0.00    +0.113 C 
ATOM      2  O   UNL     1     152.091 168.385 178.583  0.00  0.00    -0.458 OA
ATOM      3  C   UNL     1     151.948 167.110 178.129  0.00  0.00    +0.332 C 
ATOM      4  O   UNL     1     151.513 166.778 177.031  0.00  0.00    -0.246 OA
ATOM      5  C   UNL     1     152.370 166.099 179.110  0.00  0.00    +0.023 C 
ATOM      6  C   UNL     1     153.248 166.319 180.099  0.00  0.00    -0.052 C 
ATOM      7  C   UNL     1     153.773 165.287 180.988  0.00  0.00    -0.054 C 
ATOM      8  C   UNL     1     154.164 164.085 180.517  0.00  0.00    -0.079 C 
ATOM      9  C   UNL     1     154.921 163.033 181.290  0.00  0.00    -0.008 C 
ATOM     10  C   UNL     1     155.881 162.179 180.439  0.00  0.00    +0.061 C 
ATOM     11  C   UNL     1     156.795 162.894 179.434  0.00  0.00    +0.003 C 
ATOM     12  C   UNL     1     157.933 163.782 179.973  0.00  0.00    +0.080 C 
ATOM     13  O   UNL     1     158.828 163.931 178.843  0.00  0.00    -0.369 OA
ATOM     14  C   UNL     1     159.653 165.107 178.821  0.00  0.00    +0.065 C 
ATOM     15  C   UNL     1     160.727 165.053 179.928  0.00  0.00    +0.000 C 
ATOM     16  C   UNL     1     161.749 166.207 179.858  0.00  0.00    +0.066 C 
ATOM     17  C   UNL     1     162.747 166.111 181.053  0.00  0.00    +0.009 C 
ATOM     18  C   UNL     1     162.765 167.394 181.925  0.00  0.00    +0.063 C 
ATOM     19  C   UNL     1     161.434 167.644 182.668  0.00  0.00    -0.000 C 
ATOM     20  C   UNL     1     161.565 168.790 183.693  0.00  0.00    +0.064 C 
ATOM     21  C   UNL     1     160.331 168.991 184.626  0.00  0.00    +0.020 C 
ATOM     22  C   UNL     1     158.998 169.263 183.862  0.00  0.00    +0.113 C 
ATOM     23  O   UNL     1     159.189 170.477 183.087  0.00  0.00    -0.458 OA
ATOM     24  C   UNL     1     158.782 170.439 181.791  0.00  0.00    +0.332 C 
ATOM     25  O   UNL     1     158.173 169.529 181.253  0.00  0.00    -0.246 OA
ATOM     26  C   UNL     1     159.163 171.707 181.128  0.00  0.00    +0.023 C 
ATOM     27  C   UNL     1     158.890 171.873 179.826  0.00  0.00    -0.052 C 
ATOM     28  C   UNL     1     159.170 173.066 179.036  0.00  0.00    -0.054 C 
ATOM     29  C   UNL     1     158.764 174.287 179.441  0.00  0.00    -0.079 C 
ATOM     30  C   UNL     1     158.939 175.594 178.717  0.00  0.00    -0.008 C 
ATOM     31  C   UNL     1     157.658 176.143 178.044  0.00  0.00    +0.061 C 
ATOM     32  C   UNL     1     156.705 176.838 179.039  0.00  0.00    +0.003 C 
ATOM     33  C   UNL     1     155.564 177.620 178.351  0.00  0.00    +0.080 C 
ATOM     34  O   UNL     1     154.493 176.751 177.947  0.00  0.00    -0.369 OA
ATOM     35  C   UNL     1     153.356 176.663 178.835  0.00  0.00    +0.065 C 
ATOM     36  C   UNL     1     152.340 175.757 178.114  0.00  0.00    +0.000 C 
ATOM     37  C   UNL     1     151.020 175.380 178.828  0.00  0.00    +0.066 C 
ATOM     38  C   UNL     1     151.267 174.559 180.131  0.00  0.00    +0.009 C 
ATOM     39  C   UNL     1     150.385 173.284 180.249  0.00  0.00    +0.063 C 
ATOM     40  C   UNL     1     150.360 172.413 178.982  0.00  0.00    -0.000 C 
ATOM     41  C   UNL     1     150.247 170.909 179.296  0.00  0.00    +0.064 C 
ATOM     42  C   UNL     1     150.342 170.060 177.993  0.00  0.00    +0.020 C 
ATOM     43  C   UNL     1     152.779 178.053 179.137  0.00  0.00    -0.008 C 
ATOM     44  C   UNL     1     153.850 178.999 179.568  0.00  0.00    -0.083 C 
ATOM     45  C   UNL     1     155.116 178.787 179.200  0.00  0.00    -0.059 C 
ATOM     46  C   UNL     1     158.746 166.350 178.836  0.00  0.00    -0.008 C 
ATOM     47  C   UNL     1     157.794 166.291 179.985  0.00  0.00    -0.083 C 
ATOM     48  C   UNL     1     157.455 165.108 180.514  0.00  0.00    -0.059 C 
ATOM     49  H   UNL     1     151.597 168.985 176.653  0.00  0.00    +0.074 HD
ATOM     50  H   UNL     1     151.974 165.108 178.913  0.00  0.00    +0.069 HD
ATOM     51  H   UNL     1     153.665 167.310 180.265  0.00  0.00    +0.062 HD
ATOM     52  H   UNL     1     154.000 163.851 179.466  0.00  0.00    +0.058 HD
ATOM     53  H   UNL     1     155.480 163.466 182.127  0.00  0.00    +0.033 HD
ATOM     54  H   UNL     1     154.189 162.356 181.752  0.00  0.00    +0.033 HD
ATOM     55  H   UNL     1     155.256 161.485 179.862  0.00  0.00    +0.060 HD
ATOM     56  H   UNL     1     156.199 163.465 178.711  0.00  0.00    +0.032 HD
ATOM     57  H   UNL     1     157.270 162.105 178.832  0.00  0.00    +0.032 HD
ATOM     58  H   UNL     1     158.490 163.251 180.753  0.00  0.00    +0.064 HD
ATOM     59  H   UNL     1     160.163 165.083 177.850  0.00  0.00    +0.060 HD
ATOM     60  H   UNL     1     161.255 164.094 179.827  0.00  0.00    +0.032 HD
ATOM     61  H   UNL     1     160.257 165.036 180.919  0.00  0.00    +0.032 HD
ATOM     62  H   UNL     1     161.201 167.153 179.900  0.00  0.00    +0.060 HD
ATOM     63  H   UNL     1     162.421 165.301 181.722  0.00  0.00    +0.035 HD
ATOM     64  H   UNL     1     163.561 167.292 182.673  0.00  0.00    +0.060 HD
ATOM     65  H   UNL     1     160.667 167.917 181.935  0.00  0.00    +0.032 HD
ATOM     66  H   UNL     1     161.121 166.722 183.172  0.00  0.00    +0.032 HD
ATOM     67  H   UNL     1     162.436 168.590 184.331  0.00  0.00    +0.060 HD
ATOM     68  H   UNL     1     160.560 169.886 185.220  0.00  0.00    +0.036 HD
ATOM     69  H   UNL     1     158.834 168.405 183.200  0.00  0.00    +0.074 HD
ATOM     70  H   UNL     1     159.658 172.462 181.725  0.00  0.00    +0.069 HD
ATOM     71  H   UNL     1     158.416 171.060 179.274  0.00  0.00    +0.062 HD
ATOM     72  H   UNL     1     158.259 174.381 180.400  0.00  0.00    +0.058 HD
ATOM     73  H   UNL     1     159.323 176.337 179.430  0.00  0.00    +0.033 HD
ATOM     74  H   UNL     1     159.737 175.518 177.969  0.00  0.00    +0.033 HD
ATOM     75  H   UNL     1     157.123 175.348 177.513  0.00  0.00    +0.060 HD
ATOM     76  H   UNL     1     157.306 177.539 179.634  0.00  0.00    +0.032 HD
ATOM     77  H   UNL     1     156.291 176.091 179.727  0.00  0.00    +0.032 HD
ATOM     78  H   UNL     1     155.936 178.065 177.421  0.00  0.00    +0.064 HD
ATOM     79  H   UNL     1     153.696 176.182 179.758  0.00  0.00    +0.060 HD
ATOM     80  H   UNL     1     152.857 174.824 177.843  0.00  0.00    +0.032 HD
ATOM     81  H   UNL     1     152.103 176.222 177.149  0.00  0.00    +0.032 HD
ATOM     82  H   UNL     1     150.478 174.751 178.116  0.00  0.00    +0.060 HD
ATOM     83  H   UNL     1     152.295 174.180 180.091  0.00  0.00    +0.035 HD
ATOM     84  H   UNL     1     150.791 172.697 181.082  0.00  0.00    +0.060 HD
ATOM     85  H   UNL     1     149.495 172.701 178.369  0.00  0.00    +0.032 HD
ATOM     86  H   UNL     1     151.249 172.601 178.386  0.00  0.00    +0.032 HD
ATOM     87  H   UNL     1     151.022 170.597 180.003  0.00  0.00    +0.060 HD
ATOM     88  H   UNL     1     150.074 170.714 177.151  0.00  0.00    +0.036 HD
ATOM     89  H   UNL     1     152.027 177.993 179.931  0.00  0.00    +0.033 HD
ATOM     90  H   UNL     1     152.297 178.478 178.249  0.00  0.00    +0.033 HD
ATOM     91  H   UNL     1     153.573 179.877 180.143  0.00  0.00    +0.057 HD
ATOM     92  H   UNL     1     155.880 179.505 179.491  0.00  0.00    +0.059 HD
ATOM     93  H   UNL     1     158.150 166.385 177.915  0.00  0.00    +0.033 HD
ATOM     94  H   UNL     1     159.330 167.272 178.875  0.00  0.00    +0.033 HD
ATOM     95  H   UNL     1     157.399 167.218 180.391  0.00  0.00    +0.057 HD
ATOM     96  H   UNL     1     156.811 165.097 181.387  0.00  0.00    +0.059 HD
ENDROOT
BRANCH  28  97
ATOM     97  C   UNL     1     159.841 172.771 177.719  0.00  0.00    -0.040 C 
ATOM     98  H   UNL     1     160.693 172.095 177.857  0.00  0.00    +0.028 HD
ATOM     99  H   UNL     1     160.211 173.700 177.270  0.00  0.00    +0.028 HD
ATOM    100  H   UNL     1     159.179 172.290 176.995  0.00  0.00    +0.028 HD
ENDBRANCH  28  97
BRANCH  21 101
ATOM    101  C   UNL     1     160.214 167.807 185.592  0.00  0.00    -0.057 C 
ATOM    102  H   UNL     1     159.315 167.214 185.398  0.00  0.00    +0.023 HD
ATOM    103  H   UNL     1     160.176 168.145 186.633  0.00  0.00    +0.023 HD
ATOM    104  H   UNL     1     161.082 167.143 185.511  0.00  0.00    +0.023 HD
ENDBRANCH  21 101
BRANCH  42 105
ATOM    105  C   UNL     1     149.278 168.936 177.980  0.00  0.00    -0.057 C 
ATOM    106  H   UNL     1     149.343 168.321 178.884  0.00  0.00    +0.023 HD
ATOM    107  H   UNL     1     148.262 169.342 177.910  0.00  0.00    +0.023 HD
ATOM    108  H   UNL     1     149.432 168.257 177.134  0.00  0.00    +0.023 HD
ENDBRANCH  42 105
BRANCH  17 109
ATOM    109  C   UNL     1     164.176 165.753 180.620  0.00  0.00    -0.058 C 
ATOM    110  H   UNL     1     164.922 166.072 181.354  0.00  0.00    +0.023 HD
ATOM    111  H   UNL     1     164.279 164.669 180.497  0.00  0.00    +0.023 HD
ATOM    112  H   UNL     1     164.419 166.213 179.656  0.00  0.00    +0.023 HD
ENDBRANCH  17 109
BRANCH  38 113
ATOM    113  C   UNL     1     151.137 175.398 181.413  0.00  0.00    -0.058 C 
ATOM    114  H   UNL     1     151.354 174.814 182.315  0.00  0.00    +0.023 HD
ATOM    115  H   UNL     1     150.130 175.813 181.516  0.00  0.00    +0.023 HD
ATOM    116  H   UNL     1     151.840 176.239 181.398  0.00  0.00    +0.023 HD
ENDBRANCH  38 113
BRANCH   7 117
ATOM    117  C   UNL     1     153.931 165.730 182.416  0.00  0.00    -0.040 C 
ATOM    118  H   UNL     1     154.097 166.812 182.469  0.00  0.00    +0.028 HD
ATOM    119  H   UNL     1     154.782 165.224 182.876  0.00  0.00    +0.028 HD
ATOM    120  H   UNL     1     153.045 165.524 183.020  0.00  0.00    +0.028 HD
ENDBRANCH   7 117
BRANCH   1 121
ATOM    121  C   UNL     1     152.996 170.364 177.427  0.00  0.00    +0.020 C 
ATOM    122  H   UNL     1     152.940 171.085 178.258  0.00  0.00    +0.036 HD
BRANCH 121 123
ATOM    123  C   UNL     1     154.272 169.526 177.633  0.00  0.00    -0.057 C 
ATOM    124  H   UNL     1     154.335 169.149 178.656  0.00  0.00    +0.023 HD
ATOM    125  H   UNL     1     155.180 170.095 177.426  0.00  0.00    +0.023 HD
ATOM    126  H   UNL     1     154.285 168.633 177.000  0.00  0.00    +0.023 HD
ENDBRANCH 121 123
BRANCH 121 127
ATOM    127  C   UNL     1     153.018 171.248 176.134  0.00  0.00    +0.064 C 
ATOM    128  H   UNL     1     153.300 170.619 175.294  0.00  0.00    +0.060 HD
BRANCH 127 129
ATOM    129  C   UNL     1     153.937 172.516 176.092  0.00  0.00    -0.017 C 
ATOM    130  H   UNL     1     154.960 172.181 175.876  0.00  0.00    +0.032 HD
BRANCH 129 131
ATOM    131  C   UNL     1     153.597 173.568 175.038  0.00  0.00    -0.060 C 
ATOM    132  H   UNL     1     154.499 173.922 174.532  0.00  0.00    +0.023 HD
ATOM    133  H   UNL     1     152.878 173.193 174.306  0.00  0.00    +0.023 HD
ATOM    134  H   UNL     1     153.151 174.455 175.506  0.00  0.00    +0.023 HD
ENDBRANCH 129 131
BRANCH 129 135
ATOM    135  C   UNL     1     153.965 173.229 177.477  0.00  0.00    -0.046 C 
ATOM    136  H   UNL     1     153.183 172.812 178.121  0.00  0.00    +0.027 HD
ATOM    137  H   UNL     1     153.698 174.279 177.338  0.00  0.00    +0.027 HD
BRANCH 135 138
ATOM    138  C   UNL     1     155.318 173.180 178.187  0.00  0.00    -0.026 C 
ATOM    139  H   UNL     1     155.788 174.166 178.138  0.00  0.00    +0.029 HD
ATOM    140  H   UNL     1     155.990 172.501 177.656  0.00  0.00    +0.029 HD
BRANCH 138 143
ATOM    141  C   UNL     1     153.743 171.612 181.187  0.00  0.00    +0.059 C 
ATOM    142  O   UNL     1     153.895 172.235 179.902  0.00  0.00    -0.373 OA
ATOM    143  C   UNL     1     155.211 172.738 179.657  0.00  0.00    +0.061 C 
ATOM    144  C   UNL     1     155.500 173.891 180.618  0.00  0.00    -0.000 C 
ATOM    145  C   UNL     1     154.832 173.707 181.986  0.00  0.00    +0.063 C 
ATOM    146  C   UNL     1     154.634 172.224 182.267  0.00  0.00    -0.000 C 
ATOM    147  H   UNL     1     152.697 171.781 181.470  0.00  0.00    +0.059 HD
ATOM    148  H   UNL     1     155.920 171.922 179.835  0.00  0.00    +0.060 HD
ATOM    149  H   UNL     1     156.583 174.007 180.723  0.00  0.00    +0.032 HD
ATOM    150  H   UNL     1     155.138 174.841 180.206  0.00  0.00    +0.032 HD
ATOM    151  H   UNL     1     153.860 174.218 181.973  0.00  0.00    +0.060 HD
ATOM    152  H   UNL     1     155.618 171.735 182.300  0.00  0.00    +0.032 HD
ATOM    153  H   UNL     1     154.192 172.048 183.254  0.00  0.00    +0.032 HD
BRANCH 141 154
ATOM    154  C   UNL     1     153.957 170.106 181.068  0.00  0.00    -0.039 C 
ATOM    155  H   UNL     1     154.719 169.871 180.320  0.00  0.00    +0.025 HD
ATOM    156  H   UNL     1     154.268 169.679 182.027  0.00  0.00    +0.025 HD
ATOM    157  H   UNL     1     153.036 169.610 180.749  0.00  0.00    +0.025 HD
ENDBRANCH 141 154
BRANCH 145 158
ATOM    158  O   UNL     1     155.676 174.328 182.960  0.00  0.00    -0.380 OA
BRANCH 158 159
ATOM    159  C   UNL     1     157.061 174.066 182.766  0.00  0.00    +0.037 C 
ATOM    160  H   UNL     1     157.295 174.241 181.712  0.00  0.00    +0.052 HD
ATOM    161  H   UNL     1     157.291 173.021 182.995  0.00  0.00    +0.052 HD
ATOM    162  H   UNL     1     157.681 174.731 183.375  0.00  0.00    +0.052 HD
ENDBRANCH 158 159
ENDBRANCH 145 158
ENDBRANCH 138 143
ENDBRANCH 135 138
ENDBRANCH 129 135
ENDBRANCH 127 129
BRANCH 127 163
ATOM    163  O   UNL     1     151.706 171.732 175.817  0.00  0.00    -0.391 OA
ATOM    164  H   UNL     1     151.332 171.193 175.099  0.00  0.00    +0.210 HD
ENDBRANCH 127 163
ENDBRANCH 121 127
ENDBRANCH   1 121
BRANCH  41 165
ATOM    165  O   UNL     1     148.989 170.690 179.943  0.00  0.00    -0.391 OA
ATOM    166  H   UNL     1     149.136 170.604 180.907  0.00  0.00    +0.210 HD
ENDBRANCH  41 165
BRANCH  39 167
ATOM    167  O   UNL     1     149.033 173.581 180.596  0.00  0.00    -0.391 OA
ATOM    168  H   UNL     1     148.526 173.699 179.770  0.00  0.00    +0.210 HD
ENDBRANCH  39 167
BRANCH  31 169
ATOM    169  O   UNL     1     158.082 177.106 177.068  0.00  0.00    -0.391 OA
ATOM    170  H   UNL     1     157.320 177.680 176.880  0.00  0.00    +0.210 HD
ENDBRANCH  31 169
BRANCH  22 171
ATOM    171  C   UNL     1     157.735 169.416 184.782  0.00  0.00    +0.020 C 
ATOM    172  H   UNL     1     158.073 169.242 185.809  0.00  0.00    +0.036 HD
BRANCH 171 173
ATOM    173  C   UNL     1     157.136 170.823 184.702  0.00  0.00    -0.057 C 
ATOM    174  H   UNL     1     157.907 171.566 184.490  0.00  0.00    +0.023 HD
ATOM    175  H   UNL     1     156.644 171.107 185.637  0.00  0.00    +0.023 HD
ATOM    176  H   UNL     1     156.375 170.895 183.920  0.00  0.00    +0.023 HD
ENDBRANCH 171 173
BRANCH 171 177
ATOM    177  C   UNL     1     156.677 168.325 184.468  0.00  0.00    +0.064 C 
ATOM    178  H   UNL     1     155.717 168.810 184.266  0.00  0.00    +0.060 HD
BRANCH 177 179
ATOM    179  O   UNL     1     157.086 167.656 183.273  0.00  0.00    -0.391 OA
ATOM    180  H   UNL     1     158.069 167.630 183.293  0.00  0.00    +0.210 HD
ENDBRANCH 177 179
BRANCH 177 181
ATOM    181  C   UNL     1     156.410 167.258 185.568  0.00  0.00    -0.017 C 
ATOM    182  H   UNL     1     157.000 167.532 186.453  0.00  0.00    +0.032 HD
BRANCH 181 183
ATOM    183  C   UNL     1     154.928 167.316 185.980  0.00  0.00    -0.060 C 
ATOM    184  H   UNL     1     154.308 166.680 185.339  0.00  0.00    +0.023 HD
ATOM    185  H   UNL     1     154.784 166.996 187.016  0.00  0.00    +0.023 HD
ATOM    186  H   UNL     1     154.542 168.334 185.908  0.00  0.00    +0.023 HD
ENDBRANCH 181 183
BRANCH 181 187
ATOM    187  C   UNL     1     156.788 165.817 185.155  0.00  0.00    -0.046 C 
ATOM    188  H   UNL     1     157.443 165.836 184.277  0.00  0.00    +0.027 HD
ATOM    189  H   UNL     1     155.882 165.271 184.860  0.00  0.00    +0.027 HD
BRANCH 187 190
ATOM    190  C   UNL     1     157.522 165.056 186.272  0.00  0.00    -0.026 C 
ATOM    191  H   UNL     1     157.956 165.773 186.974  0.00  0.00    +0.029 HD
ATOM    192  H   UNL     1     158.361 164.500 185.836  0.00  0.00    +0.029 HD
BRANCH 190 193
ATOM    193  C   UNL     1     156.610 164.076 187.032  0.00  0.00    +0.061 C 
ATOM    194  O   UNL     1     155.702 164.742 187.914  0.00  0.00    -0.373 OA
ATOM    195  C   UNL     1     156.309 165.352 189.056  0.00  0.00    +0.059 C 
ATOM    196  C   UNL     1     157.062 164.320 189.893  0.00  0.00    -0.000 C 
ATOM    197  C   UNL     1     158.082 163.566 189.040  0.00  0.00    +0.063 C 
ATOM    198  C   UNL     1     157.396 163.007 187.792  0.00  0.00    -0.000 C 
ATOM    199  H   UNL     1     155.989 163.564 186.288  0.00  0.00    +0.060 HD
ATOM    200  H   UNL     1     156.990 166.145 188.725  0.00  0.00    +0.059 HD
ATOM    201  H   UNL     1     156.360 163.596 190.326  0.00  0.00    +0.032 HD
ATOM    202  H   UNL     1     157.555 164.813 190.739  0.00  0.00    +0.032 HD
ATOM    203  H   UNL     1     158.892 164.239 188.734  0.00  0.00    +0.060 HD
ATOM    204  H   UNL     1     156.705 162.213 188.107  0.00  0.00    +0.032 HD
ATOM    205  H   UNL     1     158.133 162.517 187.143  0.00  0.00    +0.032 HD
BRANCH 195 206
ATOM    206  C   UNL     1     155.196 166.003 189.870  0.00  0.00    -0.039 C 
ATOM    207  H   UNL     1     154.941 165.378 190.733  0.00  0.00    +0.025 HD
ATOM    208  H   UNL     1     154.296 166.146 189.263  0.00  0.00    +0.025 HD
ATOM    209  H   UNL     1     155.515 166.973 190.265  0.00  0.00    +0.025 HD
ENDBRANCH 195 206
BRANCH 197 210
ATOM    210  O   UNL     1     158.644 162.455 189.750  0.00  0.00    -0.380 OA
BRANCH 210 211
ATOM    211  C   UNL     1     159.217 162.806 191.004  0.00  0.00    +0.037 C 
ATOM    212  H   UNL     1     159.602 161.892 191.466  0.00  0.00    +0.052 HD
ATOM    213  H   UNL     1     158.465 163.233 191.672  0.00  0.00    +0.052 HD
ATOM    214  H   UNL     1     160.048 163.504 190.868  0.00  0.00    +0.052 HD
ENDBRANCH 210 211
ENDBRANCH 197 210
ENDBRANCH 190 193
ENDBRANCH 187 190
ENDBRANCH 181 187
ENDBRANCH 177 181
ENDBRANCH 171 177
ENDBRANCH  22 171
BRANCH  20 215
ATOM    215  O   UNL     1     161.881 169.992 182.977  0.00  0.00    -0.391 OA
ATOM    216  H   UNL     1     162.823 169.947 182.729  0.00  0.00    +0.210 HD
ENDBRANCH  20 215
BRANCH  18 217
ATOM    217  O   UNL     1     163.097 168.524 181.117  0.00  0.00    -0.391 OA
ATOM    218  H   UNL     1     162.254 168.855 180.743  0.00  0.00    +0.210 HD
ENDBRANCH  18 217
BRANCH  10 219
ATOM    219  O   UNL     1     156.668 161.373 181.321  0.00  0.00    -0.391 OA
ATOM    220  H   UNL     1     156.103 161.137 182.080  0.00  0.00    +0.210 HD
ENDBRANCH  10 219
BRANCH  37 221
ATOM    221  O   UNL     1     150.176 176.497 179.108  0.00  0.00    -0.379 OA
BRANCH 221 222
ATOM    222  C   UNL     1     148.907 176.449 178.469  0.00  0.00    +0.037 C 
ATOM    223  H   UNL     1     149.047 176.721 177.420  0.00  0.00    +0.052 HD
ATOM    224  H   UNL     1     148.486 175.442 178.505  0.00  0.00    +0.052 HD
ATOM    225  H   UNL     1     148.215 177.164 178.925  0.00  0.00    +0.052 HD
ENDBRANCH 221 222
ENDBRANCH  37 221
BRANCH  16 226
ATOM    226  O   UNL     1     162.415 166.087 178.591  0.00  0.00    -0.379 OA
BRANCH 226 227
ATOM    227  C   UNL     1     162.394 167.295 177.840  0.00  0.00    +0.037 C 
ATOM    228  H   UNL     1     161.407 167.482 177.404  0.00  0.00    +0.052 HD
ATOM    229  H   UNL     1     163.151 167.250 177.050  0.00  0.00    +0.052 HD
ATOM    230  H   UNL     1     162.638 168.125 178.512  0.00  0.00    +0.052 HD
ENDBRANCH 226 227
ENDBRANCH  16 226
TORSDOF 40
ENDMDL
MODEL 7
REMARK VINA RESULT:      -4.3      1.552      2.563
REMARK  Name = Swinholide A_conf1
REMARK  40 active torsions:
REMARK  status: ('A' for Active; 'I' for Inactive)
REMARK    1  A    between atoms: C_1  and  C_2
REMARK    2  A    between atoms: C_4  and  C_10
REMARK    3  A    between atoms: C_6  and  O_8
REMARK    4  A    between atoms: O_8  and  C_9
REMARK    5  A    between atoms: C_10  and  C_11
REMARK    6  A    between atoms: C_11  and  C_12
REMARK    7  A    between atoms: C_12  and  C_13
REMARK    8  A    between atoms: C_12  and  C_98
REMARK    9  A    between atoms: C_13  and  O_14
REMARK   10  A    between atoms: C_13  and  C_15
REMARK   11  A    between atoms: C_15  and  C_16
REMARK   12  A    between atoms: C_15  and  C_97
REMARK   13  A    between atoms: C_22  and  C_96
REMARK   14  A    between atoms: C_25  and  O_95
REMARK   15  A    between atoms: C_31  and  O_90
REMARK   16  A    between atoms: C_32  and  C_89
REMARK   17  A    between atoms: C_33  and  O_88
REMARK   18  A    between atoms: C_35  and  O_87
REMARK   19  A    between atoms: C_36  and  C_86
REMARK   20  A    between atoms: C_37  and  C_69
REMARK   21  A    between atoms: C_43  and  C_68
REMARK   22  A    between atoms: C_46  and  O_67
REMARK   23  A    between atoms: C_52  and  O_62
REMARK   24  A    between atoms: C_53  and  C_61
REMARK   25  A    between atoms: C_54  and  O_60
REMARK   26  A    between atoms: C_56  and  O_59
REMARK   27  A    between atoms: C_57  and  C_58
REMARK   28  A    between atoms: O_62  and  C_63
REMARK   29  A    between atoms: C_69  and  C_70
REMARK   30  A    between atoms: C_69  and  C_85
REMARK   31  A    between atoms: C_70  and  O_71
REMARK   32  A    between atoms: C_70  and  C_72
REMARK   33  A    between atoms: C_72  and  C_73
REMARK   34  A    between atoms: C_72  and  C_84
REMARK   35  A    between atoms: C_73  and  C_74
REMARK   36  A    between atoms: C_74  and  C_75
REMARK   37  A    between atoms: C_77  and  C_83
REMARK   38  A    between atoms: C_79  and  O_81
REMARK   39  A    between atoms: O_81  and  C_82
REMARK   40  A    between atoms: O_90  and  C_91
REMARK                            x       y       z     vdW  Elec       q    Type
REMARK                         _______ _______ _______ _____ _____    ______ ____
ROOT
ATOM      1  C   UNL     1     152.758 167.512 179.077  0.00  0.00    +0.113 C 
ATOM      2  O   UNL     1     151.769 166.851 179.912  0.00  0.00    -0.458 OA
ATOM      3  C   UNL     1     151.143 165.775 179.359  0.00  0.00    +0.332 C 
ATOM      4  O   UNL     1     151.308 165.350 178.221  0.00  0.00    -0.246 OA
ATOM      5  C   UNL     1     150.197 165.125 180.278  0.00  0.00    +0.023 C 
ATOM      6  C   UNL     1     150.266 165.194 181.616  0.00  0.00    -0.052 C 
ATOM      7  C   UNL     1     149.413 164.441 182.530  0.00  0.00    -0.054 C 
ATOM      8  C   UNL     1     149.135 163.138 182.322  0.00  0.00    -0.079 C 
ATOM      9  C   UNL     1     148.462 162.207 183.300  0.00  0.00    -0.008 C 
ATOM     10  C   UNL     1     148.925 160.740 183.212  0.00  0.00    +0.061 C 
ATOM     11  C   UNL     1     150.431 160.456 183.123  0.00  0.00    +0.003 C 
ATOM     12  C   UNL     1     151.310 160.743 184.355  0.00  0.00    +0.080 C 
ATOM     13  O   UNL     1     152.521 159.987 184.107  0.00  0.00    -0.369 OA
ATOM     14  C   UNL     1     153.722 160.459 184.740  0.00  0.00    +0.065 C 
ATOM     15  C   UNL     1     153.660 160.255 186.268  0.00  0.00    +0.000 C 
ATOM     16  C   UNL     1     154.982 160.591 186.992  0.00  0.00    +0.066 C 
ATOM     17  C   UNL     1     154.804 160.426 188.534  0.00  0.00    +0.009 C 
ATOM     18  C   UNL     1     155.133 161.723 189.318  0.00  0.00    +0.063 C 
ATOM     19  C   UNL     1     154.149 162.878 189.027  0.00  0.00    -0.000 C 
ATOM     20  C   UNL     1     154.370 164.065 189.987  0.00  0.00    +0.064 C 
ATOM     21  C   UNL     1     153.302 165.200 189.897  0.00  0.00    +0.020 C 
ATOM     22  C   UNL     1     153.167 165.830 188.475  0.00  0.00    +0.113 C 
ATOM     23  O   UNL     1     154.462 166.391 188.132  0.00  0.00    -0.458 OA
ATOM     24  C   UNL     1     154.936 166.107 186.890  0.00  0.00    +0.332 C 
ATOM     25  O   UNL     1     154.331 165.527 186.004  0.00  0.00    -0.246 OA
ATOM     26  C   UNL     1     156.306 166.652 186.760  0.00  0.00    +0.023 C 
ATOM     27  C   UNL     1     156.984 166.455 185.620  0.00  0.00    -0.052 C 
ATOM     28  C   UNL     1     158.323 166.948 185.322  0.00  0.00    -0.054 C 
ATOM     29  C   UNL     1     158.641 168.251 185.472  0.00  0.00    -0.079 C 
ATOM     30  C   UNL     1     159.957 168.911 185.164  0.00  0.00    -0.008 C 
ATOM     31  C   UNL     1     159.973 169.761 183.871  0.00  0.00    +0.061 C 
ATOM     32  C   UNL     1     159.335 171.153 184.058  0.00  0.00    +0.003 C 
ATOM     33  C   UNL     1     159.582 172.106 182.867  0.00  0.00    +0.080 C 
ATOM     34  O   UNL     1     158.676 171.846 181.781  0.00  0.00    -0.369 OA
ATOM     35  C   UNL     1     157.505 172.689 181.694  0.00  0.00    +0.065 C 
ATOM     36  C   UNL     1     156.783 172.259 180.405  0.00  0.00    +0.000 C 
ATOM     37  C   UNL     1     155.428 172.911 180.041  0.00  0.00    +0.066 C 
ATOM     38  C   UNL     1     154.325 172.615 181.104  0.00  0.00    +0.009 C 
ATOM     39  C   UNL     1     152.979 172.131 180.496  0.00  0.00    +0.063 C 
ATOM     40  C   UNL     1     153.123 171.014 179.450  0.00  0.00    -0.000 C 
ATOM     41  C   UNL     1     151.944 170.021 179.472  0.00  0.00    +0.064 C 
ATOM     42  C   UNL     1     152.188 168.847 178.478  0.00  0.00    +0.020 C 
ATOM     43  C   UNL     1     157.893 174.175 181.672  0.00  0.00    -0.008 C 
ATOM     44  C   UNL     1     158.832 174.504 182.784  0.00  0.00    -0.083 C 
ATOM     45  C   UNL     1     159.596 173.548 183.318  0.00  0.00    -0.059 C 
ATOM     46  C   UNL     1     153.995 161.899 184.272  0.00  0.00    -0.008 C 
ATOM     47  C   UNL     1     152.800 162.762 184.505  0.00  0.00    -0.083 C 
ATOM     48  C   UNL     1     151.579 162.214 184.570  0.00  0.00    -0.059 C 
ATOM     49  H   UNL     1     152.945 166.879 178.196  0.00  0.00    +0.074 HD
ATOM     50  H   UNL     1     149.469 164.494 179.779  0.00  0.00    +0.069 HD
ATOM     51  H   UNL     1     151.023 165.804 182.105  0.00  0.00    +0.062 HD
ATOM     52  H   UNL     1     149.482 162.664 181.405  0.00  0.00    +0.058 HD
ATOM     53  H   UNL     1     148.574 162.552 184.334  0.00  0.00    +0.033 HD
ATOM     54  H   UNL     1     147.381 162.230 183.104  0.00  0.00    +0.033 HD
ATOM     55  H   UNL     1     148.469 160.321 182.306  0.00  0.00    +0.060 HD
ATOM     56  H   UNL     1     150.864 160.948 182.243  0.00  0.00    +0.032 HD
ATOM     57  H   UNL     1     150.531 159.381 182.910  0.00  0.00    +0.032 HD
ATOM     58  H   UNL     1     150.850 160.323 185.256  0.00  0.00    +0.064 HD
ATOM     59  H   UNL     1     154.525 159.825 184.344  0.00  0.00    +0.060 HD
ATOM     60  H   UNL     1     153.405 159.202 186.450  0.00  0.00    +0.032 HD
ATOM     61  H   UNL     1     152.843 160.843 186.703  0.00  0.00    +0.032 HD
ATOM     62  H   UNL     1     155.251 161.624 186.752  0.00  0.00    +0.060 HD
ATOM     63  H   UNL     1     153.747 160.209 188.747  0.00  0.00    +0.035 HD
ATOM     64  H   UNL     1     155.090 161.499 190.391  0.00  0.00    +0.060 HD
ATOM     65  H   UNL     1     154.308 163.225 187.999  0.00  0.00    +0.032 HD
ATOM     66  H   UNL     1     153.121 162.509 189.115  0.00  0.00    +0.032 HD
ATOM     67  H   UNL     1     154.367 163.686 191.018  0.00  0.00    +0.060 HD
ATOM     68  H   UNL     1     153.659 165.986 190.575  0.00  0.00    +0.036 HD
ATOM     69  H   UNL     1     152.908 165.014 187.793  0.00  0.00    +0.074 HD
ATOM     70  H   UNL     1     156.718 167.194 187.601  0.00  0.00    +0.069 HD
ATOM     71  H   UNL     1     156.521 165.874 184.820  0.00  0.00    +0.062 HD
ATOM     72  H   UNL     1     157.891 168.931 185.869  0.00  0.00    +0.058 HD
ATOM     73  H   UNL     1     160.236 169.542 186.020  0.00  0.00    +0.033 HD
ATOM     74  H   UNL     1     160.761 168.167 185.119  0.00  0.00    +0.033 HD
ATOM     75  H   UNL     1     159.477 169.234 183.049  0.00  0.00    +0.060 HD
ATOM     76  H   UNL     1     159.772 171.597 184.962  0.00  0.00    +0.032 HD
ATOM     77  H   UNL     1     158.258 171.039 184.233  0.00  0.00    +0.032 HD
ATOM     78  H   UNL     1     160.581 171.922 182.454  0.00  0.00    +0.064 HD
ATOM     79  H   UNL     1     156.878 172.472 182.565  0.00  0.00    +0.060 HD
ATOM     80  H   UNL     1     156.631 171.169 180.454  0.00  0.00    +0.032 HD
ATOM     81  H   UNL     1     157.479 172.395 179.569  0.00  0.00    +0.032 HD
ATOM     82  H   UNL     1     155.132 172.451 179.094  0.00  0.00    +0.060 HD
ATOM     83  H   UNL     1     154.672 171.773 181.712  0.00  0.00    +0.035 HD
ATOM     84  H   UNL     1     152.370 171.765 181.333  0.00  0.00    +0.060 HD
ATOM     85  H   UNL     1     153.169 171.467 178.450  0.00  0.00    +0.032 HD
ATOM     86  H   UNL     1     154.057 170.482 179.603  0.00  0.00    +0.032 HD
ATOM     87  H   UNL     1     151.781 169.631 180.481  0.00  0.00    +0.060 HD
ATOM     88  H   UNL     1     152.918 169.190 177.732  0.00  0.00    +0.036 HD
ATOM     89  H   UNL     1     157.003 174.806 181.769  0.00  0.00    +0.033 HD
ATOM     90  H   UNL     1     158.388 174.436 180.730  0.00  0.00    +0.033 HD
ATOM     91  H   UNL     1     158.911 175.535 183.116  0.00  0.00    +0.057 HD
ATOM     92  H   UNL     1     160.302 173.811 184.103  0.00  0.00    +0.059 HD
ATOM     93  H   UNL     1     154.203 161.905 183.194  0.00  0.00    +0.033 HD
ATOM     94  H   UNL     1     154.871 162.322 184.769  0.00  0.00    +0.033 HD
ATOM     95  H   UNL     1     152.938 163.831 184.636  0.00  0.00    +0.057 HD
ATOM     96  H   UNL     1     150.736 162.854 184.802  0.00  0.00    +0.059 HD
ENDROOT
BRANCH  28  97
ATOM     97  C   UNL     1     159.236 165.897 184.746  0.00  0.00    -0.040 C 
ATOM     98  H   UNL     1     160.018 166.354 184.128  0.00  0.00    +0.028 HD
ATOM     99  H   UNL     1     158.664 165.206 184.116  0.00  0.00    +0.028 HD
ATOM    100  H   UNL     1     159.751 165.306 185.507  0.00  0.00    +0.028 HD
ENDBRANCH  28  97
BRANCH  21 101
ATOM    101  C   UNL     1     151.960 164.691 190.436  0.00  0.00    -0.057 C 
ATOM    102  H   UNL     1     151.181 164.712 189.666  0.00  0.00    +0.023 HD
ATOM    103  H   UNL     1     151.616 165.297 191.280  0.00  0.00    +0.023 HD
ATOM    104  H   UNL     1     152.046 163.663 190.803  0.00  0.00    +0.023 HD
ENDBRANCH  21 101
BRANCH  42 105
ATOM    105  C   UNL     1     150.909 168.527 177.668  0.00  0.00    -0.057 C 
ATOM    106  H   UNL     1     150.700 167.451 177.669  0.00  0.00    +0.023 HD
ATOM    107  H   UNL     1     150.034 169.049 178.071  0.00  0.00    +0.023 HD
ATOM    108  H   UNL     1     151.025 168.817 176.618  0.00  0.00    +0.023 HD
ENDBRANCH  42 105
BRANCH  17 109
ATOM    109  C   UNL     1     155.602 159.249 189.112  0.00  0.00    -0.058 C 
ATOM    110  H   UNL     1     156.435 158.957 188.464  0.00  0.00    +0.023 HD
ATOM    111  H   UNL     1     156.023 159.513 190.088  0.00  0.00    +0.023 HD
ATOM    112  H   UNL     1     154.958 158.377 189.262  0.00  0.00    +0.023 HD
ENDBRANCH  17 109
BRANCH  38 113
ATOM    113  C   UNL     1     154.067 173.794 182.058  0.00  0.00    -0.058 C 
ATOM    114  H   UNL     1     153.827 174.718 181.520  0.00  0.00    +0.023 HD
ATOM    115  H   UNL     1     154.936 173.990 182.692  0.00  0.00    +0.023 HD
ATOM    116  H   UNL     1     153.219 173.578 182.718  0.00  0.00    +0.023 HD
ENDBRANCH  38 113
BRANCH   7 117
ATOM    117  C   UNL     1     148.985 165.215 183.746  0.00  0.00    -0.040 C 
ATOM    118  H   UNL     1     148.604 166.203 183.462  0.00  0.00    +0.028 HD
ATOM    119  H   UNL     1     149.829 165.349 184.425  0.00  0.00    +0.028 HD
ATOM    120  H   UNL     1     148.180 164.721 184.296  0.00  0.00    +0.028 HD
ENDBRANCH   7 117
BRANCH   1 121
ATOM    121  C   UNL     1     154.145 167.495 179.820  0.00  0.00    +0.020 C 
ATOM    122  H   UNL     1     154.821 168.023 179.129  0.00  0.00    +0.036 HD
BRANCH 121 123
ATOM    123  C   UNL     1     154.034 168.351 181.096  0.00  0.00    -0.057 C 
ATOM    124  H   UNL     1     153.238 169.093 181.005  0.00  0.00    +0.023 HD
ATOM    125  H   UNL     1     154.962 168.878 181.324  0.00  0.00    +0.023 HD
ATOM    126  H   UNL     1     153.766 167.752 181.972  0.00  0.00    +0.023 HD
ENDBRANCH 121 123
BRANCH 121 127
ATOM    127  C   UNL     1     154.820 166.099 180.048  0.00  0.00    +0.064 C 
ATOM    128  H   UNL     1     154.048 165.336 180.005  0.00  0.00    +0.060 HD
BRANCH 127 129
ATOM    129  C   UNL     1     155.643 165.854 181.357  0.00  0.00    -0.017 C 
ATOM    130  H   UNL     1     155.283 166.561 182.117  0.00  0.00    +0.032 HD
BRANCH 129 131
ATOM    131  C   UNL     1     155.534 164.463 181.979  0.00  0.00    -0.060 C 
ATOM    132  H   UNL     1     154.739 163.882 181.502  0.00  0.00    +0.023 HD
ATOM    133  H   UNL     1     156.479 163.918 181.926  0.00  0.00    +0.023 HD
ATOM    134  H   UNL     1     155.257 164.533 183.039  0.00  0.00    +0.023 HD
ENDBRANCH 129 131
BRANCH 129 135
ATOM    135  C   UNL     1     157.155 166.150 181.128  0.00  0.00    -0.046 C 
ATOM    136  H   UNL     1     157.390 166.059 180.062  0.00  0.00    +0.027 HD
ATOM    137  H   UNL     1     157.745 165.374 181.622  0.00  0.00    +0.027 HD
BRANCH 135 138
ATOM    138  C   UNL     1     157.624 167.504 181.659  0.00  0.00    -0.026 C 
ATOM    139  H   UNL     1     158.487 167.357 182.314  0.00  0.00    +0.029 HD
ATOM    140  H   UNL     1     156.845 167.945 182.287  0.00  0.00    +0.029 HD
BRANCH 138 143
ATOM    141  C   UNL     1     157.740 168.858 178.182  0.00  0.00    +0.059 C 
ATOM    142  O   UNL     1     157.622 167.937 179.278  0.00  0.00    -0.373 OA
ATOM    143  C   UNL     1     157.994 168.495 180.542  0.00  0.00    +0.061 C 
ATOM    144  C   UNL     1     159.490 168.811 180.537  0.00  0.00    -0.000 C 
ATOM    145  C   UNL     1     160.000 169.250 179.159  0.00  0.00    +0.063 C 
ATOM    146  C   UNL     1     158.863 169.878 178.365  0.00  0.00    -0.000 C 
ATOM    147  H   UNL     1     157.978 168.240 177.308  0.00  0.00    +0.059 HD
ATOM    148  H   UNL     1     157.421 169.418 180.682  0.00  0.00    +0.060 HD
ATOM    149  H   UNL     1     159.697 169.573 181.293  0.00  0.00    +0.032 HD
ATOM    150  H   UNL     1     160.074 167.931 180.833  0.00  0.00    +0.032 HD
ATOM    151  H   UNL     1     160.383 168.367 178.630  0.00  0.00    +0.060 HD
ATOM    152  H   UNL     1     158.510 170.772 178.897  0.00  0.00    +0.032 HD
ATOM    153  H   UNL     1     159.196 170.240 177.386  0.00  0.00    +0.032 HD
BRANCH 141 154
ATOM    154  C   UNL     1     156.399 169.538 177.923  0.00  0.00    -0.039 C 
ATOM    155  H   UNL     1     156.532 170.495 177.410  0.00  0.00    +0.025 HD
ATOM    156  H   UNL     1     155.751 168.903 177.310  0.00  0.00    +0.025 HD
ATOM    157  H   UNL     1     155.887 169.752 178.865  0.00  0.00    +0.025 HD
ENDBRANCH 141 154
BRANCH 145 158
ATOM    158  O   UNL     1     161.074 170.170 179.375  0.00  0.00    -0.380 OA
BRANCH 158 159
ATOM    159  C   UNL     1     160.765 171.507 179.000  0.00  0.00    +0.037 C 
ATOM    160  H   UNL     1     161.696 172.003 178.712  0.00  0.00    +0.052 HD
ATOM    161  H   UNL     1     160.337 172.056 179.843  0.00  0.00    +0.052 HD
ATOM    162  H   UNL     1     160.080 171.531 178.147  0.00  0.00    +0.052 HD
ENDBRANCH 158 159
ENDBRANCH 145 158
ENDBRANCH 138 143
ENDBRANCH 135 138
ENDBRANCH 129 135
ENDBRANCH 127 129
BRANCH 127 163
ATOM    163  O   UNL     1     155.721 165.782 178.979  0.00  0.00    -0.391 OA
ATOM    164  H   UNL     1     155.830 164.817 178.929  0.00  0.00    +0.210 HD
ENDBRANCH 127 163
ENDBRANCH 121 127
ENDBRANCH   1 121
BRANCH  41 165
ATOM    165  O   UNL     1     150.760 170.741 179.113  0.00  0.00    -0.391 OA
ATOM    166  H   UNL     1     150.846 171.058 178.191  0.00  0.00    +0.210 HD
ENDBRANCH  41 165
BRANCH  39 167
ATOM    167  O   UNL     1     152.232 173.190 179.899  0.00  0.00    -0.391 OA
ATOM    168  H   UNL     1     151.500 172.794 179.387  0.00  0.00    +0.210 HD
ENDBRANCH  39 167
BRANCH  31 169
ATOM    169  O   UNL     1     161.350 169.934 183.506  0.00  0.00    -0.391 OA
ATOM    170  H   UNL     1     161.862 169.258 183.983  0.00  0.00    +0.210 HD
ENDBRANCH  31 169
BRANCH  22 171
ATOM    171  C   UNL     1     152.061 166.938 188.352  0.00  0.00    +0.020 C 
ATOM    172  H   UNL     1     152.583 167.900 188.335  0.00  0.00    +0.036 HD
BRANCH 171 173
ATOM    173  C   UNL     1     151.257 166.801 187.057  0.00  0.00    -0.057 C 
ATOM    174  H   UNL     1     151.218 165.762 186.727  0.00  0.00    +0.023 HD
ATOM    175  H   UNL     1     151.690 167.395 186.247  0.00  0.00    +0.023 HD
ATOM    176  H   UNL     1     150.229 167.153 187.181  0.00  0.00    +0.023 HD
ENDBRANCH 171 173
BRANCH 171 177
ATOM    177  C   UNL     1     151.140 166.951 189.601  0.00  0.00    +0.064 C 
ATOM    178  H   UNL     1     151.283 166.017 190.155  0.00  0.00    +0.060 HD
BRANCH 177 179
ATOM    179  O   UNL     1     151.568 168.023 190.443  0.00  0.00    -0.391 OA
ATOM    180  H   UNL     1     150.998 167.991 191.244  0.00  0.00    +0.210 HD
ENDBRANCH 177 179
BRANCH 177 181
ATOM    181  C   UNL     1     149.611 167.091 189.355  0.00  0.00    -0.017 C 
ATOM    182  H   UNL     1     149.468 167.472 188.335  0.00  0.00    +0.032 HD
BRANCH 181 183
ATOM    183  C   UNL     1     148.960 165.697 189.409  0.00  0.00    -0.060 C 
ATOM    184  H   UNL     1     147.884 165.749 189.212  0.00  0.00    +0.023 HD
ATOM    185  H   UNL     1     149.406 165.014 188.680  0.00  0.00    +0.023 HD
ATOM    186  H   UNL     1     149.094 165.240 190.391  0.00  0.00    +0.023 HD
ENDBRANCH 181 183
BRANCH 181 187
ATOM    187  C   UNL     1     148.898 168.046 190.340  0.00  0.00    -0.046 C 
ATOM    188  H   UNL     1     148.187 168.680 189.800  0.00  0.00    +0.027 HD
ATOM    189  H   UNL     1     149.635 168.716 190.798  0.00  0.00    +0.027 HD
BRANCH 187 190
ATOM    190  C   UNL     1     148.119 167.292 191.432  0.00  0.00    -0.026 C 
ATOM    191  H   UNL     1     148.293 166.219 191.326  0.00  0.00    +0.029 HD
ATOM    192  H   UNL     1     147.045 167.451 191.279  0.00  0.00    +0.029 HD
BRANCH 190 193
ATOM    193  C   UNL     1     148.496 167.739 192.856  0.00  0.00    +0.061 C 
ATOM    194  O   UNL     1     149.893 167.594 193.125  0.00  0.00    -0.373 OA
ATOM    195  C   UNL     1     150.350 166.243 193.229  0.00  0.00    +0.059 C 
ATOM    196  C   UNL     1     149.607 165.496 194.335  0.00  0.00    -0.000 C 
ATOM    197  C   UNL     1     148.095 165.572 194.122  0.00  0.00    +0.063 C 
ATOM    198  C   UNL     1     147.674 167.031 193.934  0.00  0.00    -0.000 C 
ATOM    199  H   UNL     1     148.283 168.812 192.929  0.00  0.00    +0.060 HD
ATOM    200  H   UNL     1     150.210 165.737 192.266  0.00  0.00    +0.059 HD
ATOM    201  H   UNL     1     149.847 165.930 195.314  0.00  0.00    +0.032 HD
ATOM    202  H   UNL     1     149.940 164.453 194.371  0.00  0.00    +0.032 HD
ATOM    203  H   UNL     1     147.808 164.998 193.233  0.00  0.00    +0.060 HD
ATOM    204  H   UNL     1     147.813 167.554 194.890  0.00  0.00    +0.032 HD
ATOM    205  H   UNL     1     146.600 167.090 193.718  0.00  0.00    +0.032 HD
BRANCH 195 206
ATOM    206  C   UNL     1     151.847 166.290 193.518  0.00  0.00    -0.039 C 
ATOM    207  H   UNL     1     152.247 167.284 193.290  0.00  0.00    +0.025 HD
ATOM    208  H   UNL     1     152.388 165.549 192.920  0.00  0.00    +0.025 HD
ATOM    209  H   UNL     1     152.047 166.104 194.578  0.00  0.00    +0.025 HD
ENDBRANCH 195 206
BRANCH 197 210
ATOM    210  O   UNL     1     147.377 165.066 195.254  0.00  0.00    -0.380 OA
BRANCH 210 211
ATOM    211  C   UNL     1     147.582 165.816 196.446  0.00  0.00    +0.037 C 
ATOM    212  H   UNL     1     148.549 166.322 196.364  0.00  0.00    +0.052 HD
ATOM    213  H   UNL     1     147.615 165.161 197.320  0.00  0.00    +0.052 HD
ATOM    214  H   UNL     1     146.802 166.573 196.567  0.00  0.00    +0.052 HD
ENDBRANCH 210 211
ENDBRANCH 197 210
ENDBRANCH 190 193
ENDBRANCH 187 190
ENDBRANCH 181 187
ENDBRANCH 177 181
ENDBRANCH 171 177
ENDBRANCH  22 171
BRANCH  20 215
ATOM    215  O   UNL     1     155.693 164.573 189.768  0.00  0.00    -0.391 OA
ATOM    216  H   UNL     1     155.945 165.087 190.557  0.00  0.00    +0.210 HD
ENDBRANCH  20 215
BRANCH  18 217
ATOM    217  O   UNL     1     156.472 162.135 189.033  0.00  0.00    -0.391 OA
ATOM    218  H   UNL     1     156.465 162.489 188.120  0.00  0.00    +0.210 HD
ENDBRANCH  18 217
BRANCH  10 219
ATOM    219  O   UNL     1     148.361 160.023 184.314  0.00  0.00    -0.391 OA
ATOM    220  H   UNL     1     148.522 160.551 185.117  0.00  0.00    +0.210 HD
ENDBRANCH  10 219
BRANCH  37 221
ATOM    221  O   UNL     1     155.510 174.317 179.801  0.00  0.00    -0.379 OA
BRANCH 221 222
ATOM    222  C   UNL     1     155.160 174.709 178.480  0.00  0.00    +0.037 C 
ATOM    223  H   UNL     1     155.664 175.655 178.265  0.00  0.00    +0.052 HD
ATOM    224  H   UNL     1     155.497 173.972 177.749  0.00  0.00    +0.052 HD
ATOM    225  H   UNL     1     154.080 174.862 178.394  0.00  0.00    +0.052 HD
ENDBRANCH 221 222
ENDBRANCH  37 221
BRANCH  16 226
ATOM    226  O   UNL     1     155.975 159.695 186.468  0.00  0.00    -0.379 OA
BRANCH 226 227
ATOM    227  C   UNL     1     157.139 160.371 186.009  0.00  0.00    +0.037 C 
ATOM    228  H   UNL     1     156.919 161.025 185.160  0.00  0.00    +0.052 HD
ATOM    229  H   UNL     1     157.903 159.637 185.729  0.00  0.00    +0.052 HD
ATOM    230  H   UNL     1     157.528 160.986 186.827  0.00  0.00    +0.052 HD
ENDBRANCH 226 227
ENDBRANCH  16 226
TORSDOF 40
ENDMDL
MODEL 8
REMARK VINA RESULT:      -4.3      3.113     11.652
REMARK  Name = Swinholide A_conf1
REMARK  40 active torsions:
REMARK  status: ('A' for Active; 'I' for Inactive)
REMARK    1  A    between atoms: C_1  and  C_2
REMARK    2  A    between atoms: C_4  and  C_10
REMARK    3  A    between atoms: C_6  and  O_8
REMARK    4  A    between atoms: O_8  and  C_9
REMARK    5  A    between atoms: C_10  and  C_11
REMARK    6  A    between atoms: C_11  and  C_12
REMARK    7  A    between atoms: C_12  and  C_13
REMARK    8  A    between atoms: C_12  and  C_98
REMARK    9  A    between atoms: C_13  and  O_14
REMARK   10  A    between atoms: C_13  and  C_15
REMARK   11  A    between atoms: C_15  and  C_16
REMARK   12  A    between atoms: C_15  and  C_97
REMARK   13  A    between atoms: C_22  and  C_96
REMARK   14  A    between atoms: C_25  and  O_95
REMARK   15  A    between atoms: C_31  and  O_90
REMARK   16  A    between atoms: C_32  and  C_89
REMARK   17  A    between atoms: C_33  and  O_88
REMARK   18  A    between atoms: C_35  and  O_87
REMARK   19  A    between atoms: C_36  and  C_86
REMARK   20  A    between atoms: C_37  and  C_69
REMARK   21  A    between atoms: C_43  and  C_68
REMARK   22  A    between atoms: C_46  and  O_67
REMARK   23  A    between atoms: C_52  and  O_62
REMARK   24  A    between atoms: C_53  and  C_61
REMARK   25  A    between atoms: C_54  and  O_60
REMARK   26  A    between atoms: C_56  and  O_59
REMARK   27  A    between atoms: C_57  and  C_58
REMARK   28  A    between atoms: O_62  and  C_63
REMARK   29  A    between atoms: C_69  and  C_70
REMARK   30  A    between atoms: C_69  and  C_85
REMARK   31  A    between atoms: C_70  and  O_71
REMARK   32  A    between atoms: C_70  and  C_72
REMARK   33  A    between atoms: C_72  and  C_73
REMARK   34  A    between atoms: C_72  and  C_84
REMARK   35  A    between atoms: C_73  and  C_74
REMARK   36  A    between atoms: C_74  and  C_75
REMARK   37  A    between atoms: C_77  and  C_83
REMARK   38  A    between atoms: C_79  and  O_81
REMARK   39  A    between atoms: O_81  and  C_82
REMARK   40  A    between atoms: O_90  and  C_91
REMARK                            x       y       z     vdW  Elec       q    Type
REMARK                         _______ _______ _______ _____ _____    ______ ____
ROOT
ATOM      1  C   UNL     1     159.508 162.149 186.714  0.00  0.00    +0.113 C 
ATOM      2  O   UNL     1     158.772 163.401 186.655  0.00  0.00    -0.458 OA
ATOM      3  C   UNL     1     159.485 164.494 186.267  0.00  0.00    +0.332 C 
ATOM      4  O   UNL     1     160.684 164.522 186.012  0.00  0.00    -0.246 OA
ATOM      5  C   UNL     1     158.666 165.713 186.178  0.00  0.00    +0.023 C 
ATOM      6  C   UNL     1     157.339 165.725 185.983  0.00  0.00    -0.052 C 
ATOM      7  C   UNL     1     156.545 166.929 185.758  0.00  0.00    -0.054 C 
ATOM      8  C   UNL     1     156.968 167.907 184.930  0.00  0.00    -0.079 C 
ATOM      9  C   UNL     1     156.147 169.077 184.448  0.00  0.00    -0.008 C 
ATOM     10  C   UNL     1     156.501 169.567 183.030  0.00  0.00    +0.061 C 
ATOM     11  C   UNL     1     156.680 168.521 181.921  0.00  0.00    +0.003 C 
ATOM     12  C   UNL     1     155.442 167.746 181.432  0.00  0.00    +0.080 C 
ATOM     13  O   UNL     1     155.851 167.202 180.151  0.00  0.00    -0.369 OA
ATOM     14  C   UNL     1     155.180 166.012 179.708  0.00  0.00    +0.065 C 
ATOM     15  C   UNL     1     153.708 166.306 179.347  0.00  0.00    +0.000 C 
ATOM     16  C   UNL     1     152.975 165.107 178.710  0.00  0.00    +0.066 C 
ATOM     17  C   UNL     1     151.481 165.471 178.447  0.00  0.00    +0.009 C 
ATOM     18  C   UNL     1     150.493 164.504 179.150  0.00  0.00    +0.063 C 
ATOM     19  C   UNL     1     150.552 164.586 180.691  0.00  0.00    -0.000 C 
ATOM     20  C   UNL     1     149.408 163.784 181.345  0.00  0.00    +0.064 C 
ATOM     21  C   UNL     1     149.270 163.961 182.889  0.00  0.00    +0.020 C 
ATOM     22  C   UNL     1     150.557 163.580 183.687  0.00  0.00    +0.113 C 
ATOM     23  O   UNL     1     150.834 162.182 183.409  0.00  0.00    -0.458 OA
ATOM     24  C   UNL     1     152.120 161.869 183.096  0.00  0.00    +0.332 C 
ATOM     25  O   UNL     1     153.075 162.625 183.138  0.00  0.00    -0.246 OA
ATOM     26  C   UNL     1     152.191 160.437 182.727  0.00  0.00    +0.023 C 
ATOM     27  C   UNL     1     153.367 159.918 182.344  0.00  0.00    -0.052 C 
ATOM     28  C   UNL     1     153.613 158.528 181.979  0.00  0.00    -0.054 C 
ATOM     29  C   UNL     1     153.248 157.514 182.791  0.00  0.00    -0.079 C 
ATOM     30  C   UNL     1     153.474 156.043 182.573  0.00  0.00    -0.008 C 
ATOM     31  C   UNL     1     154.600 155.421 183.433  0.00  0.00    +0.061 C 
ATOM     32  C   UNL     1     154.157 155.124 184.881  0.00  0.00    +0.003 C 
ATOM     33  C   UNL     1     155.172 154.265 185.668  0.00  0.00    +0.080 C 
ATOM     34  O   UNL     1     156.260 155.057 186.174  0.00  0.00    -0.369 OA
ATOM     35  C   UNL     1     156.167 155.490 187.549  0.00  0.00    +0.065 C 
ATOM     36  C   UNL     1     157.491 156.219 187.842  0.00  0.00    +0.000 C 
ATOM     37  C   UNL     1     157.699 156.890 189.221  0.00  0.00    +0.066 C 
ATOM     38  C   UNL     1     156.672 158.036 189.481  0.00  0.00    +0.009 C 
ATOM     39  C   UNL     1     157.317 159.352 189.998  0.00  0.00    +0.063 C 
ATOM     40  C   UNL     1     158.545 159.813 189.195  0.00  0.00    -0.000 C 
ATOM     41  C   UNL     1     158.661 161.347 189.114  0.00  0.00    +0.064 C 
ATOM     42  C   UNL     1     159.850 161.767 188.199  0.00  0.00    +0.020 C 
ATOM     43  C   UNL     1     155.943 154.298 188.491  0.00  0.00    -0.008 C 
ATOM     44  C   UNL     1     154.817 153.440 188.016  0.00  0.00    -0.083 C 
ATOM     45  C   UNL     1     154.479 153.437 186.725  0.00  0.00    -0.059 C 
ATOM     46  C   UNL     1     155.399 164.902 180.751  0.00  0.00    -0.008 C 
ATOM     47  C   UNL     1     154.987 165.369 182.108  0.00  0.00    -0.083 C 
ATOM     48  C   UNL     1     154.983 166.677 182.395  0.00  0.00    -0.059 C 
ATOM     49  H   UNL     1     160.490 162.302 186.241  0.00  0.00    +0.074 HD
ATOM     50  H   UNL     1     159.246 166.630 186.193  0.00  0.00    +0.069 HD
ATOM     51  H   UNL     1     156.774 164.797 185.936  0.00  0.00    +0.062 HD
ATOM     52  H   UNL     1     157.963 167.834 184.492  0.00  0.00    +0.058 HD
ATOM     53  H   UNL     1     155.073 168.867 184.491  0.00  0.00    +0.033 HD
ATOM     54  H   UNL     1     156.306 169.914 185.142  0.00  0.00    +0.033 HD
ATOM     55  H   UNL     1     157.453 170.108 183.113  0.00  0.00    +0.060 HD
ATOM     56  H   UNL     1     157.473 167.811 182.187  0.00  0.00    +0.032 HD
ATOM     57  H   UNL     1     157.079 169.059 181.049  0.00  0.00    +0.032 HD
ATOM     58  H   UNL     1     154.615 168.437 181.235  0.00  0.00    +0.064 HD
ATOM     59  H   UNL     1     155.702 165.711 178.791  0.00  0.00    +0.060 HD
ATOM     60  H   UNL     1     153.705 167.149 178.642  0.00  0.00    +0.032 HD
ATOM     61  H   UNL     1     153.156 166.648 180.231  0.00  0.00    +0.032 HD
ATOM     62  H   UNL     1     153.040 164.260 179.400  0.00  0.00    +0.060 HD
ATOM     63  H   UNL     1     151.279 166.465 178.874  0.00  0.00    +0.035 HD
ATOM     64  H   UNL     1     149.474 164.758 178.832  0.00  0.00    +0.060 HD
ATOM     65  H   UNL     1     151.508 164.169 181.029  0.00  0.00    +0.032 HD
ATOM     66  H   UNL     1     150.501 165.636 181.001  0.00  0.00    +0.032 HD
ATOM     67  H   UNL     1     148.459 164.094 180.888  0.00  0.00    +0.060 HD
ATOM     68  H   UNL     1     148.477 163.264 183.190  0.00  0.00    +0.036 HD
ATOM     69  H   UNL     1     151.363 164.216 183.305  0.00  0.00    +0.074 HD
ATOM     70  H   UNL     1     151.281 159.855 182.776  0.00  0.00    +0.069 HD
ATOM     71  H   UNL     1     154.242 160.567 182.287  0.00  0.00    +0.062 HD
ATOM     72  H   UNL     1     152.719 157.745 183.713  0.00  0.00    +0.058 HD
ATOM     73  H   UNL     1     152.530 155.515 182.770  0.00  0.00    +0.033 HD
ATOM     74  H   UNL     1     153.670 155.835 181.515  0.00  0.00    +0.033 HD
ATOM     75  H   UNL     1     155.487 156.065 183.442  0.00  0.00    +0.060 HD
ATOM     76  H   UNL     1     153.203 154.585 184.829  0.00  0.00    +0.032 HD
ATOM     77  H   UNL     1     153.975 156.070 185.406  0.00  0.00    +0.032 HD
ATOM     78  H   UNL     1     155.638 153.540 184.992  0.00  0.00    +0.064 HD
ATOM     79  H   UNL     1     155.330 156.192 187.617  0.00  0.00    +0.060 HD
ATOM     80  H   UNL     1     157.627 156.989 187.067  0.00  0.00    +0.032 HD
ATOM     81  H   UNL     1     158.310 155.512 187.663  0.00  0.00    +0.032 HD
ATOM     82  H   UNL     1     158.703 157.322 189.182  0.00  0.00    +0.060 HD
ATOM     83  H   UNL     1     156.229 158.306 188.516  0.00  0.00    +0.035 HD
ATOM     84  H   UNL     1     156.539 160.125 189.943  0.00  0.00    +0.060 HD
ATOM     85  H   UNL     1     159.452 159.426 189.680  0.00  0.00    +0.032 HD
ATOM     86  H   UNL     1     158.512 159.391 188.195  0.00  0.00    +0.032 HD
ATOM     87  H   UNL     1     157.731 161.792 188.748  0.00  0.00    +0.060 HD
ATOM     88  H   UNL     1     160.545 160.917 188.148  0.00  0.00    +0.036 HD
ATOM     89  H   UNL     1     155.714 154.646 189.503  0.00  0.00    +0.033 HD
ATOM     90  H   UNL     1     156.840 153.669 188.547  0.00  0.00    +0.033 HD
ATOM     91  H   UNL     1     154.315 152.793 188.729  0.00  0.00    +0.057 HD
ATOM     92  H   UNL     1     153.680 152.779 186.388  0.00  0.00    +0.059 HD
ATOM     93  H   UNL     1     156.465 164.644 180.799  0.00  0.00    +0.033 HD
ATOM     94  H   UNL     1     154.861 163.990 180.484  0.00  0.00    +0.033 HD
ATOM     95  H   UNL     1     154.676 164.635 182.846  0.00  0.00    +0.057 HD
ATOM     96  H   UNL     1     154.621 166.993 183.366  0.00  0.00    +0.059 HD
ENDROOT
BRANCH  28  97
ATOM     97  C   UNL     1     154.387 158.371 180.696  0.00  0.00    -0.040 C 
ATOM     98  H   UNL     1     155.404 158.769 180.801  0.00  0.00    +0.028 HD
ATOM     99  H   UNL     1     153.889 158.918 179.887  0.00  0.00    +0.028 HD
ATOM    100  H   UNL     1     154.495 157.331 180.379  0.00  0.00    +0.028 HD
ENDBRANCH  28  97
BRANCH  21 101
ATOM    101  C   UNL     1     148.791 165.382 183.206  0.00  0.00    -0.057 C 
ATOM    102  H   UNL     1     147.897 165.645 182.631  0.00  0.00    +0.023 HD
ATOM    103  H   UNL     1     149.566 166.121 182.982  0.00  0.00    +0.023 HD
ATOM    104  H   UNL     1     148.554 165.490 184.270  0.00  0.00    +0.023 HD
ENDBRANCH  21 101
BRANCH  42 105
ATOM    105  C   UNL     1     160.667 162.916 188.836  0.00  0.00    -0.057 C 
ATOM    106  H   UNL     1     160.035 163.544 189.473  0.00  0.00    +0.023 HD
ATOM    107  H   UNL     1     161.497 162.534 189.440  0.00  0.00    +0.023 HD
ATOM    108  H   UNL     1     161.082 163.578 188.067  0.00  0.00    +0.023 HD
ENDBRANCH  42 105
BRANCH  17 109
ATOM    109  C   UNL     1     151.138 165.576 176.954  0.00  0.00    -0.058 C 
ATOM    110  H   UNL     1     151.203 166.604 176.587  0.00  0.00    +0.023 HD
ATOM    111  H   UNL     1     151.830 164.970 176.358  0.00  0.00    +0.023 HD
ATOM    112  H   UNL     1     150.128 165.200 176.758  0.00  0.00    +0.023 HD
ENDBRANCH  17 109
BRANCH  38 113
ATOM    113  C   UNL     1     155.522 157.622 190.415  0.00  0.00    -0.058 C 
ATOM    114  H   UNL     1     155.690 156.638 190.869  0.00  0.00    +0.023 HD
ATOM    115  H   UNL     1     154.569 157.588 189.881  0.00  0.00    +0.023 HD
ATOM    116  H   UNL     1     155.414 158.340 191.236  0.00  0.00    +0.023 HD
ENDBRANCH  38 113
BRANCH   7 117
ATOM    117  C   UNL     1     155.203 166.913 186.434  0.00  0.00    -0.040 C 
ATOM    118  H   UNL     1     155.247 166.344 187.369  0.00  0.00    +0.028 HD
ATOM    119  H   UNL     1     154.457 166.454 185.782  0.00  0.00    +0.028 HD
ATOM    120  H   UNL     1     154.854 167.914 186.698  0.00  0.00    +0.028 HD
ENDBRANCH   7 117
BRANCH   1 121
ATOM    121  C   UNL     1     158.817 161.107 185.758  0.00  0.00    +0.020 C 
ATOM    122  H   UNL     1     158.805 161.614 184.780  0.00  0.00    +0.036 HD
BRANCH 121 123
ATOM    123  C   UNL     1     159.731 159.875 185.624  0.00  0.00    -0.057 C 
ATOM    124  H   UNL     1     160.130 159.788 184.611  0.00  0.00    +0.023 HD
ATOM    125  H   UNL     1     159.212 158.945 185.862  0.00  0.00    +0.023 HD
ATOM    126  H   UNL     1     160.611 159.942 186.271  0.00  0.00    +0.023 HD
ENDBRANCH 121 123
BRANCH 121 127
ATOM    127  C   UNL     1     157.317 160.757 186.042  0.00  0.00    +0.064 C 
ATOM    128  H   UNL     1     157.260 160.246 186.999  0.00  0.00    +0.060 HD
BRANCH 127 129
ATOM    129  C   UNL     1     156.525 159.890 185.006  0.00  0.00    -0.017 C 
ATOM    130  H   UNL     1     156.617 160.374 184.024  0.00  0.00    +0.032 HD
BRANCH 129 131
ATOM    131  C   UNL     1     157.000 158.450 184.821  0.00  0.00    -0.060 C 
ATOM    132  H   UNL     1     157.026 157.920 185.777  0.00  0.00    +0.023 HD
ATOM    133  H   UNL     1     156.379 157.905 184.107  0.00  0.00    +0.023 HD
ATOM    134  H   UNL     1     158.030 158.427 184.441  0.00  0.00    +0.023 HD
ENDBRANCH 129 131
BRANCH 129 135
ATOM    135  C   UNL     1     155.009 159.844 185.361  0.00  0.00    -0.046 C 
ATOM    136  H   UNL     1     154.445 159.438 184.513  0.00  0.00    +0.027 HD
ATOM    137  H   UNL     1     154.645 160.866 185.488  0.00  0.00    +0.027 HD
BRANCH 135 138
ATOM    138  C   UNL     1     154.680 159.067 186.636  0.00  0.00    -0.026 C 
ATOM    139  H   UNL     1     154.632 159.761 187.479  0.00  0.00    +0.029 HD
ATOM    140  H   UNL     1     155.492 158.373 186.866  0.00  0.00    +0.029 HD
BRANCH 138 143
ATOM    141  C   UNL     1     150.979 158.602 186.475  0.00  0.00    +0.059 C 
ATOM    142  O   UNL     1     152.264 159.186 186.739  0.00  0.00    -0.373 OA
ATOM    143  C   UNL     1     153.358 158.286 186.540  0.00  0.00    +0.061 C 
ATOM    144  C   UNL     1     153.287 157.164 187.578  0.00  0.00    -0.000 C 
ATOM    145  C   UNL     1     151.847 156.786 187.947  0.00  0.00    +0.063 C 
ATOM    146  C   UNL     1     150.917 157.106 186.784  0.00  0.00    -0.000 C 
ATOM    147  H   UNL     1     150.282 159.119 187.145  0.00  0.00    +0.059 HD
ATOM    148  H   UNL     1     153.267 157.864 185.534  0.00  0.00    +0.060 HD
ATOM    149  H   UNL     1     153.837 156.296 187.205  0.00  0.00    +0.032 HD
ATOM    150  H   UNL     1     153.791 157.461 188.505  0.00  0.00    +0.032 HD
ATOM    151  H   UNL     1     151.550 157.362 188.833  0.00  0.00    +0.060 HD
ATOM    152  H   UNL     1     151.215 156.504 185.915  0.00  0.00    +0.032 HD
ATOM    153  H   UNL     1     149.882 156.815 186.994  0.00  0.00    +0.032 HD
BRANCH 141 154
ATOM    154  C   UNL     1     150.554 158.897 185.040  0.00  0.00    -0.039 C 
ATOM    155  H   UNL     1     151.112 159.741 184.625  0.00  0.00    +0.025 HD
ATOM    156  H   UNL     1     150.715 158.025 184.397  0.00  0.00    +0.025 HD
ATOM    157  H   UNL     1     149.495 159.167 185.000  0.00  0.00    +0.025 HD
ENDBRANCH 141 154
BRANCH 145 158
ATOM    158  O   UNL     1     151.842 155.391 188.268  0.00  0.00    -0.380 OA
BRANCH 158 159
ATOM    159  C   UNL     1     150.971 154.621 187.449  0.00  0.00    +0.037 C 
ATOM    160  H   UNL     1     151.488 153.695 187.179  0.00  0.00    +0.052 HD
ATOM    161  H   UNL     1     150.735 155.157 186.524  0.00  0.00    +0.052 HD
ATOM    162  H   UNL     1     150.050 154.363 187.980  0.00  0.00    +0.052 HD
ENDBRANCH 158 159
ENDBRANCH 145 158
ENDBRANCH 138 143
ENDBRANCH 135 138
ENDBRANCH 129 135
ENDBRANCH 127 129
BRANCH 127 163
ATOM    163  O   UNL     1     156.532 161.946 186.205  0.00  0.00    -0.391 OA
ATOM    164  H   UNL     1     157.098 162.658 186.548  0.00  0.00    +0.210 HD
ENDBRANCH 127 163
ENDBRANCH 121 127
ENDBRANCH   1 121
BRANCH  41 165
ATOM    165  O   UNL     1     158.857 161.842 190.443  0.00  0.00    -0.391 OA
ATOM    166  H   UNL     1     159.714 161.512 190.784  0.00  0.00    +0.210 HD
ENDBRANCH  41 165
BRANCH  39 167
ATOM    167  O   UNL     1     157.701 159.276 191.370  0.00  0.00    -0.391 OA
ATOM    168  H   UNL     1     158.137 160.116 191.610  0.00  0.00    +0.210 HD
ENDBRANCH  39 167
BRANCH  31 169
ATOM    169  O   UNL     1     154.968 154.185 182.804  0.00  0.00    -0.391 OA
ATOM    170  H   UNL     1     154.410 153.488 183.190  0.00  0.00    +0.210 HD
ENDBRANCH  31 169
BRANCH  22 171
ATOM    171  C   UNL     1     150.456 163.801 185.238  0.00  0.00    +0.020 C 
ATOM    172  H   UNL     1     149.611 164.478 185.403  0.00  0.00    +0.036 HD
BRANCH 171 173
ATOM    173  C   UNL     1     150.180 162.494 185.985  0.00  0.00    -0.057 C 
ATOM    174  H   UNL     1     149.316 161.976 185.565  0.00  0.00    +0.023 HD
ATOM    175  H   UNL     1     149.983 162.669 187.047  0.00  0.00    +0.023 HD
ATOM    176  H   UNL     1     151.035 161.813 185.939  0.00  0.00    +0.023 HD
ENDBRANCH 171 173
BRANCH 171 177
ATOM    177  C   UNL     1     151.717 164.520 185.785  0.00  0.00    +0.064 C 
ATOM    178  H   UNL     1     152.354 163.783 186.287  0.00  0.00    +0.060 HD
BRANCH 177 179
ATOM    179  O   UNL     1     152.445 165.030 184.666  0.00  0.00    -0.391 OA
ATOM    180  H   UNL     1     153.183 164.400 184.505  0.00  0.00    +0.210 HD
ENDBRANCH 177 179
BRANCH 177 181
ATOM    181  C   UNL     1     151.493 165.675 186.801  0.00  0.00    -0.017 C 
ATOM    182  H   UNL     1     152.264 166.436 186.621  0.00  0.00    +0.032 HD
BRANCH 181 183
ATOM    183  C   UNL     1     150.132 166.339 186.520  0.00  0.00    -0.060 C 
ATOM    184  H   UNL     1     149.738 166.046 185.541  0.00  0.00    +0.023 HD
ATOM    185  H   UNL     1     149.390 166.075 187.278  0.00  0.00    +0.023 HD
ATOM    186  H   UNL     1     150.219 167.426 186.529  0.00  0.00    +0.023 HD
ENDBRANCH 181 183
BRANCH 181 187
ATOM    187  C   UNL     1     151.571 165.238 188.282  0.00  0.00    -0.046 C 
ATOM    188  H   UNL     1     151.749 164.159 188.347  0.00  0.00    +0.027 HD
ATOM    189  H   UNL     1     150.608 165.429 188.772  0.00  0.00    +0.027 HD
BRANCH 187 190
ATOM    190  C   UNL     1     152.703 165.946 189.047  0.00  0.00    -0.026 C 
ATOM    191  H   UNL     1     152.332 166.892 189.449  0.00  0.00    +0.029 HD
ATOM    192  H   UNL     1     153.506 166.198 188.345  0.00  0.00    +0.029 HD
BRANCH 190 193
ATOM    193  C   UNL     1     153.283 165.092 190.189  0.00  0.00    +0.061 C 
ATOM    194  O   UNL     1     154.416 165.703 190.811  0.00  0.00    -0.373 OA
ATOM    195  C   UNL     1     155.594 165.753 190.001  0.00  0.00    +0.059 C 
ATOM    196  C   UNL     1     156.026 164.351 189.575  0.00  0.00    -0.000 C 
ATOM    197  C   UNL     1     154.882 163.619 188.873  0.00  0.00    +0.063 C 
ATOM    198  C   UNL     1     153.626 163.669 189.745  0.00  0.00    -0.000 C 
ATOM    199  H   UNL     1     152.513 165.020 190.966  0.00  0.00    +0.060 HD
ATOM    200  H   UNL     1     155.404 166.378 189.121  0.00  0.00    +0.059 HD
ATOM    201  H   UNL     1     156.334 163.765 190.450  0.00  0.00    +0.032 HD
ATOM    202  H   UNL     1     156.904 164.413 188.922  0.00  0.00    +0.032 HD
ATOM    203  H   UNL     1     154.667 164.090 187.906  0.00  0.00    +0.060 HD
ATOM    204  H   UNL     1     153.803 163.051 190.637  0.00  0.00    +0.032 HD
ATOM    205  H   UNL     1     152.784 163.200 189.222  0.00  0.00    +0.032 HD
BRANCH 195 206
ATOM    206  C   UNL     1     156.684 166.429 190.826  0.00  0.00    -0.039 C 
ATOM    207  H   UNL     1     157.638 165.905 190.699  0.00  0.00    +0.025 HD
ATOM    208  H   UNL     1     156.428 166.435 191.890  0.00  0.00    +0.025 HD
ATOM    209  H   UNL     1     156.844 167.460 190.494  0.00  0.00    +0.025 HD
ENDBRANCH 195 206
BRANCH 197 210
ATOM    210  O   UNL     1     155.194 162.237 188.658  0.00  0.00    -0.380 OA
BRANCH 210 211
ATOM    211  C   UNL     1     154.243 161.340 189.218  0.00  0.00    +0.037 C 
ATOM    212  H   UNL     1     153.273 161.543 188.755  0.00  0.00    +0.052 HD
ATOM    213  H   UNL     1     154.145 161.496 190.295  0.00  0.00    +0.052 HD
ATOM    214  H   UNL     1     154.518 160.302 189.008  0.00  0.00    +0.052 HD
ENDBRANCH 210 211
ENDBRANCH 197 210
ENDBRANCH 190 193
ENDBRANCH 187 190
ENDBRANCH 181 187
ENDBRANCH 177 181
ENDBRANCH 171 177
ENDBRANCH  22 171
BRANCH  20 215
ATOM    215  O   UNL     1     149.573 162.404 180.989  0.00  0.00    -0.391 OA
ATOM    216  H   UNL     1     148.690 162.047 180.779  0.00  0.00    +0.210 HD
ENDBRANCH  20 215
BRANCH  18 217
ATOM    217  O   UNL     1     150.740 163.164 178.719  0.00  0.00    -0.391 OA
ATOM    218  H   UNL     1     151.686 163.122 178.469  0.00  0.00    +0.210 HD
ENDBRANCH  18 217
BRANCH  10 219
ATOM    219  O   UNL     1     155.525 170.533 182.631  0.00  0.00    -0.391 OA
ATOM    220  H   UNL     1     154.678 170.063 182.523  0.00  0.00    +0.210 HD
ENDBRANCH  10 219
BRANCH  37 221
ATOM    221  O   UNL     1     157.694 155.972 190.315  0.00  0.00    -0.379 OA
BRANCH 221 222
ATOM    222  C   UNL     1     158.915 155.916 191.040  0.00  0.00    +0.037 C 
ATOM    223  H   UNL     1     159.475 155.044 190.690  0.00  0.00    +0.052 HD
ATOM    224  H   UNL     1     159.523 156.804 190.857  0.00  0.00    +0.052 HD
ATOM    225  H   UNL     1     158.726 155.801 192.112  0.00  0.00    +0.052 HD
ENDBRANCH 221 222
ENDBRANCH  37 221
BRANCH  16 226
ATOM    226  O   UNL     1     153.674 164.798 177.494  0.00  0.00    -0.379 OA
BRANCH 226 227
ATOM    227  C   UNL     1     154.048 163.429 177.405  0.00  0.00    +0.037 C 
ATOM    228  H   UNL     1     154.968 163.297 176.827  0.00  0.00    +0.052 HD
ATOM    229  H   UNL     1     153.233 162.854 176.950  0.00  0.00    +0.052 HD
ATOM    230  H   UNL     1     154.219 163.050 178.418  0.00  0.00    +0.052 HD
ENDBRANCH 226 227
ENDBRANCH  16 226
TORSDOF 40
ENDMDL
MODEL 9
REMARK VINA RESULT:      -4.3     16.368     24.706
REMARK  Name = Swinholide A_conf1
REMARK  40 active torsions:
REMARK  status: ('A' for Active; 'I' for Inactive)
REMARK    1  A    between atoms: C_1  and  C_2
REMARK    2  A    between atoms: C_4  and  C_10
REMARK    3  A    between atoms: C_6  and  O_8
REMARK    4  A    between atoms: O_8  and  C_9
REMARK    5  A    between atoms: C_10  and  C_11
REMARK    6  A    between atoms: C_11  and  C_12
REMARK    7  A    between atoms: C_12  and  C_13
REMARK    8  A    between atoms: C_12  and  C_98
REMARK    9  A    between atoms: C_13  and  O_14
REMARK   10  A    between atoms: C_13  and  C_15
REMARK   11  A    between atoms: C_15  and  C_16
REMARK   12  A    between atoms: C_15  and  C_97
REMARK   13  A    between atoms: C_22  and  C_96
REMARK   14  A    between atoms: C_25  and  O_95
REMARK   15  A    between atoms: C_31  and  O_90
REMARK   16  A    between atoms: C_32  and  C_89
REMARK   17  A    between atoms: C_33  and  O_88
REMARK   18  A    between atoms: C_35  and  O_87
REMARK   19  A    between atoms: C_36  and  C_86
REMARK   20  A    between atoms: C_37  and  C_69
REMARK   21  A    between atoms: C_43  and  C_68
REMARK   22  A    between atoms: C_46  and  O_67
REMARK   23  A    between atoms: C_52  and  O_62
REMARK   24  A    between atoms: C_53  and  C_61
REMARK   25  A    between atoms: C_54  and  O_60
REMARK   26  A    between atoms: C_56  and  O_59
REMARK   27  A    between atoms: C_57  and  C_58
REMARK   28  A    between atoms: O_62  and  C_63
REMARK   29  A    between atoms: C_69  and  C_70
REMARK   30  A    between atoms: C_69  and  C_85
REMARK   31  A    between atoms: C_70  and  O_71
REMARK   32  A    between atoms: C_70  and  C_72
REMARK   33  A    between atoms: C_72  and  C_73
REMARK   34  A    between atoms: C_72  and  C_84
REMARK   35  A    between atoms: C_73  and  C_74
REMARK   36  A    between atoms: C_74  and  C_75
REMARK   37  A    between atoms: C_77  and  C_83
REMARK   38  A    between atoms: C_79  and  O_81
REMARK   39  A    between atoms: O_81  and  C_82
REMARK   40  A    between atoms: O_90  and  C_91
REMARK                            x       y       z     vdW  Elec       q    Type
REMARK                         _______ _______ _______ _____ _____    ______ ____
ROOT
ATOM      1  C   UNL     1     132.130 175.978 195.518  0.00  0.00    +0.113 C 
ATOM      2  O   UNL     1     132.613 175.256 194.353  0.00  0.00    -0.458 OA
ATOM      3  C   UNL     1     131.910 175.442 193.202  0.00  0.00    +0.332 C 
ATOM      4  O   UNL     1     130.895 176.120 193.076  0.00  0.00    -0.246 OA
ATOM      5  C   UNL     1     132.485 174.726 192.054  0.00  0.00    +0.023 C 
ATOM      6  C   UNL     1     133.771 174.359 191.953  0.00  0.00    -0.052 C 
ATOM      7  C   UNL     1     134.375 173.771 190.761  0.00  0.00    -0.054 C 
ATOM      8  C   UNL     1     134.115 174.254 189.529  0.00  0.00    -0.079 C 
ATOM      9  C   UNL     1     134.842 173.883 188.260  0.00  0.00    -0.008 C 
ATOM     10  C   UNL     1     134.939 175.018 187.222  0.00  0.00    +0.061 C 
ATOM     11  C   UNL     1     135.350 176.416 187.707  0.00  0.00    +0.003 C 
ATOM     12  C   UNL     1     136.794 176.632 188.199  0.00  0.00    +0.080 C 
ATOM     13  O   UNL     1     136.968 178.070 188.157  0.00  0.00    -0.369 OA
ATOM     14  C   UNL     1     137.946 178.630 189.048  0.00  0.00    +0.065 C 
ATOM     15  C   UNL     1     139.376 178.237 188.621  0.00  0.00    +0.000 C 
ATOM     16  C   UNL     1     140.482 178.938 189.438  0.00  0.00    +0.066 C 
ATOM     17  C   UNL     1     141.886 178.426 188.988  0.00  0.00    +0.009 C 
ATOM     18  C   UNL     1     142.707 177.820 190.156  0.00  0.00    +0.063 C 
ATOM     19  C   UNL     1     142.088 176.526 190.729  0.00  0.00    -0.000 C 
ATOM     20  C   UNL     1     143.043 175.835 191.724  0.00  0.00    +0.064 C 
ATOM     21  C   UNL     1     142.588 174.424 192.211  0.00  0.00    +0.020 C 
ATOM     22  C   UNL     1     141.186 174.413 192.899  0.00  0.00    +0.113 C 
ATOM     23  O   UNL     1     141.270 175.291 194.053  0.00  0.00    -0.458 OA
ATOM     24  C   UNL     1     140.254 176.181 194.212  0.00  0.00    +0.332 C 
ATOM     25  O   UNL     1     139.233 176.234 193.549  0.00  0.00    -0.246 OA
ATOM     26  C   UNL     1     140.565 177.066 195.358  0.00  0.00    +0.023 C 
ATOM     27  C   UNL     1     139.710 178.050 195.675  0.00  0.00    -0.052 C 
ATOM     28  C   UNL     1     139.852 178.984 196.785  0.00  0.00    -0.054 C 
ATOM     29  C   UNL     1     140.070 178.551 198.044  0.00  0.00    -0.079 C 
ATOM     30  C   UNL     1     140.192 179.386 199.289  0.00  0.00    -0.008 C 
ATOM     31  C   UNL     1     138.957 179.353 200.220  0.00  0.00    +0.061 C 
ATOM     32  C   UNL     1     138.897 178.083 201.095  0.00  0.00    +0.003 C 
ATOM     33  C   UNL     1     137.831 178.157 202.211  0.00  0.00    +0.080 C 
ATOM     34  O   UNL     1     136.516 177.863 201.710  0.00  0.00    -0.369 OA
ATOM     35  C   UNL     1     136.036 176.512 201.895  0.00  0.00    +0.065 C 
ATOM     36  C   UNL     1     134.592 176.512 201.362  0.00  0.00    +0.000 C 
ATOM     37  C   UNL     1     133.794 175.186 201.334  0.00  0.00    +0.066 C 
ATOM     38  C   UNL     1     134.448 174.124 200.397  0.00  0.00    +0.009 C 
ATOM     39  C   UNL     1     133.446 173.442 199.423  0.00  0.00    +0.063 C 
ATOM     40  C   UNL     1     132.527 174.422 198.674  0.00  0.00    -0.000 C 
ATOM     41  C   UNL     1     132.187 173.947 197.248  0.00  0.00    +0.064 C 
ATOM     42  C   UNL     1     131.351 175.021 196.490  0.00  0.00    +0.020 C 
ATOM     43  C   UNL     1     136.109 176.094 203.370  0.00  0.00    -0.008 C 
ATOM     44  C   UNL     1     137.459 176.373 203.943  0.00  0.00    -0.083 C 
ATOM     45  C   UNL     1     138.232 177.318 203.402  0.00  0.00    -0.059 C 
ATOM     46  C   UNL     1     137.562 178.273 190.494  0.00  0.00    -0.008 C 
ATOM     47  C   UNL     1     137.377 176.798 190.638  0.00  0.00    -0.083 C 
ATOM     48  C   UNL     1     137.054 176.056 189.571  0.00  0.00    -0.059 C 
ATOM     49  H   UNL     1     131.371 176.703 195.187  0.00  0.00    +0.074 HD
ATOM     50  H   UNL     1     131.791 174.591 191.231  0.00  0.00    +0.069 HD
ATOM     51  H   UNL     1     134.466 174.530 192.772  0.00  0.00    +0.062 HD
ATOM     52  H   UNL     1     133.371 175.041 189.417  0.00  0.00    +0.058 HD
ATOM     53  H   UNL     1     135.849 173.502 188.463  0.00  0.00    +0.033 HD
ATOM     54  H   UNL     1     134.305 173.046 187.792  0.00  0.00    +0.033 HD
ATOM     55  H   UNL     1     133.943 175.118 186.772  0.00  0.00    +0.060 HD
ATOM     56  H   UNL     1     134.648 176.780 188.468  0.00  0.00    +0.032 HD
ATOM     57  H   UNL     1     135.203 177.095 186.855  0.00  0.00    +0.032 HD
ATOM     58  H   UNL     1     137.505 176.203 187.484  0.00  0.00    +0.064 HD
ATOM     59  H   UNL     1     137.846 179.718 188.939  0.00  0.00    +0.060 HD
ATOM     60  H   UNL     1     139.487 178.501 187.560  0.00  0.00    +0.032 HD
ATOM     61  H   UNL     1     139.509 177.149 188.678  0.00  0.00    +0.032 HD
ATOM     62  H   UNL     1     140.321 178.712 190.497  0.00  0.00    +0.060 HD
ATOM     63  H   UNL     1     141.749 177.609 188.265  0.00  0.00    +0.035 HD
ATOM     64  H   UNL     1     143.712 177.584 189.786  0.00  0.00    +0.060 HD
ATOM     65  H   UNL     1     141.161 176.781 191.254  0.00  0.00    +0.032 HD
ATOM     66  H   UNL     1     141.845 175.844 189.905  0.00  0.00    +0.032 HD
ATOM     67  H   UNL     1     144.024 175.721 191.246  0.00  0.00    +0.060 HD
ATOM     68  H   UNL     1     143.327 174.125 192.965  0.00  0.00    +0.036 HD
ATOM     69  H   UNL     1     140.473 174.807 192.166  0.00  0.00    +0.074 HD
ATOM     70  H   UNL     1     141.482 176.888 195.902  0.00  0.00    +0.069 HD
ATOM     71  H   UNL     1     138.816 178.195 195.066  0.00  0.00    +0.062 HD
ATOM     72  H   UNL     1     140.188 177.484 198.218  0.00  0.00    +0.058 HD
ATOM     73  H   UNL     1     141.079 179.051 199.845  0.00  0.00    +0.033 HD
ATOM     74  H   UNL     1     140.426 180.427 199.035  0.00  0.00    +0.033 HD
ATOM     75  H   UNL     1     138.029 179.450 199.645  0.00  0.00    +0.060 HD
ATOM     76  H   UNL     1     139.885 177.955 201.558  0.00  0.00    +0.032 HD
ATOM     77  H   UNL     1     138.716 177.210 200.456  0.00  0.00    +0.032 HD
ATOM     78  H   UNL     1     137.768 179.184 202.588  0.00  0.00    +0.064 HD
ATOM     79  H   UNL     1     136.661 175.854 201.281  0.00  0.00    +0.060 HD
ATOM     80  H   UNL     1     134.612 176.917 200.339  0.00  0.00    +0.032 HD
ATOM     81  H   UNL     1     134.024 177.256 201.934  0.00  0.00    +0.032 HD
ATOM     82  H   UNL     1     132.812 175.450 200.930  0.00  0.00    +0.060 HD
ATOM     83  H   UNL     1     135.153 174.650 199.744  0.00  0.00    +0.035 HD
ATOM     84  H   UNL     1     134.048 172.884 198.694  0.00  0.00    +0.060 HD
ATOM     85  H   UNL     1     131.587 174.525 199.234  0.00  0.00    +0.032 HD
ATOM     86  H   UNL     1     132.986 175.405 198.637  0.00  0.00    +0.032 HD
ATOM     87  H   UNL     1     133.096 173.715 196.686  0.00  0.00    +0.060 HD
ATOM     88  H   UNL     1     130.875 175.664 197.244  0.00  0.00    +0.036 HD
ATOM     89  H   UNL     1     135.899 175.025 203.478  0.00  0.00    +0.033 HD
ATOM     90  H   UNL     1     135.373 176.643 203.969  0.00  0.00    +0.033 HD
ATOM     91  H   UNL     1     137.776 175.828 204.826  0.00  0.00    +0.057 HD
ATOM     92  H   UNL     1     139.198 177.536 203.854  0.00  0.00    +0.059 HD
ATOM     93  H   UNL     1     136.610 178.753 190.754  0.00  0.00    +0.033 HD
ATOM     94  H   UNL     1     138.307 178.632 191.207  0.00  0.00    +0.033 HD
ATOM     95  H   UNL     1     137.523 176.340 191.612  0.00  0.00    +0.057 HD
ATOM     96  H   UNL     1     136.986 174.980 189.690  0.00  0.00    +0.059 HD
ENDROOT
BRANCH  28  97
ATOM     97  C   UNL     1     139.626 180.422 196.393  0.00  0.00    -0.040 C 
ATOM     98  H   UNL     1     140.102 181.102 197.109  0.00  0.00    +0.028 HD
ATOM     99  H   UNL     1     138.553 180.641 196.375  0.00  0.00    +0.028 HD
ATOM    100  H   UNL     1     140.035 180.672 195.411  0.00  0.00    +0.028 HD
ENDBRANCH  28  97
BRANCH  21 101
ATOM    101  C   UNL     1     142.672 173.424 191.052  0.00  0.00    -0.057 C 
ATOM    102  H   UNL     1     141.843 172.709 191.073  0.00  0.00    +0.023 HD
ATOM    103  H   UNL     1     143.607 172.856 191.084  0.00  0.00    +0.023 HD
ATOM    104  H   UNL     1     142.652 173.939 190.085  0.00  0.00    +0.023 HD
ENDBRANCH  21 101
BRANCH  42 105
ATOM    105  C   UNL     1     130.176 174.372 195.719  0.00  0.00    -0.057 C 
ATOM    106  H   UNL     1     129.324 174.186 196.381  0.00  0.00    +0.023 HD
ATOM    107  H   UNL     1     129.839 175.004 194.890  0.00  0.00    +0.023 HD
ATOM    108  H   UNL     1     130.465 173.398 195.308  0.00  0.00    +0.023 HD
ENDBRANCH  42 105
BRANCH  17 109
ATOM    109  C   UNL     1     142.716 179.496 188.265  0.00  0.00    -0.058 C 
ATOM    110  H   UNL     1     143.113 179.136 187.311  0.00  0.00    +0.023 HD
ATOM    111  H   UNL     1     142.102 180.379 188.054  0.00  0.00    +0.023 HD
ATOM    112  H   UNL     1     143.555 179.826 188.888  0.00  0.00    +0.023 HD
ENDBRANCH  17 109
BRANCH  38 113
ATOM    113  C   UNL     1     135.241 173.048 201.158  0.00  0.00    -0.058 C 
ATOM    114  H   UNL     1     134.996 172.034 200.820  0.00  0.00    +0.023 HD
ATOM    115  H   UNL     1     135.051 173.099 202.233  0.00  0.00    +0.023 HD
ATOM    116  H   UNL     1     136.319 173.184 201.007  0.00  0.00    +0.023 HD
ENDBRANCH  38 113
BRANCH   7 117
ATOM    117  C   UNL     1     135.369 172.682 191.052  0.00  0.00    -0.040 C 
ATOM    118  H   UNL     1     135.527 172.055 190.167  0.00  0.00    +0.028 HD
ATOM    119  H   UNL     1     135.010 172.050 191.867  0.00  0.00    +0.028 HD
ATOM    120  H   UNL     1     136.351 173.073 191.332  0.00  0.00    +0.028 HD
ENDBRANCH   7 117
BRANCH   1 121
ATOM    121  C   UNL     1     133.283 176.902 196.059  0.00  0.00    +0.020 C 
ATOM    122  H   UNL     1     133.478 177.595 195.225  0.00  0.00    +0.036 HD
BRANCH 121 123
ATOM    123  C   UNL     1     132.740 177.738 197.233  0.00  0.00    -0.057 C 
ATOM    124  H   UNL     1     132.903 178.805 197.066  0.00  0.00    +0.023 HD
ATOM    125  H   UNL     1     133.207 177.471 198.183  0.00  0.00    +0.023 HD
ATOM    126  H   UNL     1     131.657 177.630 197.350  0.00  0.00    +0.023 HD
ENDBRANCH 121 123
BRANCH 121 127
ATOM    127  C   UNL     1     134.668 176.227 196.346  0.00  0.00    +0.064 C 
ATOM    128  H   UNL     1     134.491 175.199 196.651  0.00  0.00    +0.060 HD
BRANCH 127 129
ATOM    129  C   UNL     1     135.623 176.868 197.408  0.00  0.00    -0.017 C 
ATOM    130  H   UNL     1     135.000 177.370 198.160  0.00  0.00    +0.032 HD
BRANCH 129 131
ATOM    131  C   UNL     1     136.530 175.906 198.174  0.00  0.00    -0.060 C 
ATOM    132  H   UNL     1     137.404 175.633 197.577  0.00  0.00    +0.023 HD
ATOM    133  H   UNL     1     136.846 176.322 199.134  0.00  0.00    +0.023 HD
ATOM    134  H   UNL     1     136.006 174.964 198.384  0.00  0.00    +0.023 HD
ENDBRANCH 129 131
BRANCH 129 135
ATOM    135  C   UNL     1     136.532 177.953 196.757  0.00  0.00    -0.046 C 
ATOM    136  H   UNL     1     136.754 177.674 195.721  0.00  0.00    +0.027 HD
ATOM    137  H   UNL     1     137.497 177.960 197.270  0.00  0.00    +0.027 HD
BRANCH 135 138
ATOM    138  C   UNL     1     135.963 179.371 196.812  0.00  0.00    -0.026 C 
ATOM    139  H   UNL     1     136.709 180.043 197.246  0.00  0.00    +0.029 HD
ATOM    140  H   UNL     1     135.106 179.400 197.489  0.00  0.00    +0.029 HD
BRANCH 138 143
ATOM    141  C   UNL     1     135.387 179.258 193.126  0.00  0.00    +0.059 C 
ATOM    142  O   UNL     1     135.912 178.957 194.428  0.00  0.00    -0.373 OA
ATOM    143  C   UNL     1     135.537 179.903 195.433  0.00  0.00    +0.061 C 
ATOM    144  C   UNL     1     136.180 181.255 195.123  0.00  0.00    -0.000 C 
ATOM    145  C   UNL     1     136.307 181.522 193.618  0.00  0.00    +0.063 C 
ATOM    146  C   UNL     1     135.227 180.756 192.867  0.00  0.00    -0.000 C 
ATOM    147  H   UNL     1     136.126 178.866 192.417  0.00  0.00    +0.059 HD
ATOM    148  H   UNL     1     134.446 179.999 195.412  0.00  0.00    +0.060 HD
ATOM    149  H   UNL     1     135.607 182.046 195.615  0.00  0.00    +0.032 HD
ATOM    150  H   UNL     1     137.190 181.311 195.548  0.00  0.00    +0.032 HD
ATOM    151  H   UNL     1     137.300 181.192 193.286  0.00  0.00    +0.060 HD
ATOM    152  H   UNL     1     134.242 181.117 193.195  0.00  0.00    +0.032 HD
ATOM    153  H   UNL     1     135.260 180.950 191.789  0.00  0.00    +0.032 HD
BRANCH 141 154
ATOM    154  C   UNL     1     134.079 178.506 192.901  0.00  0.00    -0.039 C 
ATOM    155  H   UNL     1     133.338 179.137 192.402  0.00  0.00    +0.025 HD
ATOM    156  H   UNL     1     134.242 177.612 192.290  0.00  0.00    +0.025 HD
ATOM    157  H   UNL     1     133.642 178.199 193.855  0.00  0.00    +0.025 HD
ENDBRANCH 141 154
BRANCH 145 158
ATOM    158  O   UNL     1     136.193 182.936 193.425  0.00  0.00    -0.380 OA
BRANCH 158 159
ATOM    159  C   UNL     1     136.084 183.318 192.060  0.00  0.00    +0.037 C 
ATOM    160  H   UNL     1     135.767 184.365 192.024  0.00  0.00    +0.052 HD
ATOM    161  H   UNL     1     135.324 182.718 191.550  0.00  0.00    +0.052 HD
ATOM    162  H   UNL     1     137.044 183.227 191.544  0.00  0.00    +0.052 HD
ENDBRANCH 158 159
ENDBRANCH 145 158
ENDBRANCH 138 143
ENDBRANCH 135 138
ENDBRANCH 129 135
ENDBRANCH 127 129
BRANCH 127 163
ATOM    163  O   UNL     1     135.453 176.133 195.150  0.00  0.00    -0.391 OA
ATOM    164  H   UNL     1     135.313 175.261 194.743  0.00  0.00    +0.210 HD
ENDBRANCH 127 163
ENDBRANCH 121 127
ENDBRANCH   1 121
BRANCH  41 165
ATOM    165  O   UNL     1     131.448 172.726 197.358  0.00  0.00    -0.391 OA
ATOM    166  H   UNL     1     131.924 172.020 196.876  0.00  0.00    +0.210 HD
ENDBRANCH  41 165
BRANCH  39 167
ATOM    167  O   UNL     1     132.617 172.479 200.070  0.00  0.00    -0.391 OA
ATOM    168  H   UNL     1     133.181 171.936 200.654  0.00  0.00    +0.210 HD
ENDBRANCH  39 167
BRANCH  31 169
ATOM    169  O   UNL     1     139.054 180.497 201.081  0.00  0.00    -0.391 OA
ATOM    170  H   UNL     1     138.247 180.520 201.622  0.00  0.00    +0.210 HD
ENDBRANCH  31 169
BRANCH  22 171
ATOM    171  C   UNL     1     140.688 172.994 193.348  0.00  0.00    +0.020 C 
ATOM    172  H   UNL     1     141.480 172.286 193.085  0.00  0.00    +0.036 HD
BRANCH 171 173
ATOM    173  C   UNL     1     140.457 172.921 194.860  0.00  0.00    -0.057 C 
ATOM    174  H   UNL     1     139.553 172.356 195.092  0.00  0.00    +0.023 HD
ATOM    175  H   UNL     1     140.354 173.917 195.302  0.00  0.00    +0.023 HD
ATOM    176  H   UNL     1     141.294 172.441 195.374  0.00  0.00    +0.023 HD
ENDBRANCH 171 173
BRANCH 171 177
ATOM    177  C   UNL     1     139.425 172.566 192.554  0.00  0.00    +0.064 C 
ATOM    178  H   UNL     1     138.933 171.747 193.088  0.00  0.00    +0.060 HD
BRANCH 177 179
ATOM    179  O   UNL     1     138.526 173.676 192.539  0.00  0.00    -0.391 OA
ATOM    180  H   UNL     1     138.077 173.681 193.415  0.00  0.00    +0.210 HD
ENDBRANCH 177 179
BRANCH 177 181
ATOM    181  C   UNL     1     139.636 172.077 191.093  0.00  0.00    -0.017 C 
ATOM    182  H   UNL     1     140.711 172.125 190.875  0.00  0.00    +0.032 HD
BRANCH 181 183
ATOM    183  C   UNL     1     139.222 170.598 190.989  0.00  0.00    -0.060 C 
ATOM    184  H   UNL     1     138.159 170.496 190.743  0.00  0.00    +0.023 HD
ATOM    185  H   UNL     1     139.799 170.070 190.225  0.00  0.00    +0.023 HD
ATOM    186  H   UNL     1     139.395 170.076 191.931  0.00  0.00    +0.023 HD
ENDBRANCH 181 183
BRANCH 181 187
ATOM    187  C   UNL     1     138.883 172.913 190.033  0.00  0.00    -0.046 C 
ATOM    188  H   UNL     1     138.090 173.499 190.509  0.00  0.00    +0.027 HD
ATOM    189  H   UNL     1     138.393 172.242 189.317  0.00  0.00    +0.027 HD
BRANCH 187 190
ATOM    190  C   UNL     1     139.807 173.893 189.289  0.00  0.00    -0.026 C 
ATOM    191  H   UNL     1     140.671 174.124 189.917  0.00  0.00    +0.029 HD
ATOM    192  H   UNL     1     139.274 174.838 189.131  0.00  0.00    +0.029 HD
BRANCH 190 193
ATOM    193  C   UNL     1     140.287 173.353 187.930  0.00  0.00    +0.061 C 
ATOM    194  O   UNL     1     141.613 173.779 187.606  0.00  0.00    -0.373 OA
ATOM    195  C   UNL     1     141.743 175.172 187.307  0.00  0.00    +0.059 C 
ATOM    196  C   UNL     1     140.853 175.564 186.130  0.00  0.00    -0.000 C 
ATOM    197  C   UNL     1     139.399 175.169 186.391  0.00  0.00    +0.063 C 
ATOM    198  C   UNL     1     139.329 173.694 186.788  0.00  0.00    -0.000 C 
ATOM    199  H   UNL     1     140.331 172.260 188.009  0.00  0.00    +0.060 HD
ATOM    200  H   UNL     1     141.483 175.759 188.195  0.00  0.00    +0.059 HD
ATOM    201  H   UNL     1     141.193 175.066 185.212  0.00  0.00    +0.032 HD
ATOM    202  H   UNL     1     140.934 176.641 185.943  0.00  0.00    +0.032 HD
ATOM    203  H   UNL     1     138.981 175.780 187.201  0.00  0.00    +0.060 HD
ATOM    204  H   UNL     1     139.592 173.090 185.908  0.00  0.00    +0.032 HD
ATOM    205  H   UNL     1     138.297 173.418 187.037  0.00  0.00    +0.032 HD
BRANCH 195 206
ATOM    206  C   UNL     1     143.211 175.433 186.987  0.00  0.00    -0.039 C 
ATOM    207  H   UNL     1     143.854 174.804 187.612  0.00  0.00    +0.025 HD
ATOM    208  H   UNL     1     143.472 176.482 187.161  0.00  0.00    +0.025 HD
ATOM    209  H   UNL     1     143.437 175.179 185.946  0.00  0.00    +0.025 HD
ENDBRANCH 195 206
BRANCH 197 210
ATOM    210  O   UNL     1     138.590 175.333 185.219  0.00  0.00    -0.380 OA
BRANCH 210 211
ATOM    211  C   UNL     1     138.404 176.691 184.836  0.00  0.00    +0.037 C 
ATOM    212  H   UNL     1     138.083 177.251 185.720  0.00  0.00    +0.052 HD
ATOM    213  H   UNL     1     137.623 176.779 184.076  0.00  0.00    +0.052 HD
ATOM    214  H   UNL     1     139.340 177.122 184.471  0.00  0.00    +0.052 HD
ENDBRANCH 210 211
ENDBRANCH 197 210
ENDBRANCH 190 193
ENDBRANCH 187 190
ENDBRANCH 181 187
ENDBRANCH 177 181
ENDBRANCH 171 177
ENDBRANCH  22 171
BRANCH  20 215
ATOM    215  O   UNL     1     143.254 176.726 192.829  0.00  0.00    -0.391 OA
ATOM    216  H   UNL     1     142.603 176.498 193.518  0.00  0.00    +0.210 HD
ENDBRANCH  20 215
BRANCH  18 217
ATOM    217  O   UNL     1     142.863 178.791 191.193  0.00  0.00    -0.391 OA
ATOM    218  H   UNL     1     143.776 179.137 191.113  0.00  0.00    +0.210 HD
ENDBRANCH  18 217
BRANCH  10 219
ATOM    219  O   UNL     1     135.814 174.594 186.172  0.00  0.00    -0.391 OA
ATOM    220  H   UNL     1     135.762 175.262 185.464  0.00  0.00    +0.210 HD
ENDBRANCH  10 219
BRANCH  37 221
ATOM    221  O   UNL     1     133.564 174.623 202.626  0.00  0.00    -0.379 OA
BRANCH 221 222
ATOM    222  C   UNL     1     132.193 174.527 202.990  0.00  0.00    +0.037 C 
ATOM    223  H   UNL     1     131.788 175.542 203.045  0.00  0.00    +0.052 HD
ATOM    224  H   UNL     1     131.624 173.975 202.239  0.00  0.00    +0.052 HD
ATOM    225  H   UNL     1     132.084 174.055 203.971  0.00  0.00    +0.052 HD
ENDBRANCH 221 222
ENDBRANCH  37 221
BRANCH  16 226
ATOM    226  O   UNL     1     140.327 180.348 189.212  0.00  0.00    -0.379 OA
BRANCH 226 227
ATOM    227  C   UNL     1     140.262 181.096 190.420  0.00  0.00    +0.037 C 
ATOM    228  H   UNL     1     139.500 180.702 191.099  0.00  0.00    +0.052 HD
ATOM    229  H   UNL     1     140.054 182.147 190.190  0.00  0.00    +0.052 HD
ATOM    230  H   UNL     1     141.235 181.033 190.918  0.00  0.00    +0.052 HD
ENDBRANCH 226 227
ENDBRANCH  16 226
TORSDOF 40
ENDMDL
MODEL 10
REMARK VINA RESULT:      -4.3      3.853     10.728
REMARK  Name = Swinholide A_conf1
REMARK  40 active torsions:
REMARK  status: ('A' for Active; 'I' for Inactive)
REMARK    1  A    between atoms: C_1  and  C_2
REMARK    2  A    between atoms: C_4  and  C_10
REMARK    3  A    between atoms: C_6  and  O_8
REMARK    4  A    between atoms: O_8  and  C_9
REMARK    5  A    between atoms: C_10  and  C_11
REMARK    6  A    between atoms: C_11  and  C_12
REMARK    7  A    between atoms: C_12  and  C_13
REMARK    8  A    between atoms: C_12  and  C_98
REMARK    9  A    between atoms: C_13  and  O_14
REMARK   10  A    between atoms: C_13  and  C_15
REMARK   11  A    between atoms: C_15  and  C_16
REMARK   12  A    between atoms: C_15  and  C_97
REMARK   13  A    between atoms: C_22  and  C_96
REMARK   14  A    between atoms: C_25  and  O_95
REMARK   15  A    between atoms: C_31  and  O_90
REMARK   16  A    between atoms: C_32  and  C_89
REMARK   17  A    between atoms: C_33  and  O_88
REMARK   18  A    between atoms: C_35  and  O_87
REMARK   19  A    between atoms: C_36  and  C_86
REMARK   20  A    between atoms: C_37  and  C_69
REMARK   21  A    between atoms: C_43  and  C_68
REMARK   22  A    between atoms: C_46  and  O_67
REMARK   23  A    between atoms: C_52  and  O_62
REMARK   24  A    between atoms: C_53  and  C_61
REMARK   25  A    between atoms: C_54  and  O_60
REMARK   26  A    between atoms: C_56  and  O_59
REMARK   27  A    between atoms: C_57  and  C_58
REMARK   28  A    between atoms: O_62  and  C_63
REMARK   29  A    between atoms: C_69  and  C_70
REMARK   30  A    between atoms: C_69  and  C_85
REMARK   31  A    between atoms: C_70  and  O_71
REMARK   32  A    between atoms: C_70  and  C_72
REMARK   33  A    between atoms: C_72  and  C_73
REMARK   34  A    between atoms: C_72  and  C_84
REMARK   35  A    between atoms: C_73  and  C_74
REMARK   36  A    between atoms: C_74  and  C_75
REMARK   37  A    between atoms: C_77  and  C_83
REMARK   38  A    between atoms: C_79  and  O_81
REMARK   39  A    between atoms: O_81  and  C_82
REMARK   40  A    between atoms: O_90  and  C_91
REMARK                            x       y       z     vdW  Elec       q    Type
REMARK                         _______ _______ _______ _____ _____    ______ ____
ROOT
ATOM      1  C   UNL     1     157.707 159.767 189.583  0.00  0.00    +0.113 C 
ATOM      2  O   UNL     1     156.685 158.964 188.932  0.00  0.00    -0.458 OA
ATOM      3  C   UNL     1     155.865 158.258 189.758  0.00  0.00    +0.332 C 
ATOM      4  O   UNL     1     155.940 158.207 190.980  0.00  0.00    -0.246 OA
ATOM      5  C   UNL     1     154.825 157.511 189.034  0.00  0.00    +0.023 C 
ATOM      6  C   UNL     1     154.365 157.834 187.816  0.00  0.00    -0.052 C 
ATOM      7  C   UNL     1     153.241 157.180 187.153  0.00  0.00    -0.054 C 
ATOM      8  C   UNL     1     152.106 156.884 187.821  0.00  0.00    -0.079 C 
ATOM      9  C   UNL     1     150.810 156.421 187.203  0.00  0.00    -0.008 C 
ATOM     10  C   UNL     1     149.544 156.876 187.954  0.00  0.00    +0.061 C 
ATOM     11  C   UNL     1     149.451 158.341 188.404  0.00  0.00    +0.003 C 
ATOM     12  C   UNL     1     149.306 159.435 187.331  0.00  0.00    +0.080 C 
ATOM     13  O   UNL     1     148.818 160.586 188.065  0.00  0.00    -0.369 OA
ATOM     14  C   UNL     1     149.106 161.879 187.509  0.00  0.00    +0.065 C 
ATOM     15  C   UNL     1     148.311 162.113 186.207  0.00  0.00    +0.000 C 
ATOM     16  C   UNL     1     148.448 163.544 185.645  0.00  0.00    +0.066 C 
ATOM     17  C   UNL     1     147.674 163.666 184.296  0.00  0.00    +0.009 C 
ATOM     18  C   UNL     1     148.579 164.123 183.122  0.00  0.00    +0.063 C 
ATOM     19  C   UNL     1     149.663 163.087 182.750  0.00  0.00    -0.000 C 
ATOM     20  C   UNL     1     150.389 163.472 181.445  0.00  0.00    +0.064 C 
ATOM     21  C   UNL     1     151.368 162.394 180.885  0.00  0.00    +0.020 C 
ATOM     22  C   UNL     1     152.495 161.983 181.886  0.00  0.00    +0.113 C 
ATOM     23  O   UNL     1     153.257 163.181 182.187  0.00  0.00    -0.458 OA
ATOM     24  C   UNL     1     153.530 163.412 183.499  0.00  0.00    +0.332 C 
ATOM     25  O   UNL     1     153.296 162.657 184.427  0.00  0.00    -0.246 OA
ATOM     26  C   UNL     1     154.200 164.726 183.627  0.00  0.00    +0.023 C 
ATOM     27  C   UNL     1     154.530 165.176 184.847  0.00  0.00    -0.052 C 
ATOM     28  C   UNL     1     155.216 166.427 185.143  0.00  0.00    -0.054 C 
ATOM     29  C   UNL     1     156.376 166.753 184.535  0.00  0.00    -0.079 C 
ATOM     30  C   UNL     1     157.217 167.978 184.768  0.00  0.00    -0.008 C 
ATOM     31  C   UNL     1     158.506 167.737 185.589  0.00  0.00    +0.061 C 
ATOM     32  C   UNL     1     159.650 167.129 184.750  0.00  0.00    +0.003 C 
ATOM     33  C   UNL     1     161.013 167.133 185.477  0.00  0.00    +0.080 C 
ATOM     34  O   UNL     1     161.125 166.040 186.404  0.00  0.00    -0.369 OA
ATOM     35  C   UNL     1     161.827 164.864 185.943  0.00  0.00    +0.065 C 
ATOM     36  C   UNL     1     161.878 163.914 187.153  0.00  0.00    +0.000 C 
ATOM     37  C   UNL     1     162.499 162.506 186.987  0.00  0.00    +0.066 C 
ATOM     38  C   UNL     1     161.712 161.630 185.964  0.00  0.00    +0.009 C 
ATOM     39  C   UNL     1     161.391 160.199 186.477  0.00  0.00    +0.063 C 
ATOM     40  C   UNL     1     160.794 160.154 187.894  0.00  0.00    -0.000 C 
ATOM     41  C   UNL     1     159.774 159.014 188.075  0.00  0.00    +0.064 C 
ATOM     42  C   UNL     1     159.114 159.077 189.485  0.00  0.00    +0.020 C 
ATOM     43  C   UNL     1     163.228 165.222 185.428  0.00  0.00    -0.008 C 
ATOM     44  C   UNL     1     163.173 166.352 184.455  0.00  0.00    -0.083 C 
ATOM     45  C   UNL     1     162.155 167.215 184.491  0.00  0.00    -0.059 C 
ATOM     46  C   UNL     1     150.632 162.041 187.394  0.00  0.00    -0.008 C 
ATOM     47  C   UNL     1     151.224 160.901 186.632  0.00  0.00    -0.083 C 
ATOM     48  C   UNL     1     150.589 159.722 186.588  0.00  0.00    -0.059 C 
ATOM     49  H   UNL     1     157.492 159.791 190.663  0.00  0.00    +0.074 HD
ATOM     50  H   UNL     1     154.380 156.709 189.614  0.00  0.00    +0.069 HD
ATOM     51  H   UNL     1     154.797 158.663 187.258  0.00  0.00    +0.062 HD
ATOM     52  H   UNL     1     152.066 157.055 188.895  0.00  0.00    +0.058 HD
ATOM     53  H   UNL     1     150.727 156.724 186.154  0.00  0.00    +0.033 HD
ATOM     54  H   UNL     1     150.813 155.322 187.186  0.00  0.00    +0.033 HD
ATOM     55  H   UNL     1     149.478 156.260 188.861  0.00  0.00    +0.060 HD
ATOM     56  H   UNL     1     150.287 158.592 189.070  0.00  0.00    +0.032 HD
ATOM     57  H   UNL     1     148.562 158.411 189.048  0.00  0.00    +0.032 HD
ATOM     58  H   UNL     1     148.525 159.160 186.613  0.00  0.00    +0.064 HD
ATOM     59  H   UNL     1     148.753 162.600 188.257  0.00  0.00    +0.060 HD
ATOM     60  H   UNL     1     147.253 161.910 186.426  0.00  0.00    +0.032 HD
ATOM     61  H   UNL     1     148.605 161.386 185.440  0.00  0.00    +0.032 HD
ATOM     62  H   UNL     1     149.512 163.750 185.488  0.00  0.00    +0.060 HD
ATOM     63  H   UNL     1     147.298 162.672 184.013  0.00  0.00    +0.035 HD
ATOM     64  H   UNL     1     147.946 164.288 182.241  0.00  0.00    +0.060 HD
ATOM     65  H   UNL     1     150.400 163.043 183.560  0.00  0.00    +0.032 HD
ATOM     66  H   UNL     1     149.201 162.099 182.646  0.00  0.00    +0.032 HD
ATOM     67  H   UNL     1     149.636 163.671 180.671  0.00  0.00    +0.060 HD
ATOM     68  H   UNL     1     151.852 162.863 180.019  0.00  0.00    +0.036 HD
ATOM     69  H   UNL     1     151.994 161.607 182.785  0.00  0.00    +0.074 HD
ATOM     70  H   UNL     1     154.399 165.284 182.723  0.00  0.00    +0.069 HD
ATOM     71  H   UNL     1     154.273 164.577 185.722  0.00  0.00    +0.062 HD
ATOM     72  H   UNL     1     156.776 166.084 183.776  0.00  0.00    +0.058 HD
ATOM     73  H   UNL     1     157.481 168.408 183.791  0.00  0.00    +0.033 HD
ATOM     74  H   UNL     1     156.625 168.767 185.246  0.00  0.00    +0.033 HD
ATOM     75  H   UNL     1     158.305 167.099 186.457  0.00  0.00    +0.060 HD
ATOM     76  H   UNL     1     159.737 167.725 183.832  0.00  0.00    +0.032 HD
ATOM     77  H   UNL     1     159.381 166.107 184.456  0.00  0.00    +0.032 HD
ATOM     78  H   UNL     1     161.096 168.036 186.092  0.00  0.00    +0.064 HD
ATOM     79  H   UNL     1     161.229 164.417 185.142  0.00  0.00    +0.060 HD
ATOM     80  H   UNL     1     160.849 163.788 187.524  0.00  0.00    +0.032 HD
ATOM     81  H   UNL     1     162.394 164.436 187.968  0.00  0.00    +0.032 HD
ATOM     82  H   UNL     1     162.426 162.041 187.974  0.00  0.00    +0.060 HD
ATOM     83  H   UNL     1     160.732 162.097 185.817  0.00  0.00    +0.035 HD
ATOM     84  H   UNL     1     160.671 159.766 185.770  0.00  0.00    +0.060 HD
ATOM     85  H   UNL     1     161.608 160.004 188.617  0.00  0.00    +0.032 HD
ATOM     86  H   UNL     1     160.330 161.107 188.130  0.00  0.00    +0.032 HD
ATOM     87  H   UNL     1     159.004 159.050 187.299  0.00  0.00    +0.060 HD
ATOM     88  H   UNL     1     159.786 159.648 190.141  0.00  0.00    +0.036 HD
ATOM     89  H   UNL     1     163.688 164.359 184.935  0.00  0.00    +0.033 HD
ATOM     90  H   UNL     1     163.882 165.525 186.254  0.00  0.00    +0.033 HD
ATOM     91  H   UNL     1     163.992 166.480 183.753  0.00  0.00    +0.057 HD
ATOM     92  H   UNL     1     162.147 168.055 183.800  0.00  0.00    +0.059 HD
ATOM     93  H   UNL     1     151.081 162.039 188.395  0.00  0.00    +0.033 HD
ATOM     94  H   UNL     1     150.899 162.990 186.924  0.00  0.00    +0.033 HD
ATOM     95  H   UNL     1     152.162 161.050 186.105  0.00  0.00    +0.057 HD
ATOM     96  H   UNL     1     151.009 158.931 185.978  0.00  0.00    +0.059 HD
ENDROOT
BRANCH  28  97
ATOM     97  C   UNL     1     154.562 167.227 186.240  0.00  0.00    -0.040 C 
ATOM     98  H   UNL     1     155.017 168.221 186.324  0.00  0.00    +0.028 HD
ATOM     99  H   UNL     1     154.683 166.714 187.201  0.00  0.00    +0.028 HD
ATOM    100  H   UNL     1     153.493 167.389 186.080  0.00  0.00    +0.028 HD
ENDBRANCH  28  97
BRANCH  21 101
ATOM    101  C   UNL     1     150.573 161.185 180.380  0.00  0.00    -0.057 C 
ATOM    102  H   UNL     1     149.989 160.721 181.181  0.00  0.00    +0.023 HD
ATOM    103  H   UNL     1     151.235 160.422 179.959  0.00  0.00    +0.023 HD
ATOM    104  H   UNL     1     149.882 161.474 179.580  0.00  0.00    +0.023 HD
ENDBRANCH  21 101
BRANCH  42 105
ATOM    105  C   UNL     1     159.028 157.671 190.125  0.00  0.00    -0.057 C 
ATOM    106  H   UNL     1     157.999 157.295 190.116  0.00  0.00    +0.023 HD
ATOM    107  H   UNL     1     159.666 156.950 189.602  0.00  0.00    +0.023 HD
ATOM    108  H   UNL     1     159.336 157.698 191.177  0.00  0.00    +0.023 HD
ENDBRANCH  42 105
BRANCH  17 109
ATOM    109  C   UNL     1     146.439 164.574 184.388  0.00  0.00    -0.058 C 
ATOM    110  H   UNL     1     145.641 164.126 184.989  0.00  0.00    +0.023 HD
ATOM    111  H   UNL     1     146.701 165.532 184.851  0.00  0.00    +0.023 HD
ATOM    112  H   UNL     1     146.041 164.794 183.392  0.00  0.00    +0.023 HD
ENDBRANCH  17 109
BRANCH  38 113
ATOM    113  C   UNL     1     162.391 161.545 184.586  0.00  0.00    -0.058 C 
ATOM    114  H   UNL     1     163.377 162.022 184.579  0.00  0.00    +0.023 HD
ATOM    115  H   UNL     1     161.782 162.020 183.812  0.00  0.00    +0.023 HD
ATOM    116  H   UNL     1     162.539 160.499 184.293  0.00  0.00    +0.023 HD
ENDBRANCH  38 113
BRANCH   7 117
ATOM    117  C   UNL     1     153.431 156.982 185.675  0.00  0.00    -0.040 C 
ATOM    118  H   UNL     1     154.211 156.237 185.482  0.00  0.00    +0.028 HD
ATOM    119  H   UNL     1     153.722 157.923 185.203  0.00  0.00    +0.028 HD
ATOM    120  H   UNL     1     152.527 156.619 185.181  0.00  0.00    +0.028 HD
ENDBRANCH   7 117
BRANCH   1 121
ATOM    121  C   UNL     1     157.520 161.271 189.157  0.00  0.00    +0.020 C 
ATOM    122  H   UNL     1     156.535 161.541 189.569  0.00  0.00    +0.036 HD
BRANCH 121 123
ATOM    123  C   UNL     1     158.572 162.127 189.886  0.00  0.00    -0.057 C 
ATOM    124  H   UNL     1     158.941 162.930 189.243  0.00  0.00    +0.023 HD
ATOM    125  H   UNL     1     159.430 161.539 190.216  0.00  0.00    +0.023 HD
ATOM    126  H   UNL     1     158.156 162.634 190.762  0.00  0.00    +0.023 HD
ENDBRANCH 121 123
BRANCH 121 127
ATOM    127  C   UNL     1     157.407 161.572 187.624  0.00  0.00    +0.064 C 
ATOM    128  H   UNL     1     157.814 160.726 187.078  0.00  0.00    +0.060 HD
BRANCH 127 129
ATOM    129  C   UNL     1     158.080 162.864 187.048  0.00  0.00    -0.017 C 
ATOM    130  H   UNL     1     158.903 163.141 187.720  0.00  0.00    +0.032 HD
BRANCH 129 131
ATOM    131  C   UNL     1     158.686 162.749 185.651  0.00  0.00    -0.060 C 
ATOM    132  H   UNL     1     159.337 161.874 185.577  0.00  0.00    +0.023 HD
ATOM    133  H   UNL     1     157.917 162.712 184.875  0.00  0.00    +0.023 HD
ATOM    134  H   UNL     1     159.325 163.615 185.433  0.00  0.00    +0.023 HD
ENDBRANCH 129 131
BRANCH 129 135
ATOM    135  C   UNL     1     157.076 164.054 187.029  0.00  0.00    -0.046 C 
ATOM    136  H   UNL     1     156.064 163.680 186.835  0.00  0.00    +0.027 HD
ATOM    137  H   UNL     1     157.313 164.703 186.183  0.00  0.00    +0.027 HD
BRANCH 135 138
ATOM    138  C   UNL     1     157.088 164.913 188.294  0.00  0.00    -0.026 C 
ATOM    139  H   UNL     1     157.081 165.970 188.014  0.00  0.00    +0.029 HD
ATOM    140  H   UNL     1     158.021 164.755 188.840  0.00  0.00    +0.029 HD
BRANCH 138 143
ATOM    141  C   UNL     1     153.670 163.737 189.228  0.00  0.00    +0.059 C 
ATOM    142  O   UNL     1     154.773 164.221 188.446  0.00  0.00    -0.373 OA
ATOM    143  C   UNL     1     155.900 164.626 189.229  0.00  0.00    +0.061 C 
ATOM    144  C   UNL     1     155.525 165.851 190.063  0.00  0.00    -0.000 C 
ATOM    145  C   UNL     1     154.058 165.840 190.510  0.00  0.00    +0.063 C 
ATOM    146  C   UNL     1     153.558 164.405 190.598  0.00  0.00    -0.000 C 
ATOM    147  H   UNL     1     152.772 163.990 188.650  0.00  0.00    +0.059 HD
ATOM    148  H   UNL     1     156.163 163.794 189.892  0.00  0.00    +0.060 HD
ATOM    149  H   UNL     1     156.197 165.919 190.923  0.00  0.00    +0.032 HD
ATOM    150  H   UNL     1     155.681 166.773 189.490  0.00  0.00    +0.032 HD
ATOM    151  H   UNL     1     153.463 166.399 189.775  0.00  0.00    +0.060 HD
ATOM    152  H   UNL     1     154.148 163.869 191.355  0.00  0.00    +0.032 HD
ATOM    153  H   UNL     1     152.522 164.351 190.952  0.00  0.00    +0.032 HD
BRANCH 141 154
ATOM    154  C   UNL     1     153.737 162.218 189.346  0.00  0.00    -0.039 C 
ATOM    155  H   UNL     1     154.770 161.862 189.314  0.00  0.00    +0.025 HD
ATOM    156  H   UNL     1     153.281 161.878 190.282  0.00  0.00    +0.025 HD
ATOM    157  H   UNL     1     153.213 161.743 188.512  0.00  0.00    +0.025 HD
ENDBRANCH 141 154
BRANCH 145 158
ATOM    158  O   UNL     1     153.992 166.508 191.774  0.00  0.00    -0.380 OA
BRANCH 158 159
ATOM    159  C   UNL     1     152.955 166.028 192.620  0.00  0.00    +0.037 C 
ATOM    160  H   UNL     1     153.369 165.236 193.249  0.00  0.00    +0.052 HD
ATOM    161  H   UNL     1     152.142 165.599 192.028  0.00  0.00    +0.052 HD
ATOM    162  H   UNL     1     152.571 166.822 193.268  0.00  0.00    +0.052 HD
ENDBRANCH 158 159
ENDBRANCH 145 158
ENDBRANCH 138 143
ENDBRANCH 135 138
ENDBRANCH 129 135
ENDBRANCH 127 129
BRANCH 127 163
ATOM    163  O   UNL     1     156.035 161.657 187.215  0.00  0.00    -0.391 OA
ATOM    164  H   UNL     1     155.899 162.482 186.720  0.00  0.00    +0.210 HD
ENDBRANCH 127 163
ENDBRANCH 121 127
ENDBRANCH   1 121
BRANCH  41 165
ATOM    165  O   UNL     1     160.469 157.774 187.906  0.00  0.00    -0.391 OA
ATOM    166  H   UNL     1     160.799 157.471 188.777  0.00  0.00    +0.210 HD
ENDBRANCH  41 165
BRANCH  39 167
ATOM    167  O   UNL     1     162.529 159.339 186.459  0.00  0.00    -0.391 OA
ATOM    168  H   UNL     1     162.577 158.881 187.321  0.00  0.00    +0.210 HD
ENDBRANCH  39 167
BRANCH  31 169
ATOM    169  O   UNL     1     158.930 169.017 186.081  0.00  0.00    -0.391 OA
ATOM    170  H   UNL     1     158.153 169.443 186.482  0.00  0.00    +0.210 HD
ENDBRANCH  31 169
BRANCH  22 171
ATOM    171  C   UNL     1     153.459 160.860 181.361  0.00  0.00    +0.020 C 
ATOM    172  H   UNL     1     152.977 160.420 180.481  0.00  0.00    +0.036 HD
BRANCH 171 173
ATOM    173  C   UNL     1     154.817 161.425 180.936  0.00  0.00    -0.057 C 
ATOM    174  H   UNL     1     155.512 161.449 181.777  0.00  0.00    +0.023 HD
ATOM    175  H   UNL     1     154.727 162.443 180.545  0.00  0.00    +0.023 HD
ATOM    176  H   UNL     1     155.272 160.828 180.141  0.00  0.00    +0.023 HD
ENDBRANCH 171 173
BRANCH 171 177
ATOM    177  C   UNL     1     153.612 159.721 182.403  0.00  0.00    +0.064 C 
ATOM    178  H   UNL     1     154.624 159.757 182.820  0.00  0.00    +0.060 HD
BRANCH 177 179
ATOM    179  O   UNL     1     152.694 159.981 183.467  0.00  0.00    -0.391 OA
ATOM    180  H   UNL     1     151.818 159.654 183.163  0.00  0.00    +0.210 HD
ENDBRANCH 177 179
BRANCH 177 181
ATOM    181  C   UNL     1     153.393 158.265 181.902  0.00  0.00    -0.017 C 
ATOM    182  H   UNL     1     152.594 157.817 182.508  0.00  0.00    +0.032 HD
BRANCH 181 183
ATOM    183  C   UNL     1     152.887 158.301 180.448  0.00  0.00    -0.060 C 
ATOM    184  H   UNL     1     152.555 157.312 180.115  0.00  0.00    +0.023 HD
ATOM    185  H   UNL     1     152.052 158.997 180.328  0.00  0.00    +0.023 HD
ATOM    186  H   UNL     1     153.673 158.632 179.769  0.00  0.00    +0.023 HD
ENDBRANCH 181 183
BRANCH 181 187
ATOM    187  C   UNL     1     154.647 157.367 182.003  0.00  0.00    -0.046 C 
ATOM    188  H   UNL     1     154.455 156.398 181.530  0.00  0.00    +0.027 HD
ATOM    189  H   UNL     1     154.868 157.164 183.058  0.00  0.00    +0.027 HD
BRANCH 187 190
ATOM    190  C   UNL     1     155.875 157.990 181.317  0.00  0.00    -0.026 C 
ATOM    191  H   UNL     1     155.803 159.079 181.363  0.00  0.00    +0.029 HD
ATOM    192  H   UNL     1     155.866 157.720 180.254  0.00  0.00    +0.029 HD
BRANCH 190 193
ATOM    193  C   UNL     1     157.207 157.534 181.940  0.00  0.00    +0.061 C 
ATOM    194  O   UNL     1     157.172 157.532 183.370  0.00  0.00    -0.373 OA
ATOM    195  C   UNL     1     157.120 158.827 183.974  0.00  0.00    +0.059 C 
ATOM    196  C   UNL     1     158.323 159.672 183.562  0.00  0.00    -0.000 C 
ATOM    197  C   UNL     1     158.434 159.757 182.039  0.00  0.00    +0.063 C 
ATOM    198  C   UNL     1     158.401 158.349 181.442  0.00  0.00    -0.000 C 
ATOM    199  H   UNL     1     157.369 156.492 181.639  0.00  0.00    +0.060 HD
ATOM    200  H   UNL     1     156.187 159.325 183.685  0.00  0.00    +0.059 HD
ATOM    201  H   UNL     1     159.249 159.236 183.958  0.00  0.00    +0.032 HD
ATOM    202  H   UNL     1     158.244 160.674 184.000  0.00  0.00    +0.032 HD
ATOM    203  H   UNL     1     157.600 160.341 181.631  0.00  0.00    +0.060 HD
ATOM    204  H   UNL     1     159.329 157.834 181.727  0.00  0.00    +0.032 HD
ATOM    205  H   UNL     1     158.417 158.403 180.346  0.00  0.00    +0.032 HD
BRANCH 195 206
ATOM    206  C   UNL     1     157.092 158.623 185.485  0.00  0.00    -0.039 C 
ATOM    207  H   UNL     1     158.108 158.656 185.892  0.00  0.00    +0.025 HD
ATOM    208  H   UNL     1     156.641 157.660 185.745  0.00  0.00    +0.025 HD
ATOM    209  H   UNL     1     156.528 159.423 185.978  0.00  0.00    +0.025 HD
ENDBRANCH 195 206
BRANCH 197 210
ATOM    210  O   UNL     1     159.669 160.362 181.634  0.00  0.00    -0.380 OA
BRANCH 210 211
ATOM    211  C   UNL     1     159.745 161.754 181.915  0.00  0.00    +0.037 C 
ATOM    212  H   UNL     1     160.797 162.010 182.071  0.00  0.00    +0.052 HD
ATOM    213  H   UNL     1     159.197 161.999 182.828  0.00  0.00    +0.052 HD
ATOM    214  H   UNL     1     159.365 162.341 181.074  0.00  0.00    +0.052 HD
ENDBRANCH 210 211
ENDBRANCH 197 210
ENDBRANCH 190 193
ENDBRANCH 187 190
ENDBRANCH 181 187
ENDBRANCH 177 181
ENDBRANCH 171 177
ENDBRANCH  22 171
BRANCH  20 215
ATOM    215  O   UNL     1     151.057 164.723 181.661  0.00  0.00    -0.391 OA
ATOM    216  H   UNL     1     151.817 164.553 182.247  0.00  0.00    +0.210 HD
ENDBRANCH  20 215
BRANCH  18 217
ATOM    217  O   UNL     1     149.186 165.377 183.439  0.00  0.00    -0.391 OA
ATOM    218  H   UNL     1     149.828 165.563 182.723  0.00  0.00    +0.210 HD
ENDBRANCH  18 217
BRANCH  10 219
ATOM    219  O   UNL     1     148.404 156.542 187.158  0.00  0.00    -0.391 OA
ATOM    220  H   UNL     1     148.358 157.188 186.430  0.00  0.00    +0.210 HD
ENDBRANCH  10 219
BRANCH  37 221
ATOM    221  O   UNL     1     163.887 162.524 186.648  0.00  0.00    -0.379 OA
BRANCH 221 222
ATOM    222  C   UNL     1     164.737 161.931 187.621  0.00  0.00    +0.037 C 
ATOM    223  H   UNL     1     164.748 160.852 187.444  0.00  0.00    +0.052 HD
ATOM    224  H   UNL     1     165.760 162.301 187.528  0.00  0.00    +0.052 HD
ATOM    225  H   UNL     1     164.358 162.114 188.631  0.00  0.00    +0.052 HD
ENDBRANCH 221 222
ENDBRANCH  37 221
BRANCH  16 226
ATOM    226  O   UNL     1     147.924 164.429 186.647  0.00  0.00    -0.379 OA
BRANCH 226 227
ATOM    227  C   UNL     1     148.829 165.471 186.991  0.00  0.00    +0.037 C 
ATOM    228  H   UNL     1     149.731 165.443 186.372  0.00  0.00    +0.052 HD
ATOM    229  H   UNL     1     149.099 165.388 188.050  0.00  0.00    +0.052 HD
ATOM    230  H   UNL     1     148.329 166.432 186.831  0.00  0.00    +0.052 HD
ENDBRANCH 226 227
ENDBRANCH  16 226
TORSDOF 40
ENDMDL
