MODEL 1
REMARK VINA RESULT:      -6.0      0.000      0.000
REMARK  Name = Ulapualide A_conf3
REMARK  27 active torsions:
REMARK  status: ('A' for Active; 'I' for Inactive)
REMARK    1  A    between atoms: C_1  and  C_2
REMARK    2  A    between atoms: C_9  and  O_63
REMARK    3  A    between atoms: C_14  and  C_38
REMARK    4  A    between atoms: C_15  and  C_37
REMARK    5  A    between atoms: C_16  and  O_35
REMARK    6  A    between atoms: O_35  and  C_36
REMARK    7  A    between atoms: C_38  and  C_39
REMARK    8  A    between atoms: C_39  and  C_40
REMARK    9  A    between atoms: C_39  and  O_61
REMARK   10  A    between atoms: C_40  and  C_41
REMARK   11  A    between atoms: C_40  and  C_42
REMARK   12  A    between atoms: C_42  and  C_43
REMARK   13  A    between atoms: C_43  and  C_44
REMARK   14  A    between atoms: C_44  and  C_46
REMARK   15  A    between atoms: C_46  and  C_47
REMARK   16  A    between atoms: C_46  and  C_48
REMARK   17  A    between atoms: C_48  and  C_49
REMARK   18  A    between atoms: C_48  and  O_57
REMARK   19  A    between atoms: C_49  and  C_50
REMARK   20  A    between atoms: C_49  and  C_51
REMARK   21  A    between atoms: C_52  and  N_53
REMARK   22  A    between atoms: N_53  and  C_54
REMARK   23  A    between atoms: N_53  and  C_55
REMARK   24  A    between atoms: C_55  and  O_56
REMARK   25  A    between atoms: O_57  and  C_58
REMARK   26  A    between atoms: C_58  and  C_60
REMARK   27  A    between atoms: O_61  and  C_62
REMARK                            x       y       z     vdW  Elec       q    Type
REMARK                         _______ _______ _______ _____ _____    ______ ____
ROOT
ATOM      1  C   UNL     1     153.502 166.566 187.161  0.00  0.00    +0.008 C 
ATOM      2  C   UNL     1     153.419 165.194 186.483  0.00  0.00    +0.014 C 
ATOM      3  C   UNL     1     152.090 164.489 186.704  0.00  0.00    +0.134 C 
ATOM      4  O   UNL     1     152.053 163.365 187.208  0.00  0.00    -0.297 OA
ATOM      5  C   UNL     1     150.845 165.205 186.205  0.00  0.00    +0.006 C 
ATOM      6  C   UNL     1     149.602 164.317 186.176  0.00  0.00    -0.044 C 
ATOM      7  C   UNL     1     148.460 165.022 185.442  0.00  0.00    -0.026 C 
ATOM      8  C   UNL     1     147.179 164.192 185.344  0.00  0.00    +0.065 C 
ATOM      9  C   UNL     1     146.525 163.829 186.673  0.00  0.00    +0.071 C 
ATOM     10  C   UNL     1     146.132 165.048 187.466  0.00  0.00    +0.310 C 
ATOM     11  O   UNL     1     146.893 165.678 188.186  0.00  0.00    -0.251 OA
ATOM     12  O   UNL     1     144.823 165.344 187.240  0.00  0.00    -0.461 OA
ATOM     13  C   UNL     1     144.229 166.413 188.011  0.00  0.00    +0.110 C 
ATOM     14  C   UNL     1     143.225 165.781 189.025  0.00  0.00    +0.020 C 
ATOM     15  C   UNL     1     143.884 164.862 190.107  0.00  0.00    +0.068 C 
ATOM     16  C   UNL     1     144.907 165.586 191.031  0.00  0.00    -0.008 C 
ATOM     17  C   UNL     1     144.314 165.910 192.382  0.00  0.00    -0.077 C 
ATOM     18  C   UNL     1     144.944 166.098 193.556  0.00  0.00    -0.003 C 
ATOM     19  C   UNL     1     146.350 166.081 193.768  0.00  0.00    +0.220 A 
ATOM     20  N   UNL     1     147.331 166.142 192.874  0.00  0.00    -0.205 NA
ATOM     21  C   UNL     1     148.495 166.114 193.605  0.00  0.00    +0.164 A 
ATOM     22  C   UNL     1     148.194 166.038 194.939  0.00  0.00    +0.125 A 
ATOM     23  O   UNL     1     146.845 166.023 195.063  0.00  0.00    -0.443 OA
ATOM     24  C   UNL     1     149.964 166.158 193.073  0.00  0.00    +0.250 A 
ATOM     25  N   UNL     1     150.321 166.273 191.805  0.00  0.00    -0.203 NA
ATOM     26  C   UNL     1     151.698 166.229 191.835  0.00  0.00    +0.164 A 
ATOM     27  C   UNL     1     152.129 166.104 193.130  0.00  0.00    +0.125 A 
ATOM     28  O   UNL     1     151.038 166.070 193.936  0.00  0.00    -0.442 OA
ATOM     29  C   UNL     1     152.678 166.299 190.619  0.00  0.00    +0.249 A 
ATOM     30  N   UNL     1     152.319 166.464 189.357  0.00  0.00    -0.212 NA
ATOM     31  C   UNL     1     153.501 166.437 188.651  0.00  0.00    +0.083 A 
ATOM     32  C   UNL     1     154.546 166.259 189.525  0.00  0.00    +0.116 A 
ATOM     33  O   UNL     1     154.042 166.183 190.782  0.00  0.00    -0.442 OA
ATOM     34  H   UNL     1     152.627 167.167 186.882  0.00  0.00    +0.037 HD
ATOM     35  H   UNL     1     154.218 164.534 186.843  0.00  0.00    +0.035 HD
ATOM     36  H   UNL     1     153.549 165.287 185.397  0.00  0.00    +0.035 HD
ATOM     37  H   UNL     1     151.066 165.556 185.191  0.00  0.00    +0.034 HD
ATOM     38  H   UNL     1     150.657 166.072 186.845  0.00  0.00    +0.034 HD
ATOM     39  H   UNL     1     149.314 164.072 187.204  0.00  0.00    +0.027 HD
ATOM     40  H   UNL     1     149.829 163.368 185.673  0.00  0.00    +0.027 HD
ATOM     41  H   UNL     1     148.787 165.263 184.422  0.00  0.00    +0.029 HD
ATOM     42  H   UNL     1     148.250 165.994 185.909  0.00  0.00    +0.029 HD
ATOM     43  H   UNL     1     147.412 163.262 184.810  0.00  0.00    +0.060 HD
ATOM     44  H   UNL     1     145.623 163.231 186.497  0.00  0.00    +0.040 HD
ATOM     45  H   UNL     1     147.180 163.213 187.296  0.00  0.00    +0.040 HD
ATOM     46  H   UNL     1     144.980 166.987 188.556  0.00  0.00    +0.074 HD
ATOM     47  H   UNL     1     142.565 165.123 188.441  0.00  0.00    +0.036 HD
ATOM     48  H   UNL     1     143.055 164.470 190.715  0.00  0.00    +0.060 HD
ATOM     49  H   UNL     1     145.802 164.969 191.150  0.00  0.00    +0.033 HD
ATOM     50  H   UNL     1     145.236 166.528 190.586  0.00  0.00    +0.033 HD
ATOM     51  H   UNL     1     143.230 165.998 192.416  0.00  0.00    +0.057 HD
ATOM     52  H   UNL     1     144.341 166.285 194.440  0.00  0.00    +0.067 HD
ATOM     53  H   UNL     1     148.769 165.994 195.852  0.00  0.00    +0.105 HD
ATOM     54  H   UNL     1     153.093 166.036 193.609  0.00  0.00    +0.105 HD
ATOM     55  H   UNL     1     155.619 166.164 189.430  0.00  0.00    +0.105 HD
ENDROOT
BRANCH   1  56
ATOM     56  C   UNL     1     154.726 167.330 186.647  0.00  0.00    -0.056 C 
ATOM     57  H   UNL     1     155.597 166.668 186.578  0.00  0.00    +0.024 HD
ATOM     58  H   UNL     1     154.992 168.163 187.309  0.00  0.00    +0.024 HD
ATOM     59  H   UNL     1     154.542 167.742 185.649  0.00  0.00    +0.024 HD
ENDBRANCH   1  56
BRANCH  14  60
ATOM     60  C   UNL     1     142.339 166.832 189.711  0.00  0.00    -0.057 C 
ATOM     61  H   UNL     1     141.278 166.656 189.510  0.00  0.00    +0.023 HD
ATOM     62  H   UNL     1     142.488 166.833 190.795  0.00  0.00    +0.023 HD
ATOM     63  H   UNL     1     142.592 167.842 189.371  0.00  0.00    +0.023 HD
ENDBRANCH  14  60
BRANCH  13  64
ATOM     64  C   UNL     1     143.557 167.339 186.979  0.00  0.00    +0.011 C 
ATOM     65  H   UNL     1     142.508 167.491 187.250  0.00  0.00    +0.033 HD
ATOM     66  H   UNL     1     143.598 166.852 185.995  0.00  0.00    +0.033 HD
BRANCH  64  67
ATOM     67  C   UNL     1     144.218 168.734 186.883  0.00  0.00    +0.064 C 
ATOM     68  H   UNL     1     143.911 169.352 187.738  0.00  0.00    +0.060 HD
BRANCH  67  69
ATOM     69  C   UNL     1     145.772 168.638 186.904  0.00  0.00    -0.017 C 
ATOM     70  H   UNL     1     146.007 167.735 187.486  0.00  0.00    +0.032 HD
BRANCH  69  71
ATOM     71  C   UNL     1     146.395 168.434 185.516  0.00  0.00    -0.060 C 
ATOM     72  H   UNL     1     147.132 169.218 185.306  0.00  0.00    +0.023 HD
ATOM     73  H   UNL     1     145.638 168.451 184.725  0.00  0.00    +0.023 HD
ATOM     74  H   UNL     1     146.925 167.480 185.455  0.00  0.00    +0.023 HD
ENDBRANCH  69  71
BRANCH  69  75
ATOM     75  C   UNL     1     146.438 169.820 187.657  0.00  0.00    -0.041 C 
ATOM     76  H   UNL     1     147.125 170.346 186.983  0.00  0.00    +0.027 HD
ATOM     77  H   UNL     1     145.651 170.549 187.892  0.00  0.00    +0.027 HD
BRANCH  75  78
ATOM     78  C   UNL     1     147.157 169.465 188.963  0.00  0.00    +0.007 C 
ATOM     79  H   UNL     1     148.010 170.121 189.132  0.00  0.00    +0.034 HD
ATOM     80  H   UNL     1     147.550 168.442 188.934  0.00  0.00    +0.034 HD
BRANCH  78  81
ATOM     81  C   UNL     1     146.207 169.521 190.150  0.00  0.00    +0.140 C 
ATOM     82  O   UNL     1     146.498 168.931 191.191  0.00  0.00    -0.297 OA
BRANCH  81  83
ATOM     83  C   UNL     1     144.973 170.427 190.046  0.00  0.00    +0.052 C 
ATOM     84  H   UNL     1     144.711 170.411 188.979  0.00  0.00    +0.041 HD
BRANCH  83  85
ATOM     85  C   UNL     1     143.760 169.874 190.793  0.00  0.00    -0.052 C 
ATOM     86  H   UNL     1     142.947 170.602 190.836  0.00  0.00    +0.024 HD
ATOM     87  H   UNL     1     144.023 169.620 191.824  0.00  0.00    +0.024 HD
ATOM     88  H   UNL     1     143.387 168.952 190.338  0.00  0.00    +0.024 HD
ENDBRANCH  83  85
BRANCH  83  89
ATOM     89  C   UNL     1     145.281 171.902 190.422  0.00  0.00    +0.118 C 
ATOM     90  H   UNL     1     145.454 172.499 189.516  0.00  0.00    +0.075 HD
BRANCH  89  91
ATOM     91  C   UNL     1     146.478 172.133 191.400  0.00  0.00    +0.014 C 
ATOM     92  H   UNL     1     146.593 171.224 191.992  0.00  0.00    +0.038 HD
BRANCH  91  93
ATOM     93  C   UNL     1     146.141 173.245 192.407  0.00  0.00    -0.056 C 
ATOM     94  H   UNL     1     145.093 173.190 192.728  0.00  0.00    +0.024 HD
ATOM     95  H   UNL     1     146.305 174.237 191.967  0.00  0.00    +0.024 HD
ATOM     96  H   UNL     1     146.769 173.177 193.300  0.00  0.00    +0.024 HD
ENDBRANCH  91  93
BRANCH  91  97
ATOM     97  C   UNL     1     147.767 172.495 190.709  0.00  0.00    -0.064 C 
ATOM     98  C   UNL     1     149.034 172.244 191.061  0.00  0.00    -0.010 C 
ATOM     99  H   UNL     1     147.632 173.002 189.752  0.00  0.00    +0.059 HD
ATOM    100  H   UNL     1     149.793 172.543 190.330  0.00  0.00    +0.078 HD
BRANCH  98 101
ATOM    101  N   UNL     1     149.619 171.657 192.169  0.00  0.00    -0.317 N 
BRANCH 101 102
ATOM    102  C   UNL     1     149.605 172.225 193.514  0.00  0.00    +0.002 C 
ATOM    103  H   UNL     1     150.590 172.136 193.989  0.00  0.00    +0.043 HD
ATOM    104  H   UNL     1     148.899 171.697 194.165  0.00  0.00    +0.043 HD
ATOM    105  H   UNL     1     149.303 173.275 193.484  0.00  0.00    +0.043 HD
ENDBRANCH 101 102
BRANCH 101 106
ATOM    106  C   UNL     1     150.338 170.399 192.057  0.00  0.00    +0.110 C 
ATOM    107  H   UNL     1     150.917 170.173 192.957  0.00  0.00    +0.077 HD
ATOM    108  H   UNL     1     151.030 170.405 191.208  0.00  0.00    +0.077 HD
BRANCH 106 109
ATOM    109  O   UNL     1     149.368 169.396 191.868  0.00  0.00    -0.377 OA
ATOM    110  H   UNL     1     149.137 169.183 192.788  0.00  0.00    +0.211 HD
ENDBRANCH 106 109
ENDBRANCH 101 106
ENDBRANCH  98 101
ENDBRANCH  91  97
ENDBRANCH  89  91
BRANCH  89 111
ATOM    111  O   UNL     1     144.104 172.427 191.110  0.00  0.00    -0.460 OA
BRANCH 111 112
ATOM    112  C   UNL     1     143.238 173.172 190.376  0.00  0.00    +0.304 C 
ATOM    113  O   UNL     1     143.234 173.266 189.158  0.00  0.00    -0.251 OA
BRANCH 112 114
ATOM    114  C   UNL     1     142.233 173.831 191.273  0.00  0.00    +0.033 C 
ATOM    115  H   UNL     1     141.998 174.839 190.914  0.00  0.00    +0.034 HD
ATOM    116  H   UNL     1     142.633 173.892 192.289  0.00  0.00    +0.034 HD
ATOM    117  H   UNL     1     141.305 173.250 191.265  0.00  0.00    +0.034 HD
ENDBRANCH 112 114
ENDBRANCH 111 112
ENDBRANCH  89 111
ENDBRANCH  83  89
ENDBRANCH  81  83
ENDBRANCH  78  81
ENDBRANCH  75  78
ENDBRANCH  69  75
ENDBRANCH  67  69
BRANCH  67 118
ATOM    118  O   UNL     1     143.800 169.336 185.649  0.00  0.00    -0.379 OA
BRANCH 118 119
ATOM    119  C   UNL     1     143.233 170.630 185.822  0.00  0.00    +0.037 C 
ATOM    120  H   UNL     1     142.509 170.794 185.019  0.00  0.00    +0.052 HD
ATOM    121  H   UNL     1     144.005 171.401 185.760  0.00  0.00    +0.052 HD
ATOM    122  H   UNL     1     142.705 170.707 186.772  0.00  0.00    +0.052 HD
ENDBRANCH 118 119
ENDBRANCH  67 118
ENDBRANCH  64  67
ENDBRANCH  13  64
BRANCH   8 123
ATOM    123  O   UNL     1     146.260 164.910 184.514  0.00  0.00    -0.391 OA
ATOM    124  H   UNL     1     145.683 165.438 185.094  0.00  0.00    +0.210 HD
ENDBRANCH   8 123
BRANCH  15 125
ATOM    125  O   UNL     1     144.460 163.720 189.450  0.00  0.00    -0.379 OA
BRANCH 125 126
ATOM    126  C   UNL     1     143.515 162.701 189.139  0.00  0.00    +0.037 C 
ATOM    127  H   UNL     1     143.647 161.829 189.788  0.00  0.00    +0.052 HD
ATOM    128  H   UNL     1     143.590 162.404 188.091  0.00  0.00    +0.052 HD
ATOM    129  H   UNL     1     142.515 163.104 189.311  0.00  0.00    +0.052 HD
ENDBRANCH 125 126
ENDBRANCH  15 125
TORSDOF 27
ENDMDL
MODEL 2
REMARK VINA RESULT:      -5.4      1.531      2.626
REMARK  Name = Ulapualide A_conf3
REMARK  27 active torsions:
REMARK  status: ('A' for Active; 'I' for Inactive)
REMARK    1  A    between atoms: C_1  and  C_2
REMARK    2  A    between atoms: C_9  and  O_63
REMARK    3  A    between atoms: C_14  and  C_38
REMARK    4  A    between atoms: C_15  and  C_37
REMARK    5  A    between atoms: C_16  and  O_35
REMARK    6  A    between atoms: O_35  and  C_36
REMARK    7  A    between atoms: C_38  and  C_39
REMARK    8  A    between atoms: C_39  and  C_40
REMARK    9  A    between atoms: C_39  and  O_61
REMARK   10  A    between atoms: C_40  and  C_41
REMARK   11  A    between atoms: C_40  and  C_42
REMARK   12  A    between atoms: C_42  and  C_43
REMARK   13  A    between atoms: C_43  and  C_44
REMARK   14  A    between atoms: C_44  and  C_46
REMARK   15  A    between atoms: C_46  and  C_47
REMARK   16  A    between atoms: C_46  and  C_48
REMARK   17  A    between atoms: C_48  and  C_49
REMARK   18  A    between atoms: C_48  and  O_57
REMARK   19  A    between atoms: C_49  and  C_50
REMARK   20  A    between atoms: C_49  and  C_51
REMARK   21  A    between atoms: C_52  and  N_53
REMARK   22  A    between atoms: N_53  and  C_54
REMARK   23  A    between atoms: N_53  and  C_55
REMARK   24  A    between atoms: C_55  and  O_56
REMARK   25  A    between atoms: O_57  and  C_58
REMARK   26  A    between atoms: C_58  and  C_60
REMARK   27  A    between atoms: O_61  and  C_62
REMARK                            x       y       z     vdW  Elec       q    Type
REMARK                         _______ _______ _______ _____ _____    ______ ____
ROOT
ATOM      1  C   UNL     1     153.543 166.574 187.139  0.00  0.00    +0.008 C 
ATOM      2  C   UNL     1     153.482 165.206 186.448  0.00  0.00    +0.014 C 
ATOM      3  C   UNL     1     152.159 164.485 186.649  0.00  0.00    +0.134 C 
ATOM      4  O   UNL     1     152.130 163.356 187.143  0.00  0.00    -0.297 OA
ATOM      5  C   UNL     1     150.912 165.191 186.144  0.00  0.00    +0.006 C 
ATOM      6  C   UNL     1     149.679 164.289 186.094  0.00  0.00    -0.044 C 
ATOM      7  C   UNL     1     148.537 164.988 185.355  0.00  0.00    -0.026 C 
ATOM      8  C   UNL     1     147.266 164.144 185.236  0.00  0.00    +0.065 C 
ATOM      9  C   UNL     1     146.603 163.762 186.555  0.00  0.00    +0.071 C 
ATOM     10  C   UNL     1     146.187 164.969 187.355  0.00  0.00    +0.310 C 
ATOM     11  O   UNL     1     146.934 165.602 188.088  0.00  0.00    -0.251 OA
ATOM     12  O   UNL     1     144.878 165.253 187.118  0.00  0.00    -0.461 OA
ATOM     13  C   UNL     1     144.264 166.308 187.891  0.00  0.00    +0.110 C 
ATOM     14  C   UNL     1     143.256 165.656 188.890  0.00  0.00    +0.020 C 
ATOM     15  C   UNL     1     143.915 164.734 189.970  0.00  0.00    +0.068 C 
ATOM     16  C   UNL     1     144.920 165.461 190.911  0.00  0.00    -0.008 C 
ATOM     17  C   UNL     1     144.309 165.766 192.259  0.00  0.00    -0.077 C 
ATOM     18  C   UNL     1     144.925 165.950 193.441  0.00  0.00    -0.003 C 
ATOM     19  C   UNL     1     146.329 165.948 193.667  0.00  0.00    +0.220 A 
ATOM     20  N   UNL     1     147.318 166.028 192.784  0.00  0.00    -0.205 NA
ATOM     21  C   UNL     1     148.475 166.006 193.527  0.00  0.00    +0.164 A 
ATOM     22  C   UNL     1     148.161 165.914 194.856  0.00  0.00    +0.125 A 
ATOM     23  O   UNL     1     146.811 165.883 194.967  0.00  0.00    -0.443 OA
ATOM     24  C   UNL     1     149.949 166.072 193.010  0.00  0.00    +0.250 A 
ATOM     25  N   UNL     1     150.318 166.203 191.747  0.00  0.00    -0.203 NA
ATOM     26  C   UNL     1     151.695 166.174 191.792  0.00  0.00    +0.164 A 
ATOM     27  C   UNL     1     152.114 166.042 193.089  0.00  0.00    +0.125 A 
ATOM     28  O   UNL     1     151.015 165.988 193.884  0.00  0.00    -0.442 OA
ATOM     29  C   UNL     1     152.686 166.266 190.586  0.00  0.00    +0.249 A 
ATOM     30  N   UNL     1     152.338 166.438 189.322  0.00  0.00    -0.212 NA
ATOM     31  C   UNL     1     153.528 166.431 188.628  0.00  0.00    +0.083 A 
ATOM     32  C   UNL     1     154.566 166.257 189.512  0.00  0.00    +0.116 A 
ATOM     33  O   UNL     1     154.050 166.164 190.762  0.00  0.00    -0.442 OA
ATOM     34  H   UNL     1     152.664 167.167 186.857  0.00  0.00    +0.037 HD
ATOM     35  H   UNL     1     154.285 164.553 186.810  0.00  0.00    +0.035 HD
ATOM     36  H   UNL     1     153.622 165.312 185.365  0.00  0.00    +0.035 HD
ATOM     37  H   UNL     1     151.139 165.554 185.135  0.00  0.00    +0.034 HD
ATOM     38  H   UNL     1     150.707 166.050 186.790  0.00  0.00    +0.034 HD
ATOM     39  H   UNL     1     149.383 164.032 187.117  0.00  0.00    +0.027 HD
ATOM     40  H   UNL     1     149.922 163.348 185.585  0.00  0.00    +0.027 HD
ATOM     41  H   UNL     1     148.872 165.243 184.340  0.00  0.00    +0.029 HD
ATOM     42  H   UNL     1     148.310 165.953 185.828  0.00  0.00    +0.029 HD
ATOM     43  H   UNL     1     147.515 163.222 184.695  0.00  0.00    +0.060 HD
ATOM     44  H   UNL     1     145.710 163.156 186.364  0.00  0.00    +0.040 HD
ATOM     45  H   UNL     1     147.259 163.148 187.179  0.00  0.00    +0.040 HD
ATOM     46  H   UNL     1     145.003 166.885 188.450  0.00  0.00    +0.074 HD
ATOM     47  H   UNL     1     142.611 164.995 188.292  0.00  0.00    +0.036 HD
ATOM     48  H   UNL     1     143.085 164.328 190.566  0.00  0.00    +0.060 HD
ATOM     49  H   UNL     1     145.821 164.853 191.034  0.00  0.00    +0.033 HD
ATOM     50  H   UNL     1     145.243 166.411 190.478  0.00  0.00    +0.033 HD
ATOM     51  H   UNL     1     143.224 165.842 192.282  0.00  0.00    +0.057 HD
ATOM     52  H   UNL     1     144.311 166.123 194.320  0.00  0.00    +0.067 HD
ATOM     53  H   UNL     1     148.727 165.869 195.775  0.00  0.00    +0.105 HD
ATOM     54  H   UNL     1     153.074 165.980 193.578  0.00  0.00    +0.105 HD
ATOM     55  H   UNL     1     155.641 166.175 189.427  0.00  0.00    +0.105 HD
ENDROOT
BRANCH   1  56
ATOM     56  C   UNL     1     154.763 167.356 186.645  0.00  0.00    -0.056 C 
ATOM     57  H   UNL     1     155.458 167.555 187.470  0.00  0.00    +0.024 HD
ATOM     58  H   UNL     1     154.478 168.321 186.210  0.00  0.00    +0.024 HD
ATOM     59  H   UNL     1     155.309 166.793 185.880  0.00  0.00    +0.024 HD
ENDBRANCH   1  56
BRANCH  14  60
ATOM     60  C   UNL     1     142.352 166.690 189.576  0.00  0.00    -0.057 C 
ATOM     61  H   UNL     1     142.792 167.690 189.549  0.00  0.00    +0.023 HD
ATOM     62  H   UNL     1     141.366 166.734 189.103  0.00  0.00    +0.023 HD
ATOM     63  H   UNL     1     142.172 166.420 190.622  0.00  0.00    +0.023 HD
ENDBRANCH  14  60
BRANCH  13  64
ATOM     64  C   UNL     1     143.591 167.236 186.861  0.00  0.00    +0.011 C 
ATOM     65  H   UNL     1     142.541 167.384 187.130  0.00  0.00    +0.033 HD
ATOM     66  H   UNL     1     143.636 166.752 185.876  0.00  0.00    +0.033 HD
BRANCH  64  67
ATOM     67  C   UNL     1     144.249 168.633 186.771  0.00  0.00    +0.064 C 
ATOM     68  H   UNL     1     143.976 169.231 187.651  0.00  0.00    +0.060 HD
BRANCH  67  69
ATOM     69  C   UNL     1     145.803 168.537 186.732  0.00  0.00    -0.017 C 
ATOM     70  H   UNL     1     146.054 167.568 187.189  0.00  0.00    +0.032 HD
BRANCH  69  71
ATOM     71  C   UNL     1     146.382 168.508 185.310  0.00  0.00    -0.060 C 
ATOM     72  H   UNL     1     147.145 169.286 185.189  0.00  0.00    +0.023 HD
ATOM     73  H   UNL     1     145.606 168.664 184.553  0.00  0.00    +0.023 HD
ATOM     74  H   UNL     1     146.871 167.553 185.100  0.00  0.00    +0.023 HD
ENDBRANCH  69  71
BRANCH  69  75
ATOM     75  C   UNL     1     146.496 169.617 187.604  0.00  0.00    -0.041 C 
ATOM     76  H   UNL     1     147.152 170.232 186.977  0.00  0.00    +0.027 HD
ATOM     77  H   UNL     1     145.716 170.302 187.964  0.00  0.00    +0.027 HD
BRANCH  75  78
ATOM     78  C   UNL     1     147.270 169.101 188.822  0.00  0.00    +0.007 C 
ATOM     79  H   UNL     1     148.253 169.567 188.889  0.00  0.00    +0.034 HD
ATOM     80  H   UNL     1     147.441 168.021 188.756  0.00  0.00    +0.034 HD
BRANCH  78  81
ATOM     81  C   UNL     1     146.492 169.329 190.110  0.00  0.00    +0.140 C 
ATOM     82  O   UNL     1     147.007 169.044 191.191  0.00  0.00    -0.297 OA
BRANCH  81  83
ATOM     83  C   UNL     1     145.132 170.033 190.016  0.00  0.00    +0.052 C 
ATOM     84  H   UNL     1     144.914 170.066 188.940  0.00  0.00    +0.041 HD
BRANCH  83  85
ATOM     85  C   UNL     1     143.999 169.232 190.657  0.00  0.00    -0.052 C 
ATOM     86  H   UNL     1     143.610 168.469 189.978  0.00  0.00    +0.024 HD
ATOM     87  H   UNL     1     143.163 169.887 190.921  0.00  0.00    +0.024 HD
ATOM     88  H   UNL     1     144.315 168.751 191.587  0.00  0.00    +0.024 HD
ENDBRANCH  83  85
BRANCH  83  89
ATOM     89  C   UNL     1     145.182 171.500 190.523  0.00  0.00    +0.118 C 
ATOM     90  H   UNL     1     144.963 171.540 191.599  0.00  0.00    +0.075 HD
BRANCH  89  91
ATOM     91  C   UNL     1     144.247 172.519 189.792  0.00  0.00    +0.014 C 
ATOM     92  H   UNL     1     144.776 173.473 189.756  0.00  0.00    +0.038 HD
BRANCH  91  93
ATOM     93  C   UNL     1     142.981 172.776 190.624  0.00  0.00    -0.056 C 
ATOM     94  H   UNL     1     142.937 172.118 191.501  0.00  0.00    +0.024 HD
ATOM     95  H   UNL     1     142.076 172.598 190.027  0.00  0.00    +0.024 HD
ATOM     96  H   UNL     1     142.940 173.810 190.977  0.00  0.00    +0.024 HD
ENDBRANCH  91  93
BRANCH  91  97
ATOM     97  C   UNL     1     143.828 172.080 188.413  0.00  0.00    -0.064 C 
ATOM     98  C   UNL     1     144.082 172.629 187.219  0.00  0.00    -0.010 C 
ATOM     99  H   UNL     1     143.269 171.143 188.395  0.00  0.00    +0.059 HD
ATOM    100  H   UNL     1     143.730 172.057 186.354  0.00  0.00    +0.078 HD
BRANCH  98 101
ATOM    101  N   UNL     1     144.724 173.788 186.818  0.00  0.00    -0.317 N 
BRANCH 101 102
ATOM    102  C   UNL     1     144.051 175.048 186.516  0.00  0.00    +0.002 C 
ATOM    103  H   UNL     1     144.102 175.734 187.370  0.00  0.00    +0.043 HD
ATOM    104  H   UNL     1     142.986 174.894 186.306  0.00  0.00    +0.043 HD
ATOM    105  H   UNL     1     144.495 175.520 185.636  0.00  0.00    +0.043 HD
ENDBRANCH 101 102
BRANCH 101 106
ATOM    106  C   UNL     1     146.166 173.819 186.637  0.00  0.00    +0.110 C 
ATOM    107  H   UNL     1     146.703 173.639 187.574  0.00  0.00    +0.077 HD
ATOM    108  H   UNL     1     146.501 174.783 186.240  0.00  0.00    +0.077 HD
BRANCH 106 109
ATOM    109  O   UNL     1     146.480 172.797 185.721  0.00  0.00    -0.377 OA
ATOM    110  H   UNL     1     145.865 172.098 186.002  0.00  0.00    +0.211 HD
ENDBRANCH 106 109
ENDBRANCH 101 106
ENDBRANCH  98 101
ENDBRANCH  91  97
ENDBRANCH  89  91
BRANCH  89 111
ATOM    111  O   UNL     1     146.541 171.988 190.304  0.00  0.00    -0.460 OA
BRANCH 111 112
ATOM    112  C   UNL     1     147.166 172.573 191.358  0.00  0.00    +0.304 C 
ATOM    113  O   UNL     1     146.706 172.692 192.484  0.00  0.00    -0.251 OA
BRANCH 112 114
ATOM    114  C   UNL     1     148.545 173.013 190.963  0.00  0.00    +0.033 C 
ATOM    115  H   UNL     1     148.788 173.978 191.422  0.00  0.00    +0.034 HD
ATOM    116  H   UNL     1     148.601 173.104 189.875  0.00  0.00    +0.034 HD
ATOM    117  H   UNL     1     149.274 172.280 191.321  0.00  0.00    +0.034 HD
ENDBRANCH 112 114
ENDBRANCH 111 112
ENDBRANCH  89 111
ENDBRANCH  83  89
ENDBRANCH  81  83
ENDBRANCH  78  81
ENDBRANCH  75  78
ENDBRANCH  69  75
ENDBRANCH  67  69
BRANCH  67 118
ATOM    118  O   UNL     1     143.786 169.262 185.568  0.00  0.00    -0.379 OA
BRANCH 118 119
ATOM    119  C   UNL     1     142.400 169.585 185.604  0.00  0.00    +0.037 C 
ATOM    120  H   UNL     1     141.894 169.002 184.829  0.00  0.00    +0.052 HD
ATOM    121  H   UNL     1     142.246 170.648 185.399  0.00  0.00    +0.052 HD
ATOM    122  H   UNL     1     141.958 169.324 186.565  0.00  0.00    +0.052 HD
ENDBRANCH 118 119
ENDBRANCH  67 118
ENDBRANCH  64  67
ENDBRANCH  13  64
BRANCH   8 123
ATOM    123  O   UNL     1     146.348 164.860 184.403  0.00  0.00    -0.391 OA
ATOM    124  H   UNL     1     146.017 164.246 183.724  0.00  0.00    +0.210 HD
ENDBRANCH   8 123
BRANCH  15 125
ATOM    125  O   UNL     1     144.511 163.604 189.309  0.00  0.00    -0.379 OA
BRANCH 125 126
ATOM    126  C   UNL     1     143.585 162.567 189.002  0.00  0.00    +0.037 C 
ATOM    127  H   UNL     1     143.554 161.818 189.801  0.00  0.00    +0.052 HD
ATOM    128  H   UNL     1     143.830 162.091 188.051  0.00  0.00    +0.052 HD
ATOM    129  H   UNL     1     142.593 163.013 188.918  0.00  0.00    +0.052 HD
ENDBRANCH 125 126
ENDBRANCH  15 125
TORSDOF 27
ENDMDL
MODEL 3
REMARK VINA RESULT:      -5.4      5.989     12.409
REMARK  Name = Ulapualide A_conf3
REMARK  27 active torsions:
REMARK  status: ('A' for Active; 'I' for Inactive)
REMARK    1  A    between atoms: C_1  and  C_2
REMARK    2  A    between atoms: C_9  and  O_63
REMARK    3  A    between atoms: C_14  and  C_38
REMARK    4  A    between atoms: C_15  and  C_37
REMARK    5  A    between atoms: C_16  and  O_35
REMARK    6  A    between atoms: O_35  and  C_36
REMARK    7  A    between atoms: C_38  and  C_39
REMARK    8  A    between atoms: C_39  and  C_40
REMARK    9  A    between atoms: C_39  and  O_61
REMARK   10  A    between atoms: C_40  and  C_41
REMARK   11  A    between atoms: C_40  and  C_42
REMARK   12  A    between atoms: C_42  and  C_43
REMARK   13  A    between atoms: C_43  and  C_44
REMARK   14  A    between atoms: C_44  and  C_46
REMARK   15  A    between atoms: C_46  and  C_47
REMARK   16  A    between atoms: C_46  and  C_48
REMARK   17  A    between atoms: C_48  and  C_49
REMARK   18  A    between atoms: C_48  and  O_57
REMARK   19  A    between atoms: C_49  and  C_50
REMARK   20  A    between atoms: C_49  and  C_51
REMARK   21  A    between atoms: C_52  and  N_53
REMARK   22  A    between atoms: N_53  and  C_54
REMARK   23  A    between atoms: N_53  and  C_55
REMARK   24  A    between atoms: C_55  and  O_56
REMARK   25  A    between atoms: O_57  and  C_58
REMARK   26  A    between atoms: C_58  and  C_60
REMARK   27  A    between atoms: O_61  and  C_62
REMARK                            x       y       z     vdW  Elec       q    Type
REMARK                         _______ _______ _______ _____ _____    ______ ____
ROOT
ATOM      1  C   UNL     1     133.502 170.089 194.529  0.00  0.00    +0.008 C 
ATOM      2  C   UNL     1     132.957 170.334 193.117  0.00  0.00    +0.014 C 
ATOM      3  C   UNL     1     133.962 170.994 192.186  0.00  0.00    +0.134 C 
ATOM      4  O   UNL     1     133.691 172.056 191.622  0.00  0.00    -0.297 OA
ATOM      5  C   UNL     1     135.260 170.242 191.938  0.00  0.00    +0.006 C 
ATOM      6  C   UNL     1     136.073 170.800 190.770  0.00  0.00    -0.044 C 
ATOM      7  C   UNL     1     137.228 169.858 190.427  0.00  0.00    -0.026 C 
ATOM      8  C   UNL     1     138.084 170.328 189.249  0.00  0.00    +0.065 C 
ATOM      9  C   UNL     1     138.806 171.656 189.448  0.00  0.00    +0.071 C 
ATOM     10  C   UNL     1     139.754 171.619 190.619  0.00  0.00    +0.310 C 
ATOM     11  O   UNL     1     139.422 171.799 191.781  0.00  0.00    -0.251 OA
ATOM     12  O   UNL     1     141.013 171.335 190.186  0.00  0.00    -0.461 OA
ATOM     13  C   UNL     1     142.085 171.378 191.153  0.00  0.00    +0.110 C 
ATOM     14  C   UNL     1     142.972 172.624 190.842  0.00  0.00    +0.020 C 
ATOM     15  C   UNL     1     142.249 174.000 191.024  0.00  0.00    +0.068 C 
ATOM     16  C   UNL     1     141.750 174.278 192.473  0.00  0.00    -0.008 C 
ATOM     17  C   UNL     1     142.668 175.225 193.212  0.00  0.00    -0.077 C 
ATOM     18  C   UNL     1     142.384 176.037 194.246  0.00  0.00    -0.003 C 
ATOM     19  C   UNL     1     141.134 176.142 194.915  0.00  0.00    +0.220 A 
ATOM     20  N   UNL     1     140.088 175.325 194.865  0.00  0.00    -0.205 NA
ATOM     21  C   UNL     1     139.153 175.874 195.712  0.00  0.00    +0.164 A 
ATOM     22  C   UNL     1     139.658 177.020 196.266  0.00  0.00    +0.125 A 
ATOM     23  O   UNL     1     140.909 177.204 195.781  0.00  0.00    -0.443 OA
ATOM     24  C   UNL     1     137.725 175.333 196.044  0.00  0.00    +0.250 A 
ATOM     25  N   UNL     1     137.196 174.214 195.578  0.00  0.00    -0.203 NA
ATOM     26  C   UNL     1     135.927 174.189 196.116  0.00  0.00    +0.164 A 
ATOM     27  C   UNL     1     135.738 175.292 196.906  0.00  0.00    +0.125 A 
ATOM     28  O   UNL     1     136.877 176.029 196.884  0.00  0.00    -0.442 OA
ATOM     29  C   UNL     1     134.823 173.105 195.895  0.00  0.00    +0.249 A 
ATOM     30  N   UNL     1     134.968 172.001 195.180  0.00  0.00    -0.212 NA
ATOM     31  C   UNL     1     133.743 171.377 195.250  0.00  0.00    +0.083 A 
ATOM     32  C   UNL     1     132.891 172.134 196.018  0.00  0.00    +0.116 A 
ATOM     33  O   UNL     1     133.566 173.229 196.447  0.00  0.00    -0.442 OA
ATOM     34  H   UNL     1     134.463 169.563 194.465  0.00  0.00    +0.037 HD
ATOM     35  H   UNL     1     132.060 170.964 193.151  0.00  0.00    +0.035 HD
ATOM     36  H   UNL     1     132.663 169.389 192.643  0.00  0.00    +0.035 HD
ATOM     37  H   UNL     1     134.989 169.202 191.729  0.00  0.00    +0.034 HD
ATOM     38  H   UNL     1     135.865 170.273 192.850  0.00  0.00    +0.034 HD
ATOM     39  H   UNL     1     136.446 171.794 191.038  0.00  0.00    +0.027 HD
ATOM     40  H   UNL     1     135.430 170.926 189.890  0.00  0.00    +0.027 HD
ATOM     41  H   UNL     1     136.820 168.869 190.177  0.00  0.00    +0.029 HD
ATOM     42  H   UNL     1     137.858 169.688 191.311  0.00  0.00    +0.029 HD
ATOM     43  H   UNL     1     137.435 170.417 188.368  0.00  0.00    +0.060 HD
ATOM     44  H   UNL     1     139.383 171.907 188.550  0.00  0.00    +0.040 HD
ATOM     45  H   UNL     1     138.107 172.483 189.600  0.00  0.00    +0.040 HD
ATOM     46  H   UNL     1     141.709 171.449 192.175  0.00  0.00    +0.074 HD
ATOM     47  H   UNL     1     143.228 172.565 189.773  0.00  0.00    +0.036 HD
ATOM     48  H   UNL     1     142.983 174.767 190.737  0.00  0.00    +0.060 HD
ATOM     49  H   UNL     1     140.734 174.683 192.446  0.00  0.00    +0.033 HD
ATOM     50  H   UNL     1     141.701 173.353 193.053  0.00  0.00    +0.033 HD
ATOM     51  H   UNL     1     143.696 175.260 192.859  0.00  0.00    +0.057 HD
ATOM     52  H   UNL     1     143.172 176.682 194.625  0.00  0.00    +0.067 HD
ATOM     53  H   UNL     1     139.292 177.757 196.965  0.00  0.00    +0.105 HD
ATOM     54  H   UNL     1     134.924 175.669 197.506  0.00  0.00    +0.105 HD
ATOM     55  H   UNL     1     131.859 172.053 196.327  0.00  0.00    +0.105 HD
ENDROOT
BRANCH   1  56
ATOM     56  C   UNL     1     132.557 169.161 195.300  0.00  0.00    -0.056 C 
ATOM     57  H   UNL     1     131.524 169.522 195.240  0.00  0.00    +0.024 HD
ATOM     58  H   UNL     1     132.828 169.098 196.360  0.00  0.00    +0.024 HD
ATOM     59  H   UNL     1     132.579 168.147 194.889  0.00  0.00    +0.024 HD
ENDBRANCH   1  56
BRANCH  14  60
ATOM     60  C   UNL     1     144.289 172.625 191.632  0.00  0.00    -0.057 C 
ATOM     61  H   UNL     1     145.050 172.009 191.145  0.00  0.00    +0.023 HD
ATOM     62  H   UNL     1     144.686 173.638 191.744  0.00  0.00    +0.023 HD
ATOM     63  H   UNL     1     144.137 172.246 192.649  0.00  0.00    +0.023 HD
ENDBRANCH  14  60
BRANCH  13  64
ATOM     64  C   UNL     1     142.833 170.039 190.998  0.00  0.00    +0.011 C 
ATOM     65  H   UNL     1     142.715 169.444 191.908  0.00  0.00    +0.033 HD
ATOM     66  H   UNL     1     143.901 170.252 190.854  0.00  0.00    +0.033 HD
BRANCH  64  67
ATOM     67  C   UNL     1     142.322 169.184 189.815  0.00  0.00    +0.064 C 
ATOM     68  H   UNL     1     141.455 169.673 189.348  0.00  0.00    +0.060 HD
BRANCH  67  69
ATOM     69  C   UNL     1     143.412 169.009 188.716  0.00  0.00    -0.017 C 
ATOM     70  H   UNL     1     142.913 168.499 187.879  0.00  0.00    +0.032 HD
BRANCH  69  71
ATOM     71  C   UNL     1     143.943 170.338 188.160  0.00  0.00    -0.060 C 
ATOM     72  H   UNL     1     143.386 170.629 187.262  0.00  0.00    +0.023 HD
ATOM     73  H   UNL     1     145.006 170.273 187.900  0.00  0.00    +0.023 HD
ATOM     74  H   UNL     1     143.822 171.149 188.883  0.00  0.00    +0.023 HD
ENDBRANCH  69  71
BRANCH  69  75
ATOM     75  C   UNL     1     144.570 168.077 189.160  0.00  0.00    -0.041 C 
ATOM     76  H   UNL     1     144.220 167.407 189.953  0.00  0.00    +0.027 HD
ATOM     77  H   UNL     1     144.811 167.421 188.313  0.00  0.00    +0.027 HD
BRANCH  75  78
ATOM     78  C   UNL     1     145.863 168.775 189.599  0.00  0.00    +0.007 C 
ATOM     79  H   UNL     1     145.685 169.825 189.826  0.00  0.00    +0.034 HD
ATOM     80  H   UNL     1     146.616 168.751 188.803  0.00  0.00    +0.034 HD
BRANCH  78  81
ATOM     81  C   UNL     1     146.490 168.077 190.797  0.00  0.00    +0.140 C 
ATOM     82  O   UNL     1     145.772 167.676 191.713  0.00  0.00    -0.297 OA
BRANCH  81  83
ATOM     83  C   UNL     1     147.995 167.781 190.754  0.00  0.00    +0.052 C 
ATOM     84  H   UNL     1     148.110 166.863 191.346  0.00  0.00    +0.041 HD
BRANCH  83  85
ATOM     85  C   UNL     1     148.499 167.450 189.349  0.00  0.00    -0.052 C 
ATOM     86  H   UNL     1     147.694 167.079 188.709  0.00  0.00    +0.024 HD
ATOM     87  H   UNL     1     149.267 166.672 189.387  0.00  0.00    +0.024 HD
ATOM     88  H   UNL     1     148.963 168.315 188.868  0.00  0.00    +0.024 HD
ENDBRANCH  83  85
BRANCH  83  89
ATOM     89  C   UNL     1     148.842 168.885 191.443  0.00  0.00    +0.118 C 
ATOM     90  H   UNL     1     149.351 169.502 190.690  0.00  0.00    +0.075 HD
BRANCH  89  91
ATOM     91  C   UNL     1     149.905 168.397 192.481  0.00  0.00    +0.014 C 
ATOM     92  H   UNL     1     149.606 168.784 193.456  0.00  0.00    +0.038 HD
BRANCH  91  93
ATOM     93  C   UNL     1     151.273 169.032 192.183  0.00  0.00    -0.056 C 
ATOM     94  H   UNL     1     151.883 168.386 191.540  0.00  0.00    +0.024 HD
ATOM     95  H   UNL     1     151.835 169.207 193.110  0.00  0.00    +0.024 HD
ATOM     96  H   UNL     1     151.163 169.998 191.682  0.00  0.00    +0.024 HD
ENDBRANCH  91  93
BRANCH  91  97
ATOM     97  C   UNL     1     150.075 166.901 192.521  0.00  0.00    -0.064 C 
ATOM     98  C   UNL     1     149.568 165.998 193.369  0.00  0.00    -0.010 C 
ATOM     99  H   UNL     1     150.670 166.499 191.699  0.00  0.00    +0.059 HD
ATOM    100  H   UNL     1     149.778 164.952 193.122  0.00  0.00    +0.078 HD
BRANCH  98 101
ATOM    101  N   UNL     1     148.800 166.091 194.516  0.00  0.00    -0.317 N 
BRANCH 101 102
ATOM    102  C   UNL     1     149.327 166.020 195.876  0.00  0.00    +0.002 C 
ATOM    103  H   UNL     1     149.334 167.011 196.346  0.00  0.00    +0.043 HD
ATOM    104  H   UNL     1     150.364 165.664 195.886  0.00  0.00    +0.043 HD
ATOM    105  H   UNL     1     148.735 165.328 196.481  0.00  0.00    +0.043 HD
ENDBRANCH 101 102
BRANCH 101 106
ATOM    106  C   UNL     1     147.357 166.245 194.438  0.00  0.00    +0.110 C 
ATOM    107  H   UNL     1     146.854 165.880 195.339  0.00  0.00    +0.077 HD
ATOM    108  H   UNL     1     146.940 165.706 193.581  0.00  0.00    +0.077 HD
BRANCH 106 109
ATOM    109  O   UNL     1     147.106 167.624 194.297  0.00  0.00    -0.377 OA
ATOM    110  H   UNL     1     146.389 167.617 193.640  0.00  0.00    +0.211 HD
ENDBRANCH 106 109
ENDBRANCH 101 106
ENDBRANCH  98 101
ENDBRANCH  91  97
ENDBRANCH  89  91
BRANCH  89 111
ATOM    111  O   UNL     1     147.919 169.732 192.195  0.00  0.00    -0.460 OA
BRANCH 111 112
ATOM    112  C   UNL     1     148.172 171.066 192.205  0.00  0.00    +0.304 C 
ATOM    113  O   UNL     1     148.602 171.703 193.155  0.00  0.00    -0.251 OA
BRANCH 112 114
ATOM    114  C   UNL     1     147.901 171.653 190.851  0.00  0.00    +0.033 C 
ATOM    115  H   UNL     1     148.624 171.279 190.118  0.00  0.00    +0.034 HD
ATOM    116  H   UNL     1     147.969 172.743 190.905  0.00  0.00    +0.034 HD
ATOM    117  H   UNL     1     146.903 171.352 190.520  0.00  0.00    +0.034 HD
ENDBRANCH 112 114
ENDBRANCH 111 112
ENDBRANCH  89 111
ENDBRANCH  83  89
ENDBRANCH  81  83
ENDBRANCH  78  81
ENDBRANCH  75  78
ENDBRANCH  69  75
ENDBRANCH  67  69
BRANCH  67 118
ATOM    118  O   UNL     1     141.960 167.894 190.328  0.00  0.00    -0.379 OA
BRANCH 118 119
ATOM    119  C   UNL     1     142.206 167.758 191.723  0.00  0.00    +0.037 C 
ATOM    120  H   UNL     1     142.969 166.986 191.860  0.00  0.00    +0.052 HD
ATOM    121  H   UNL     1     141.297 167.450 192.248  0.00  0.00    +0.052 HD
ATOM    122  H   UNL     1     142.585 168.686 192.150  0.00  0.00    +0.052 HD
ENDBRANCH 118 119
ENDBRANCH  67 118
ENDBRANCH  64  67
ENDBRANCH  13  64
BRANCH   8 123
ATOM    123  O   UNL     1     139.021 169.287 188.953  0.00  0.00    -0.391 OA
ATOM    124  H   UNL     1     139.900 169.694 188.856  0.00  0.00    +0.210 HD
ENDBRANCH   8 123
BRANCH  15 125
ATOM    125  O   UNL     1     141.188 174.093 190.058  0.00  0.00    -0.379 OA
BRANCH 125 126
ATOM    126  C   UNL     1     140.371 175.249 190.216  0.00  0.00    +0.037 C 
ATOM    127  H   UNL     1     140.471 175.923 189.358  0.00  0.00    +0.052 HD
ATOM    128  H   UNL     1     140.613 175.777 191.139  0.00  0.00    +0.052 HD
ATOM    129  H   UNL     1     139.331 174.922 190.270  0.00  0.00    +0.052 HD
ENDBRANCH 125 126
ENDBRANCH  15 125
TORSDOF 27
ENDMDL
MODEL 4
REMARK VINA RESULT:      -5.3      1.953      3.396
REMARK  Name = Ulapualide A_conf3
REMARK  27 active torsions:
REMARK  status: ('A' for Active; 'I' for Inactive)
REMARK    1  A    between atoms: C_1  and  C_2
REMARK    2  A    between atoms: C_9  and  O_63
REMARK    3  A    between atoms: C_14  and  C_38
REMARK    4  A    between atoms: C_15  and  C_37
REMARK    5  A    between atoms: C_16  and  O_35
REMARK    6  A    between atoms: O_35  and  C_36
REMARK    7  A    between atoms: C_38  and  C_39
REMARK    8  A    between atoms: C_39  and  C_40
REMARK    9  A    between atoms: C_39  and  O_61
REMARK   10  A    between atoms: C_40  and  C_41
REMARK   11  A    between atoms: C_40  and  C_42
REMARK   12  A    between atoms: C_42  and  C_43
REMARK   13  A    between atoms: C_43  and  C_44
REMARK   14  A    between atoms: C_44  and  C_46
REMARK   15  A    between atoms: C_46  and  C_47
REMARK   16  A    between atoms: C_46  and  C_48
REMARK   17  A    between atoms: C_48  and  C_49
REMARK   18  A    between atoms: C_48  and  O_57
REMARK   19  A    between atoms: C_49  and  C_50
REMARK   20  A    between atoms: C_49  and  C_51
REMARK   21  A    between atoms: C_52  and  N_53
REMARK   22  A    between atoms: N_53  and  C_54
REMARK   23  A    between atoms: N_53  and  C_55
REMARK   24  A    between atoms: C_55  and  O_56
REMARK   25  A    between atoms: O_57  and  C_58
REMARK   26  A    between atoms: C_58  and  C_60
REMARK   27  A    between atoms: O_61  and  C_62
REMARK                            x       y       z     vdW  Elec       q    Type
REMARK                         _______ _______ _______ _____ _____    ______ ____
ROOT
ATOM      1  C   UNL     1     153.567 166.716 187.174  0.00  0.00    +0.008 C 
ATOM      2  C   UNL     1     153.361 165.419 186.382  0.00  0.00    +0.014 C 
ATOM      3  C   UNL     1     152.010 164.766 186.631  0.00  0.00    +0.134 C 
ATOM      4  O   UNL     1     151.942 163.603 187.033  0.00  0.00    -0.297 OA
ATOM      5  C   UNL     1     150.779 165.588 186.288  0.00  0.00    +0.006 C 
ATOM      6  C   UNL     1     149.487 164.771 186.267  0.00  0.00    -0.044 C 
ATOM      7  C   UNL     1     148.343 165.600 185.682  0.00  0.00    -0.026 C 
ATOM      8  C   UNL     1     147.012 164.849 185.600  0.00  0.00    +0.065 C 
ATOM      9  C   UNL     1     146.427 164.397 186.934  0.00  0.00    +0.071 C 
ATOM     10  C   UNL     1     146.157 165.554 187.860  0.00  0.00    +0.310 C 
ATOM     11  O   UNL     1     146.999 166.074 188.578  0.00  0.00    -0.251 OA
ATOM     12  O   UNL     1     144.855 165.936 187.754  0.00  0.00    -0.461 OA
ATOM     13  C   UNL     1     144.376 166.957 188.658  0.00  0.00    +0.110 C 
ATOM     14  C   UNL     1     143.405 166.285 189.680  0.00  0.00    +0.020 C 
ATOM     15  C   UNL     1     144.080 165.234 190.624  0.00  0.00    +0.068 C 
ATOM     16  C   UNL     1     145.201 165.815 191.536  0.00  0.00    -0.008 C 
ATOM     17  C   UNL     1     144.717 166.040 192.949  0.00  0.00    -0.077 C 
ATOM     18  C   UNL     1     145.433 166.084 194.088  0.00  0.00    -0.003 C 
ATOM     19  C   UNL     1     146.846 165.975 194.198  0.00  0.00    +0.220 A 
ATOM     20  N   UNL     1     147.768 166.071 193.246  0.00  0.00    -0.205 NA
ATOM     21  C   UNL     1     148.975 165.913 193.888  0.00  0.00    +0.164 A 
ATOM     22  C   UNL     1     148.757 165.728 195.227  0.00  0.00    +0.125 A 
ATOM     23  O   UNL     1     147.421 165.770 195.444  0.00  0.00    -0.443 OA
ATOM     24  C   UNL     1     150.405 165.933 193.259  0.00  0.00    +0.250 A 
ATOM     25  N   UNL     1     150.685 166.149 191.985  0.00  0.00    -0.203 NA
ATOM     26  C   UNL     1     152.056 166.032 191.914  0.00  0.00    +0.164 A 
ATOM     27  C   UNL     1     152.563 165.764 193.158  0.00  0.00    +0.125 A 
ATOM     28  O   UNL     1     151.527 165.709 194.033  0.00  0.00    -0.442 OA
ATOM     29  C   UNL     1     152.957 166.166 190.643  0.00  0.00    +0.249 A 
ATOM     30  N   UNL     1     152.526 166.467 189.430  0.00  0.00    -0.212 NA
ATOM     31  C   UNL     1     153.656 166.447 188.642  0.00  0.00    +0.083 A 
ATOM     32  C   UNL     1     154.744 166.134 189.421  0.00  0.00    +0.116 A 
ATOM     33  O   UNL     1     154.320 165.966 190.698  0.00  0.00    -0.442 OA
ATOM     34  H   UNL     1     152.711 167.384 187.013  0.00  0.00    +0.037 HD
ATOM     35  H   UNL     1     154.142 164.689 186.623  0.00  0.00    +0.035 HD
ATOM     36  H   UNL     1     153.424 165.608 185.303  0.00  0.00    +0.035 HD
ATOM     37  H   UNL     1     150.953 166.021 185.297  0.00  0.00    +0.034 HD
ATOM     38  H   UNL     1     150.683 166.400 187.016  0.00  0.00    +0.034 HD
ATOM     39  H   UNL     1     149.254 164.446 187.286  0.00  0.00    +0.027 HD
ATOM     40  H   UNL     1     149.626 163.864 185.665  0.00  0.00    +0.027 HD
ATOM     41  H   UNL     1     148.616 165.920 184.668  0.00  0.00    +0.029 HD
ATOM     42  H   UNL     1     148.219 166.533 186.249  0.00  0.00    +0.029 HD
ATOM     43  H   UNL     1     147.156 163.964 184.968  0.00  0.00    +0.060 HD
ATOM     44  H   UNL     1     145.483 163.865 186.768  0.00  0.00    +0.040 HD
ATOM     45  H   UNL     1     147.085 163.692 187.450  0.00  0.00    +0.040 HD
ATOM     46  H   UNL     1     145.192 167.438 189.199  0.00  0.00    +0.074 HD
ATOM     47  H   UNL     1     142.672 165.719 189.086  0.00  0.00    +0.036 HD
ATOM     48  H   UNL     1     143.272 164.830 191.251  0.00  0.00    +0.060 HD
ATOM     49  H   UNL     1     146.066 165.145 191.535  0.00  0.00    +0.033 HD
ATOM     50  H   UNL     1     145.554 166.777 191.156  0.00  0.00    +0.033 HD
ATOM     51  H   UNL     1     143.645 166.180 193.067  0.00  0.00    +0.057 HD
ATOM     52  H   UNL     1     144.901 166.218 195.025  0.00  0.00    +0.067 HD
ATOM     53  H   UNL     1     149.387 165.569 196.089  0.00  0.00    +0.105 HD
ATOM     54  H   UNL     1     153.551 165.601 193.561  0.00  0.00    +0.105 HD
ATOM     55  H   UNL     1     155.801 165.994 189.242  0.00  0.00    +0.105 HD
ENDROOT
BRANCH   1  56
ATOM     56  C   UNL     1     154.796 167.462 186.646  0.00  0.00    -0.056 C 
ATOM     57  H   UNL     1     155.012 168.342 187.263  0.00  0.00    +0.024 HD
ATOM     58  H   UNL     1     154.651 167.804 185.615  0.00  0.00    +0.024 HD
ATOM     59  H   UNL     1     155.683 166.820 186.663  0.00  0.00    +0.024 HD
ENDBRANCH   1  56
BRANCH  14  60
ATOM     60  C   UNL     1     142.628 167.309 190.519  0.00  0.00    -0.057 C 
ATOM     61  H   UNL     1     143.090 168.300 190.473  0.00  0.00    +0.023 HD
ATOM     62  H   UNL     1     141.591 167.397 190.181  0.00  0.00    +0.023 HD
ATOM     63  H   UNL     1     142.578 167.000 191.568  0.00  0.00    +0.023 HD
ENDBRANCH  14  60
BRANCH  13  64
ATOM     64  C   UNL     1     143.691 168.010 187.764  0.00  0.00    +0.011 C 
ATOM     65  H   UNL     1     142.627 168.064 188.011  0.00  0.00    +0.033 HD
ATOM     66  H   UNL     1     143.793 167.696 186.717  0.00  0.00    +0.033 HD
BRANCH  64  67
ATOM     67  C   UNL     1     144.279 169.431 187.929  0.00  0.00    +0.064 C 
ATOM     68  H   UNL     1     143.533 170.092 188.391  0.00  0.00    +0.060 HD
BRANCH  67  69
ATOM     69  C   UNL     1     145.539 169.431 188.845  0.00  0.00    -0.017 C 
ATOM     70  H   UNL     1     145.585 168.426 189.290  0.00  0.00    +0.032 HD
BRANCH  69  71
ATOM     71  C   UNL     1     146.856 169.626 188.080  0.00  0.00    -0.060 C 
ATOM     72  H   UNL     1     146.828 170.553 187.496  0.00  0.00    +0.023 HD
ATOM     73  H   UNL     1     147.055 168.794 187.396  0.00  0.00    +0.023 HD
ATOM     74  H   UNL     1     147.705 169.709 188.764  0.00  0.00    +0.023 HD
ENDBRANCH  69  71
BRANCH  69  75
ATOM     75  C   UNL     1     145.421 170.422 190.032  0.00  0.00    -0.041 C 
ATOM     76  H   UNL     1     145.911 169.998 190.916  0.00  0.00    +0.027 HD
ATOM     77  H   UNL     1     146.008 171.315 189.777  0.00  0.00    +0.027 HD
BRANCH  75  78
ATOM     78  C   UNL     1     144.001 170.877 190.388  0.00  0.00    +0.007 C 
ATOM     79  H   UNL     1     143.590 170.279 191.200  0.00  0.00    +0.034 HD
ATOM     80  H   UNL     1     143.321 170.757 189.537  0.00  0.00    +0.034 HD
BRANCH  78  81
ATOM     81  C   UNL     1     143.968 172.354 190.753  0.00  0.00    +0.140 C 
ATOM     82  O   UNL     1     144.746 172.790 191.601  0.00  0.00    -0.297 OA
BRANCH  81  83
ATOM     83  C   UNL     1     143.044 173.276 189.945  0.00  0.00    +0.052 C 
ATOM     84  H   UNL     1     143.577 174.236 189.912  0.00  0.00    +0.041 HD
BRANCH  83  85
ATOM     85  C   UNL     1     142.875 172.830 188.494  0.00  0.00    -0.052 C 
ATOM     86  H   UNL     1     142.237 173.517 187.932  0.00  0.00    +0.024 HD
ATOM     87  H   UNL     1     142.407 171.842 188.445  0.00  0.00    +0.024 HD
ATOM     88  H   UNL     1     143.836 172.739 187.980  0.00  0.00    +0.024 HD
ENDBRANCH  83  85
BRANCH  83  89
ATOM     89  C   UNL     1     141.685 173.528 190.652  0.00  0.00    +0.118 C 
ATOM     90  H   UNL     1     140.891 172.937 190.175  0.00  0.00    +0.075 HD
BRANCH  89  91
ATOM     91  C   UNL     1     141.209 175.015 190.732  0.00  0.00    +0.014 C 
ATOM     92  H   UNL     1     140.435 175.066 191.501  0.00  0.00    +0.038 HD
BRANCH  91  93
ATOM     93  C   UNL     1     140.522 175.429 189.422  0.00  0.00    -0.056 C 
ATOM     94  H   UNL     1     141.256 175.680 188.646  0.00  0.00    +0.024 HD
ATOM     95  H   UNL     1     139.882 176.309 189.574  0.00  0.00    +0.024 HD
ATOM     96  H   UNL     1     139.886 174.627 189.035  0.00  0.00    +0.024 HD
ENDBRANCH  91  93
BRANCH  91  97
ATOM     97  C   UNL     1     142.318 175.995 191.017  0.00  0.00    -0.064 C 
ATOM     98  C   UNL     1     142.665 176.596 192.161  0.00  0.00    -0.010 C 
ATOM     99  H   UNL     1     142.958 176.203 190.157  0.00  0.00    +0.059 HD
ATOM    100  H   UNL     1     143.575 177.203 192.116  0.00  0.00    +0.078 HD
BRANCH  98 101
ATOM    101  N   UNL     1     142.124 176.611 193.434  0.00  0.00    -0.317 N 
BRANCH 101 102
ATOM    102  C   UNL     1     140.917 177.338 193.815  0.00  0.00    +0.002 C 
ATOM    103  H   UNL     1     140.650 177.136 194.860  0.00  0.00    +0.043 HD
ATOM    104  H   UNL     1     140.055 177.029 193.211  0.00  0.00    +0.043 HD
ATOM    105  H   UNL     1     141.053 178.412 193.669  0.00  0.00    +0.043 HD
ENDBRANCH 101 102
BRANCH 101 106
ATOM    106  C   UNL     1     142.764 175.895 194.527  0.00  0.00    +0.110 C 
ATOM    107  H   UNL     1     142.536 174.825 194.508  0.00  0.00    +0.077 HD
ATOM    108  H   UNL     1     142.452 176.287 195.501  0.00  0.00    +0.077 HD
BRANCH 106 109
ATOM    109  O   UNL     1     144.152 176.075 194.368  0.00  0.00    -0.377 OA
ATOM    110  H   UNL     1     144.205 177.040 194.268  0.00  0.00    +0.211 HD
ENDBRANCH 106 109
ENDBRANCH 101 106
ENDBRANCH  98 101
ENDBRANCH  91  97
ENDBRANCH  89  91
BRANCH  89 111
ATOM    111  O   UNL     1     141.828 173.086 192.037  0.00  0.00    -0.460 OA
BRANCH 111 112
ATOM    112  C   UNL     1     140.729 172.556 192.635  0.00  0.00    +0.304 C 
ATOM    113  O   UNL     1     140.374 172.762 193.785  0.00  0.00    -0.251 OA
BRANCH 112 114
ATOM    114  C   UNL     1     139.965 171.713 191.657  0.00  0.00    +0.033 C 
ATOM    115  H   UNL     1     138.961 171.495 192.039  0.00  0.00    +0.034 HD
ATOM    116  H   UNL     1     140.500 170.775 191.487  0.00  0.00    +0.034 HD
ATOM    117  H   UNL     1     139.852 172.261 190.717  0.00  0.00    +0.034 HD
ENDBRANCH 112 114
ENDBRANCH 111 112
ENDBRANCH  89 111
ENDBRANCH  83  89
ENDBRANCH  81  83
ENDBRANCH  78  81
ENDBRANCH  75  78
ENDBRANCH  69  75
ENDBRANCH  67  69
BRANCH  67 118
ATOM    118  O   UNL     1     144.644 169.910 186.626  0.00  0.00    -0.379 OA
BRANCH 118 119
ATOM    119  C   UNL     1     144.196 169.063 185.574  0.00  0.00    +0.037 C 
ATOM    120  H   UNL     1     144.545 169.484 184.627  0.00  0.00    +0.052 HD
ATOM    121  H   UNL     1     143.104 169.014 185.555  0.00  0.00    +0.052 HD
ATOM    122  H   UNL     1     144.611 168.060 185.670  0.00  0.00    +0.052 HD
ENDBRANCH 118 119
ENDBRANCH  67 118
ENDBRANCH  64  67
ENDBRANCH  13  64
BRANCH   8 123
ATOM    123  O   UNL     1     146.084 165.689 184.906  0.00  0.00    -0.391 OA
ATOM    124  H   UNL     1     145.225 165.232 184.882  0.00  0.00    +0.210 HD
ENDBRANCH   8 123
BRANCH  15 125
ATOM    125  O   UNL     1     144.545 164.131 189.828  0.00  0.00    -0.379 OA
BRANCH 125 126
ATOM    126  C   UNL     1     143.501 163.288 189.352  0.00  0.00    +0.037 C 
ATOM    127  H   UNL     1     143.320 163.450 188.284  0.00  0.00    +0.052 HD
ATOM    128  H   UNL     1     142.581 163.448 189.916  0.00  0.00    +0.052 HD
ATOM    129  H   UNL     1     143.814 162.252 189.490  0.00  0.00    +0.052 HD
ENDBRANCH 125 126
ENDBRANCH  15 125
TORSDOF 27
ENDMDL
MODEL 5
REMARK VINA RESULT:      -5.3      1.606      3.232
REMARK  Name = Ulapualide A_conf3
REMARK  27 active torsions:
REMARK  status: ('A' for Active; 'I' for Inactive)
REMARK    1  A    between atoms: C_1  and  C_2
REMARK    2  A    between atoms: C_9  and  O_63
REMARK    3  A    between atoms: C_14  and  C_38
REMARK    4  A    between atoms: C_15  and  C_37
REMARK    5  A    between atoms: C_16  and  O_35
REMARK    6  A    between atoms: O_35  and  C_36
REMARK    7  A    between atoms: C_38  and  C_39
REMARK    8  A    between atoms: C_39  and  C_40
REMARK    9  A    between atoms: C_39  and  O_61
REMARK   10  A    between atoms: C_40  and  C_41
REMARK   11  A    between atoms: C_40  and  C_42
REMARK   12  A    between atoms: C_42  and  C_43
REMARK   13  A    between atoms: C_43  and  C_44
REMARK   14  A    between atoms: C_44  and  C_46
REMARK   15  A    between atoms: C_46  and  C_47
REMARK   16  A    between atoms: C_46  and  C_48
REMARK   17  A    between atoms: C_48  and  C_49
REMARK   18  A    between atoms: C_48  and  O_57
REMARK   19  A    between atoms: C_49  and  C_50
REMARK   20  A    between atoms: C_49  and  C_51
REMARK   21  A    between atoms: C_52  and  N_53
REMARK   22  A    between atoms: N_53  and  C_54
REMARK   23  A    between atoms: N_53  and  C_55
REMARK   24  A    between atoms: C_55  and  O_56
REMARK   25  A    between atoms: O_57  and  C_58
REMARK   26  A    between atoms: C_58  and  C_60
REMARK   27  A    between atoms: O_61  and  C_62
REMARK                            x       y       z     vdW  Elec       q    Type
REMARK                         _______ _______ _______ _____ _____    ______ ____
ROOT
ATOM      1  C   UNL     1     153.755 166.819 187.148  0.00  0.00    +0.008 C 
ATOM      2  C   UNL     1     153.516 165.535 186.345  0.00  0.00    +0.014 C 
ATOM      3  C   UNL     1     152.161 164.898 186.610  0.00  0.00    +0.134 C 
ATOM      4  O   UNL     1     152.082 163.732 186.999  0.00  0.00    -0.297 OA
ATOM      5  C   UNL     1     150.937 165.743 186.296  0.00  0.00    +0.006 C 
ATOM      6  C   UNL     1     149.633 164.946 186.287  0.00  0.00    -0.044 C 
ATOM      7  C   UNL     1     148.491 165.798 185.730  0.00  0.00    -0.026 C 
ATOM      8  C   UNL     1     147.148 165.068 185.662  0.00  0.00    +0.065 C 
ATOM      9  C   UNL     1     146.579 164.609 187.000  0.00  0.00    +0.071 C 
ATOM     10  C   UNL     1     146.341 165.760 187.943  0.00  0.00    +0.310 C 
ATOM     11  O   UNL     1     147.202 166.259 188.653  0.00  0.00    -0.251 OA
ATOM     12  O   UNL     1     145.044 166.163 187.863  0.00  0.00    -0.461 OA
ATOM     13  C   UNL     1     144.594 167.180 188.786  0.00  0.00    +0.110 C 
ATOM     14  C   UNL     1     143.631 166.511 189.816  0.00  0.00    +0.020 C 
ATOM     15  C   UNL     1     144.305 165.441 190.738  0.00  0.00    +0.068 C 
ATOM     16  C   UNL     1     145.450 165.995 191.637  0.00  0.00    -0.008 C 
ATOM     17  C   UNL     1     144.992 166.211 193.061  0.00  0.00    -0.077 C 
ATOM     18  C   UNL     1     145.727 166.232 194.187  0.00  0.00    -0.003 C 
ATOM     19  C   UNL     1     147.140 166.101 194.273  0.00  0.00    +0.220 A 
ATOM     20  N   UNL     1     148.048 166.193 193.308  0.00  0.00    -0.205 NA
ATOM     21  C   UNL     1     149.262 166.011 193.927  0.00  0.00    +0.164 A 
ATOM     22  C   UNL     1     149.064 165.814 195.267  0.00  0.00    +0.125 A 
ATOM     23  O   UNL     1     147.732 165.874 195.508  0.00  0.00    -0.443 OA
ATOM     24  C   UNL     1     150.682 166.016 193.275  0.00  0.00    +0.250 A 
ATOM     25  N   UNL     1     150.944 166.242 191.999  0.00  0.00    -0.203 NA
ATOM     26  C   UNL     1     152.312 166.106 191.904  0.00  0.00    +0.164 A 
ATOM     27  C   UNL     1     152.835 165.816 193.137  0.00  0.00    +0.125 A 
ATOM     28  O   UNL     1     151.813 165.767 194.029  0.00  0.00    -0.442 OA
ATOM     29  C   UNL     1     153.194 166.240 190.620  0.00  0.00    +0.249 A 
ATOM     30  N   UNL     1     152.748 166.561 189.417  0.00  0.00    -0.212 NA
ATOM     31  C   UNL     1     153.864 166.533 188.611  0.00  0.00    +0.083 A 
ATOM     32  C   UNL     1     154.960 166.195 189.369  0.00  0.00    +0.116 A 
ATOM     33  O   UNL     1     154.554 166.019 190.650  0.00  0.00    -0.442 OA
ATOM     34  H   UNL     1     152.907 167.502 187.008  0.00  0.00    +0.037 HD
ATOM     35  H   UNL     1     154.291 164.790 186.565  0.00  0.00    +0.035 HD
ATOM     36  H   UNL     1     153.565 165.735 185.267  0.00  0.00    +0.035 HD
ATOM     37  H   UNL     1     151.101 166.184 185.307  0.00  0.00    +0.034 HD
ATOM     38  H   UNL     1     150.865 166.548 187.034  0.00  0.00    +0.034 HD
ATOM     39  H   UNL     1     149.411 164.613 187.306  0.00  0.00    +0.027 HD
ATOM     40  H   UNL     1     149.748 164.043 185.674  0.00  0.00    +0.027 HD
ATOM     41  H   UNL     1     148.752 166.125 184.715  0.00  0.00    +0.029 HD
ATOM     42  H   UNL     1     148.391 166.726 186.309  0.00  0.00    +0.029 HD
ATOM     43  H   UNL     1     147.268 164.187 185.018  0.00  0.00    +0.060 HD
ATOM     44  H   UNL     1     145.623 164.093 186.844  0.00  0.00    +0.040 HD
ATOM     45  H   UNL     1     147.234 163.889 187.498  0.00  0.00    +0.040 HD
ATOM     46  H   UNL     1     145.427 167.643 189.319  0.00  0.00    +0.074 HD
ATOM     47  H   UNL     1     142.879 165.963 189.228  0.00  0.00    +0.036 HD
ATOM     48  H   UNL     1     143.501 165.042 191.374  0.00  0.00    +0.060 HD
ATOM     49  H   UNL     1     146.303 165.312 191.615  0.00  0.00    +0.033 HD
ATOM     50  H   UNL     1     145.810 166.956 191.262  0.00  0.00    +0.033 HD
ATOM     51  H   UNL     1     143.924 166.366 193.198  0.00  0.00    +0.057 HD
ATOM     52  H   UNL     1     145.212 166.363 195.135  0.00  0.00    +0.067 HD
ATOM     53  H   UNL     1     149.705 165.636 196.118  0.00  0.00    +0.105 HD
ATOM     54  H   UNL     1     153.827 165.634 193.521  0.00  0.00    +0.105 HD
ATOM     55  H   UNL     1     156.012 166.042 189.171  0.00  0.00    +0.105 HD
ENDROOT
BRANCH   1  56
ATOM     56  C   UNL     1     154.987 167.553 186.608  0.00  0.00    -0.056 C 
ATOM     57  H   UNL     1     154.726 168.568 186.289  0.00  0.00    +0.024 HD
ATOM     58  H   UNL     1     155.422 167.034 185.746  0.00  0.00    +0.024 HD
ATOM     59  H   UNL     1     155.763 167.635 187.375  0.00  0.00    +0.024 HD
ENDBRANCH   1  56
BRANCH  14  60
ATOM     60  C   UNL     1     142.883 167.538 190.679  0.00  0.00    -0.057 C 
ATOM     61  H   UNL     1     143.042 167.359 191.746  0.00  0.00    +0.023 HD
ATOM     62  H   UNL     1     143.201 168.559 190.450  0.00  0.00    +0.023 HD
ATOM     63  H   UNL     1     141.806 167.507 190.481  0.00  0.00    +0.023 HD
ENDBRANCH  14  60
BRANCH  13  64
ATOM     64  C   UNL     1     143.911 168.253 187.915  0.00  0.00    +0.011 C 
ATOM     65  H   UNL     1     144.564 168.516 187.077  0.00  0.00    +0.033 HD
ATOM     66  H   UNL     1     143.750 169.149 188.529  0.00  0.00    +0.033 HD
BRANCH  64  67
ATOM     67  C   UNL     1     142.558 167.793 187.323  0.00  0.00    +0.064 C 
ATOM     68  H   UNL     1     142.131 166.993 187.944  0.00  0.00    +0.060 HD
BRANCH  67  69
ATOM     69  C   UNL     1     141.524 168.956 187.277  0.00  0.00    -0.017 C 
ATOM     70  H   UNL     1     141.146 168.979 186.244  0.00  0.00    +0.032 HD
BRANCH  69  71
ATOM     71  C   UNL     1     140.303 168.730 188.180  0.00  0.00    -0.060 C 
ATOM     72  H   UNL     1     140.052 167.664 188.228  0.00  0.00    +0.023 HD
ATOM     73  H   UNL     1     139.424 169.275 187.818  0.00  0.00    +0.023 HD
ATOM     74  H   UNL     1     140.501 169.055 189.205  0.00  0.00    +0.023 HD
ENDBRANCH  69  71
BRANCH  69  75
ATOM     75  C   UNL     1     142.167 170.345 187.531  0.00  0.00    -0.041 C 
ATOM     76  H   UNL     1     143.255 170.237 187.617  0.00  0.00    +0.027 HD
ATOM     77  H   UNL     1     142.008 170.954 186.630  0.00  0.00    +0.027 HD
BRANCH  75  78
ATOM     78  C   UNL     1     141.623 171.127 188.731  0.00  0.00    +0.007 C 
ATOM     79  H   UNL     1     141.501 170.480 189.599  0.00  0.00    +0.034 HD
ATOM     80  H   UNL     1     140.635 171.550 188.515  0.00  0.00    +0.034 HD
BRANCH  78  81
ATOM     81  C   UNL     1     142.522 172.306 189.077  0.00  0.00    +0.140 C 
ATOM     82  O   UNL     1     142.443 173.345 188.422  0.00  0.00    -0.297 OA
BRANCH  81  83
ATOM     83  C   UNL     1     143.408 172.196 190.325  0.00  0.00    +0.052 C 
ATOM     84  H   UNL     1     143.150 173.081 190.923  0.00  0.00    +0.041 HD
BRANCH  83  85
ATOM     85  C   UNL     1     143.073 170.982 191.191  0.00  0.00    -0.052 C 
ATOM     86  H   UNL     1     142.314 171.218 191.940  0.00  0.00    +0.024 HD
ATOM     87  H   UNL     1     143.960 170.632 191.728  0.00  0.00    +0.024 HD
ATOM     88  H   UNL     1     142.727 170.136 190.590  0.00  0.00    +0.024 HD
ENDBRANCH  83  85
BRANCH  83  89
ATOM     89  C   UNL     1     144.922 172.289 189.993  0.00  0.00    +0.118 C 
ATOM     90  H   UNL     1     145.192 173.320 189.725  0.00  0.00    +0.075 HD
BRANCH  89  91
ATOM     91  C   UNL     1     145.447 171.335 188.870  0.00  0.00    +0.014 C 
ATOM     92  H   UNL     1     144.644 170.632 188.643  0.00  0.00    +0.038 HD
BRANCH  91  93
ATOM     93  C   UNL     1     146.613 170.482 189.394  0.00  0.00    -0.056 C 
ATOM     94  H   UNL     1     146.347 169.418 189.427  0.00  0.00    +0.024 HD
ATOM     95  H   UNL     1     146.899 170.787 190.409  0.00  0.00    +0.024 HD
ATOM     96  H   UNL     1     147.499 170.587 188.760  0.00  0.00    +0.024 HD
ENDBRANCH  91  93
BRANCH  91  97
ATOM     97  C   UNL     1     145.905 172.053 187.627  0.00  0.00    -0.064 C 
ATOM     98  C   UNL     1     146.081 171.595 186.382  0.00  0.00    -0.010 C 
ATOM     99  H   UNL     1     146.074 173.122 187.768  0.00  0.00    +0.059 HD
ATOM    100  H   UNL     1     146.341 172.352 185.635  0.00  0.00    +0.078 HD
BRANCH  98 101
ATOM    101  N   UNL     1     145.991 170.340 185.805  0.00  0.00    -0.317 N 
BRANCH 101 102
ATOM    102  C   UNL     1     146.951 169.259 186.013  0.00  0.00    +0.002 C 
ATOM    103  H   UNL     1     147.022 168.622 185.124  0.00  0.00    +0.043 HD
ATOM    104  H   UNL     1     146.645 168.606 186.839  0.00  0.00    +0.043 HD
ATOM    105  H   UNL     1     147.936 169.663 186.259  0.00  0.00    +0.043 HD
ENDBRANCH 101 102
BRANCH 101 106
ATOM    106  C   UNL     1     144.906 170.013 184.895  0.00  0.00    +0.110 C 
ATOM    107  H   UNL     1     144.978 170.562 183.952  0.00  0.00    +0.077 HD
ATOM    108  H   UNL     1     143.929 170.235 185.338  0.00  0.00    +0.077 HD
BRANCH 106 109
ATOM    109  O   UNL     1     145.002 168.632 184.634  0.00  0.00    -0.377 OA
ATOM    110  H   UNL     1     145.723 168.615 183.982  0.00  0.00    +0.211 HD
ENDBRANCH 106 109
ENDBRANCH 101 106
ENDBRANCH  98 101
ENDBRANCH  91  97
ENDBRANCH  89  91
BRANCH  89 111
ATOM    111  O   UNL     1     145.654 171.914 191.200  0.00  0.00    -0.460 OA
BRANCH 111 112
ATOM    112  C   UNL     1     146.145 172.923 191.965  0.00  0.00    +0.304 C 
ATOM    113  O   UNL     1     145.481 173.690 192.646  0.00  0.00    -0.251 OA
BRANCH 112 114
ATOM    114  C   UNL     1     147.644 172.934 191.907  0.00  0.00    +0.033 C 
ATOM    115  H   UNL     1     148.007 173.886 191.504  0.00  0.00    +0.034 HD
ATOM    116  H   UNL     1     147.991 172.115 191.271  0.00  0.00    +0.034 HD
ATOM    117  H   UNL     1     148.046 172.825 192.919  0.00  0.00    +0.034 HD
ENDBRANCH 112 114
ENDBRANCH 111 112
ENDBRANCH  89 111
ENDBRANCH  83  89
ENDBRANCH  81  83
ENDBRANCH  78  81
ENDBRANCH  75  78
ENDBRANCH  69  75
ENDBRANCH  67  69
BRANCH  67 118
ATOM    118  O   UNL     1     142.798 167.323 185.988  0.00  0.00    -0.379 OA
BRANCH 118 119
ATOM    119  C   UNL     1     142.229 166.043 185.736  0.00  0.00    +0.037 C 
ATOM    120  H   UNL     1     141.300 166.189 185.177  0.00  0.00    +0.052 HD
ATOM    121  H   UNL     1     141.998 165.532 186.674  0.00  0.00    +0.052 HD
ATOM    122  H   UNL     1     142.894 165.427 185.131  0.00  0.00    +0.052 HD
ENDBRANCH 118 119
ENDBRANCH  67 118
ENDBRANCH  64  67
ENDBRANCH  13  64
BRANCH   8 123
ATOM    123  O   UNL     1     146.222 165.929 184.992  0.00  0.00    -0.391 OA
ATOM    124  H   UNL     1     145.394 165.434 184.860  0.00  0.00    +0.210 HD
ENDBRANCH   8 123
BRANCH  15 125
ATOM    125  O   UNL     1     144.740 164.340 189.922  0.00  0.00    -0.379 OA
BRANCH 125 126
ATOM    126  C   UNL     1     143.676 163.521 189.450  0.00  0.00    +0.037 C 
ATOM    127  H   UNL     1     143.400 162.765 190.194  0.00  0.00    +0.052 HD
ATOM    128  H   UNL     1     143.939 163.040 188.507  0.00  0.00    +0.052 HD
ATOM    129  H   UNL     1     142.808 164.160 189.279  0.00  0.00    +0.052 HD
ENDBRANCH 125 126
ENDBRANCH  15 125
TORSDOF 27
ENDMDL
MODEL 6
REMARK VINA RESULT:      -5.2      4.375     11.255
REMARK  Name = Ulapualide A_conf3
REMARK  27 active torsions:
REMARK  status: ('A' for Active; 'I' for Inactive)
REMARK    1  A    between atoms: C_1  and  C_2
REMARK    2  A    between atoms: C_9  and  O_63
REMARK    3  A    between atoms: C_14  and  C_38
REMARK    4  A    between atoms: C_15  and  C_37
REMARK    5  A    between atoms: C_16  and  O_35
REMARK    6  A    between atoms: O_35  and  C_36
REMARK    7  A    between atoms: C_38  and  C_39
REMARK    8  A    between atoms: C_39  and  C_40
REMARK    9  A    between atoms: C_39  and  O_61
REMARK   10  A    between atoms: C_40  and  C_41
REMARK   11  A    between atoms: C_40  and  C_42
REMARK   12  A    between atoms: C_42  and  C_43
REMARK   13  A    between atoms: C_43  and  C_44
REMARK   14  A    between atoms: C_44  and  C_46
REMARK   15  A    between atoms: C_46  and  C_47
REMARK   16  A    between atoms: C_46  and  C_48
REMARK   17  A    between atoms: C_48  and  C_49
REMARK   18  A    between atoms: C_48  and  O_57
REMARK   19  A    between atoms: C_49  and  C_50
REMARK   20  A    between atoms: C_49  and  C_51
REMARK   21  A    between atoms: C_52  and  N_53
REMARK   22  A    between atoms: N_53  and  C_54
REMARK   23  A    between atoms: N_53  and  C_55
REMARK   24  A    between atoms: C_55  and  O_56
REMARK   25  A    between atoms: O_57  and  C_58
REMARK   26  A    between atoms: C_58  and  C_60
REMARK   27  A    between atoms: O_61  and  C_62
REMARK                            x       y       z     vdW  Elec       q    Type
REMARK                         _______ _______ _______ _____ _____    ______ ____
ROOT
ATOM      1  C   UNL     1     148.351 172.126 191.878  0.00  0.00    +0.008 C 
ATOM      2  C   UNL     1     148.338 171.139 193.052  0.00  0.00    +0.014 C 
ATOM      3  C   UNL     1     148.744 169.727 192.659  0.00  0.00    +0.134 C 
ATOM      4  O   UNL     1     147.992 168.776 192.877  0.00  0.00    -0.297 OA
ATOM      5  C   UNL     1     150.134 169.555 192.068  0.00  0.00    +0.006 C 
ATOM      6  C   UNL     1     150.586 168.097 191.991  0.00  0.00    -0.044 C 
ATOM      7  C   UNL     1     152.068 168.018 191.621  0.00  0.00    -0.026 C 
ATOM      8  C   UNL     1     152.613 166.590 191.545  0.00  0.00    +0.065 C 
ATOM      9  C   UNL     1     151.974 165.696 190.488  0.00  0.00    +0.071 C 
ATOM     10  C   UNL     1     152.146 166.246 189.096  0.00  0.00    +0.310 C 
ATOM     11  O   UNL     1     151.424 167.096 188.596  0.00  0.00    -0.251 OA
ATOM     12  O   UNL     1     153.229 165.673 188.503  0.00  0.00    -0.461 OA
ATOM     13  C   UNL     1     153.483 165.985 187.115  0.00  0.00    +0.110 C 
ATOM     14  C   UNL     1     153.173 164.713 186.265  0.00  0.00    +0.020 C 
ATOM     15  C   UNL     1     151.672 164.270 186.279  0.00  0.00    +0.068 C 
ATOM     16  C   UNL     1     150.683 165.326 185.703  0.00  0.00    -0.008 C 
ATOM     17  C   UNL     1     150.255 164.986 184.295  0.00  0.00    -0.077 C 
ATOM     18  C   UNL     1     149.135 165.349 183.644  0.00  0.00    -0.003 C 
ATOM     19  C   UNL     1     148.109 166.197 184.144  0.00  0.00    +0.220 A 
ATOM     20  N   UNL     1     148.132 167.004 185.198  0.00  0.00    -0.205 NA
ATOM     21  C   UNL     1     146.897 167.610 185.223  0.00  0.00    +0.164 A 
ATOM     22  C   UNL     1     146.146 167.156 184.172  0.00  0.00    +0.125 A 
ATOM     23  O   UNL     1     146.895 166.269 183.474  0.00  0.00    -0.443 OA
ATOM     24  C   UNL     1     146.364 168.659 186.251  0.00  0.00    +0.250 A 
ATOM     25  N   UNL     1     147.051 169.168 187.260  0.00  0.00    -0.203 NA
ATOM     26  C   UNL     1     146.156 170.006 187.891  0.00  0.00    +0.164 A 
ATOM     27  C   UNL     1     144.957 169.986 187.228  0.00  0.00    +0.125 A 
ATOM     28  O   UNL     1     145.072 169.142 186.171  0.00  0.00    -0.442 OA
ATOM     29  C   UNL     1     146.403 170.868 189.171  0.00  0.00    +0.249 A 
ATOM     30  N   UNL     1     147.550 170.959 189.822  0.00  0.00    -0.212 NA
ATOM     31  C   UNL     1     147.286 171.799 190.881  0.00  0.00    +0.083 A 
ATOM     32  C   UNL     1     145.971 172.194 190.828  0.00  0.00    +0.116 A 
ATOM     33  O   UNL     1     145.398 171.623 189.739  0.00  0.00    -0.442 OA
ATOM     34  H   UNL     1     149.317 172.067 191.360  0.00  0.00    +0.037 HD
ATOM     35  H   UNL     1     147.343 171.093 193.508  0.00  0.00    +0.035 HD
ATOM     36  H   UNL     1     149.034 171.460 193.837  0.00  0.00    +0.035 HD
ATOM     37  H   UNL     1     150.823 170.116 192.708  0.00  0.00    +0.034 HD
ATOM     38  H   UNL     1     150.147 169.993 191.065  0.00  0.00    +0.034 HD
ATOM     39  H   UNL     1     149.970 167.571 191.254  0.00  0.00    +0.027 HD
ATOM     40  H   UNL     1     150.423 167.601 192.956  0.00  0.00    +0.027 HD
ATOM     41  H   UNL     1     152.653 168.565 192.372  0.00  0.00    +0.029 HD
ATOM     42  H   UNL     1     152.254 168.547 190.676  0.00  0.00    +0.029 HD
ATOM     43  H   UNL     1     152.476 166.117 192.525  0.00  0.00    +0.060 HD
ATOM     44  H   UNL     1     152.426 164.697 190.518  0.00  0.00    +0.040 HD
ATOM     45  H   UNL     1     150.905 165.550 190.668  0.00  0.00    +0.040 HD
ATOM     46  H   UNL     1     152.864 166.813 186.764  0.00  0.00    +0.074 HD
ATOM     47  H   UNL     1     153.730 163.886 186.730  0.00  0.00    +0.036 HD
ATOM     48  H   UNL     1     151.623 163.354 185.673  0.00  0.00    +0.060 HD
ATOM     49  H   UNL     1     149.808 165.410 186.353  0.00  0.00    +0.033 HD
ATOM     50  H   UNL     1     151.144 166.317 185.673  0.00  0.00    +0.033 HD
ATOM     51  H   UNL     1     150.941 164.359 183.729  0.00  0.00    +0.057 HD
ATOM     52  H   UNL     1     148.979 164.971 182.637  0.00  0.00    +0.067 HD
ATOM     53  H   UNL     1     145.149 167.348 183.805  0.00  0.00    +0.105 HD
ATOM     54  H   UNL     1     144.003 170.473 187.362  0.00  0.00    +0.105 HD
ATOM     55  H   UNL     1     145.332 172.819 191.436  0.00  0.00    +0.105 HD
ENDROOT
BRANCH   1  56
ATOM     56  C   UNL     1     148.234 173.562 192.401  0.00  0.00    -0.056 C 
ATOM     57  H   UNL     1     148.574 173.626 193.441  0.00  0.00    +0.024 HD
ATOM     58  H   UNL     1     147.199 173.923 192.365  0.00  0.00    +0.024 HD
ATOM     59  H   UNL     1     148.847 174.248 191.807  0.00  0.00    +0.024 HD
ENDBRANCH   1  56
BRANCH  14  60
ATOM     60  C   UNL     1     153.660 164.839 184.814  0.00  0.00    -0.057 C 
ATOM     61  H   UNL     1     154.596 165.401 184.751  0.00  0.00    +0.023 HD
ATOM     62  H   UNL     1     153.817 163.857 184.359  0.00  0.00    +0.023 HD
ATOM     63  H   UNL     1     152.913 165.343 184.192  0.00  0.00    +0.023 HD
ENDBRANCH  14  60
BRANCH  13  64
ATOM     64  C   UNL     1     154.961 166.418 187.055  0.00  0.00    +0.011 C 
ATOM     65  H   UNL     1     155.085 167.375 187.570  0.00  0.00    +0.033 HD
ATOM     66  H   UNL     1     155.244 166.546 186.002  0.00  0.00    +0.033 HD
BRANCH  64  67
ATOM     67  C   UNL     1     155.924 165.405 187.719  0.00  0.00    +0.064 C 
ATOM     68  H   UNL     1     155.484 164.399 187.693  0.00  0.00    +0.060 HD
BRANCH  67  69
ATOM     69  C   UNL     1     157.293 165.341 186.978  0.00  0.00    -0.017 C 
ATOM     70  H   UNL     1     158.054 165.237 187.766  0.00  0.00    +0.032 HD
BRANCH  69  71
ATOM     71  C   UNL     1     157.442 164.114 186.067  0.00  0.00    -0.060 C 
ATOM     72  H   UNL     1     157.812 164.411 185.079  0.00  0.00    +0.023 HD
ATOM     73  H   UNL     1     156.490 163.588 185.936  0.00  0.00    +0.023 HD
ATOM     74  H   UNL     1     158.166 163.403 186.474  0.00  0.00    +0.023 HD
ENDBRANCH  69  71
BRANCH  69  75
ATOM     75  C   UNL     1     157.632 166.653 186.223  0.00  0.00    -0.041 C 
ATOM     76  H   UNL     1     156.812 166.907 185.540  0.00  0.00    +0.027 HD
ATOM     77  H   UNL     1     157.654 167.465 186.962  0.00  0.00    +0.027 HD
BRANCH  75  78
ATOM     78  C   UNL     1     158.964 166.667 185.466  0.00  0.00    +0.007 C 
ATOM     79  H   UNL     1     158.938 165.993 184.611  0.00  0.00    +0.034 HD
ATOM     80  H   UNL     1     159.787 166.327 186.105  0.00  0.00    +0.034 HD
BRANCH  78  81
ATOM     81  C   UNL     1     159.331 168.074 185.016  0.00  0.00    +0.140 C 
ATOM     82  O   UNL     1     159.556 168.943 185.858  0.00  0.00    -0.297 OA
BRANCH  81  83
ATOM     83  C   UNL     1     159.533 168.321 183.515  0.00  0.00    +0.052 C 
ATOM     84  H   UNL     1     160.540 168.755 183.443  0.00  0.00    +0.041 HD
BRANCH  83  85
ATOM     85  C   UNL     1     159.562 167.032 182.695  0.00  0.00    -0.052 C 
ATOM     86  H   UNL     1     160.378 166.375 183.006  0.00  0.00    +0.024 HD
ATOM     87  H   UNL     1     159.710 167.252 181.634  0.00  0.00    +0.024 HD
ATOM     88  H   UNL     1     158.619 166.483 182.765  0.00  0.00    +0.024 HD
ENDBRANCH  83  85
BRANCH  83  89
ATOM     89  C   UNL     1     158.538 169.367 182.942  0.00  0.00    +0.118 C 
ATOM     90  H   UNL     1     158.231 169.085 181.926  0.00  0.00    +0.075 HD
BRANCH  89  91
ATOM     91  C   UNL     1     159.031 170.851 182.912  0.00  0.00    +0.014 C 
ATOM     92  H   UNL     1     158.791 171.251 181.926  0.00  0.00    +0.038 HD
BRANCH  91  93
ATOM     93  C   UNL     1     160.563 170.909 183.023  0.00  0.00    -0.056 C 
ATOM     94  H   UNL     1     161.012 171.363 182.132  0.00  0.00    +0.024 HD
ATOM     95  H   UNL     1     160.987 169.902 183.137  0.00  0.00    +0.024 HD
ATOM     96  H   UNL     1     160.877 171.494 183.892  0.00  0.00    +0.024 HD
ENDBRANCH  91  93
BRANCH  91  97
ATOM     97  C   UNL     1     158.444 171.709 184.003  0.00  0.00    -0.064 C 
ATOM     98  C   UNL     1     157.843 172.903 183.931  0.00  0.00    -0.010 C 
ATOM     99  H   UNL     1     158.481 171.255 184.995  0.00  0.00    +0.059 HD
ATOM    100  H   UNL     1     157.424 173.276 184.871  0.00  0.00    +0.078 HD
BRANCH  98 101
ATOM    101  N   UNL     1     157.612 173.795 182.898  0.00  0.00    -0.317 N 
BRANCH 101 102
ATOM    102  C   UNL     1     158.657 174.472 182.135  0.00  0.00    +0.002 C 
ATOM    103  H   UNL     1     158.930 173.893 181.245  0.00  0.00    +0.043 HD
ATOM    104  H   UNL     1     159.575 174.584 182.725  0.00  0.00    +0.043 HD
ATOM    105  H   UNL     1     158.331 175.472 181.840  0.00  0.00    +0.043 HD
ENDBRANCH 101 102
BRANCH 101 106
ATOM    106  C   UNL     1     156.258 174.152 182.508  0.00  0.00    +0.110 C 
ATOM    107  H   UNL     1     156.227 174.653 181.536  0.00  0.00    +0.077 HD
ATOM    108  H   UNL     1     155.789 174.816 183.242  0.00  0.00    +0.077 HD
BRANCH 106 109
ATOM    109  O   UNL     1     155.531 172.948 182.429  0.00  0.00    -0.377 OA
ATOM    110  H   UNL     1     155.367 172.891 181.473  0.00  0.00    +0.211 HD
ENDBRANCH 106 109
ENDBRANCH 101 106
ENDBRANCH  98 101
ENDBRANCH  91  97
ENDBRANCH  89  91
BRANCH  89 111
ATOM    111  O   UNL     1     157.360 169.362 183.805  0.00  0.00    -0.460 OA
BRANCH 111 112
ATOM    112  C   UNL     1     156.156 169.163 183.208  0.00  0.00    +0.304 C 
ATOM    113  O   UNL     1     155.503 170.011 182.620  0.00  0.00    -0.251 OA
BRANCH 112 114
ATOM    114  C   UNL     1     155.755 167.722 183.322  0.00  0.00    +0.033 C 
ATOM    115  H   UNL     1     155.982 167.185 182.394  0.00  0.00    +0.034 HD
ATOM    116  H   UNL     1     154.684 167.655 183.527  0.00  0.00    +0.034 HD
ATOM    117  H   UNL     1     156.326 167.250 184.127  0.00  0.00    +0.034 HD
ENDBRANCH 112 114
ENDBRANCH 111 112
ENDBRANCH  89 111
ENDBRANCH  83  89
ENDBRANCH  81  83
ENDBRANCH  78  81
ENDBRANCH  75  78
ENDBRANCH  69  75
ENDBRANCH  67  69
BRANCH  67 118
ATOM    118  O   UNL     1     156.142 165.827 189.073  0.00  0.00    -0.379 OA
BRANCH 118 119
ATOM    119  C   UNL     1     156.720 164.814 189.888  0.00  0.00    +0.037 C 
ATOM    120  H   UNL     1     156.060 163.942 189.866  0.00  0.00    +0.052 HD
ATOM    121  H   UNL     1     156.814 165.157 190.922  0.00  0.00    +0.052 HD
ATOM    122  H   UNL     1     157.695 164.509 189.508  0.00  0.00    +0.052 HD
ENDBRANCH 118 119
ENDBRANCH  67 118
ENDBRANCH  64  67
ENDBRANCH  13  64
BRANCH   8 123
ATOM    123  O   UNL     1     154.027 166.678 191.338  0.00  0.00    -0.391 OA
ATOM    124  H   UNL     1     154.188 166.703 190.378  0.00  0.00    +0.210 HD
ENDBRANCH   8 123
BRANCH  15 125
ATOM    125  O   UNL     1     151.323 163.873 187.617  0.00  0.00    -0.379 OA
BRANCH 125 126
ATOM    126  C   UNL     1     151.693 162.535 187.932  0.00  0.00    +0.037 C 
ATOM    127  H   UNL     1     152.527 162.513 188.642  0.00  0.00    +0.052 HD
ATOM    128  H   UNL     1     151.953 161.978 187.030  0.00  0.00    +0.052 HD
ATOM    129  H   UNL     1     150.836 162.049 188.400  0.00  0.00    +0.052 HD
ENDBRANCH 125 126
ENDBRANCH  15 125
TORSDOF 27
ENDMDL
MODEL 7
REMARK VINA RESULT:      -5.2      2.403      7.522
REMARK  Name = Ulapualide A_conf3
REMARK  27 active torsions:
REMARK  status: ('A' for Active; 'I' for Inactive)
REMARK    1  A    between atoms: C_1  and  C_2
REMARK    2  A    between atoms: C_9  and  O_63
REMARK    3  A    between atoms: C_14  and  C_38
REMARK    4  A    between atoms: C_15  and  C_37
REMARK    5  A    between atoms: C_16  and  O_35
REMARK    6  A    between atoms: O_35  and  C_36
REMARK    7  A    between atoms: C_38  and  C_39
REMARK    8  A    between atoms: C_39  and  C_40
REMARK    9  A    between atoms: C_39  and  O_61
REMARK   10  A    between atoms: C_40  and  C_41
REMARK   11  A    between atoms: C_40  and  C_42
REMARK   12  A    between atoms: C_42  and  C_43
REMARK   13  A    between atoms: C_43  and  C_44
REMARK   14  A    between atoms: C_44  and  C_46
REMARK   15  A    between atoms: C_46  and  C_47
REMARK   16  A    between atoms: C_46  and  C_48
REMARK   17  A    between atoms: C_48  and  C_49
REMARK   18  A    between atoms: C_48  and  O_57
REMARK   19  A    between atoms: C_49  and  C_50
REMARK   20  A    between atoms: C_49  and  C_51
REMARK   21  A    between atoms: C_52  and  N_53
REMARK   22  A    between atoms: N_53  and  C_54
REMARK   23  A    between atoms: N_53  and  C_55
REMARK   24  A    between atoms: C_55  and  O_56
REMARK   25  A    between atoms: O_57  and  C_58
REMARK   26  A    between atoms: C_58  and  C_60
REMARK   27  A    between atoms: O_61  and  C_62
REMARK                            x       y       z     vdW  Elec       q    Type
REMARK                         _______ _______ _______ _____ _____    ______ ____
ROOT
ATOM      1  C   UNL     1     150.919 166.710 192.809  0.00  0.00    +0.008 C 
ATOM      2  C   UNL     1     151.650 168.046 192.985  0.00  0.00    +0.014 C 
ATOM      3  C   UNL     1     151.133 169.144 192.069  0.00  0.00    +0.134 C 
ATOM      4  O   UNL     1     151.897 169.729 191.299  0.00  0.00    -0.297 OA
ATOM      5  C   UNL     1     149.668 169.522 192.215  0.00  0.00    +0.006 C 
ATOM      6  C   UNL     1     149.300 170.823 191.500  0.00  0.00    -0.044 C 
ATOM      7  C   UNL     1     147.888 171.263 191.889  0.00  0.00    -0.026 C 
ATOM      8  C   UNL     1     147.446 172.574 191.236  0.00  0.00    +0.065 C 
ATOM      9  C   UNL     1     147.365 172.558 189.713  0.00  0.00    +0.071 C 
ATOM     10  C   UNL     1     146.389 171.529 189.205  0.00  0.00    +0.310 C 
ATOM     11  O   UNL     1     146.653 170.344 189.052  0.00  0.00    -0.251 OA
ATOM     12  O   UNL     1     145.183 172.112 188.969  0.00  0.00    -0.461 OA
ATOM     13  C   UNL     1     144.151 171.306 188.359  0.00  0.00    +0.110 C 
ATOM     14  C   UNL     1     143.937 171.812 186.898  0.00  0.00    +0.020 C 
ATOM     15  C   UNL     1     145.170 171.616 185.954  0.00  0.00    +0.068 C 
ATOM     16  C   UNL     1     145.597 170.132 185.753  0.00  0.00    -0.008 C 
ATOM     17  C   UNL     1     145.123 169.586 184.426  0.00  0.00    -0.077 C 
ATOM     18  C   UNL     1     145.633 168.574 183.701  0.00  0.00    -0.003 C 
ATOM     19  C   UNL     1     146.731 167.747 184.066  0.00  0.00    +0.220 A 
ATOM     20  N   UNL     1     147.310 167.603 185.253  0.00  0.00    -0.205 NA
ATOM     21  C   UNL     1     148.303 166.670 185.065  0.00  0.00    +0.164 A 
ATOM     22  C   UNL     1     148.304 166.263 183.758  0.00  0.00    +0.125 A 
ATOM     23  O   UNL     1     147.314 166.925 183.112  0.00  0.00    -0.443 OA
ATOM     24  C   UNL     1     149.309 166.113 186.124  0.00  0.00    +0.250 A 
ATOM     25  N   UNL     1     149.334 166.433 187.407  0.00  0.00    -0.203 NA
ATOM     26  C   UNL     1     150.403 165.725 187.911  0.00  0.00    +0.164 A 
ATOM     27  C   UNL     1     150.981 164.985 186.914  0.00  0.00    +0.125 A 
ATOM     28  O   UNL     1     150.290 165.208 185.768  0.00  0.00    -0.442 OA
ATOM     29  C   UNL     1     150.933 165.725 189.382  0.00  0.00    +0.249 A 
ATOM     30  N   UNL     1     150.388 166.384 190.391  0.00  0.00    -0.212 NA
ATOM     31  C   UNL     1     151.201 166.109 191.468  0.00  0.00    +0.083 A 
ATOM     32  C   UNL     1     152.219 165.279 191.066  0.00  0.00    +0.116 A 
ATOM     33  O   UNL     1     152.057 165.014 189.746  0.00  0.00    -0.442 OA
ATOM     34  H   UNL     1     149.836 166.873 192.875  0.00  0.00    +0.037 HD
ATOM     35  H   UNL     1     152.725 167.927 192.801  0.00  0.00    +0.035 HD
ATOM     36  H   UNL     1     151.543 168.416 194.012  0.00  0.00    +0.035 HD
ATOM     37  H   UNL     1     149.473 169.628 193.287  0.00  0.00    +0.034 HD
ATOM     38  H   UNL     1     149.053 168.706 191.823  0.00  0.00    +0.034 HD
ATOM     39  H   UNL     1     149.379 170.670 190.419  0.00  0.00    +0.027 HD
ATOM     40  H   UNL     1     150.016 171.612 191.764  0.00  0.00    +0.027 HD
ATOM     41  H   UNL     1     147.843 171.393 192.978  0.00  0.00    +0.029 HD
ATOM     42  H   UNL     1     147.166 170.465 191.669  0.00  0.00    +0.029 HD
ATOM     43  H   UNL     1     148.149 173.361 191.536  0.00  0.00    +0.060 HD
ATOM     44  H   UNL     1     147.048 173.540 189.344  0.00  0.00    +0.040 HD
ATOM     45  H   UNL     1     148.339 172.362 189.255  0.00  0.00    +0.040 HD
ATOM     46  H   UNL     1     144.418 170.248 188.339  0.00  0.00    +0.074 HD
ATOM     47  H   UNL     1     143.786 172.900 186.965  0.00  0.00    +0.036 HD
ATOM     48  H   UNL     1     144.880 172.048 184.986  0.00  0.00    +0.060 HD
ATOM     49  H   UNL     1     146.685 170.044 185.829  0.00  0.00    +0.033 HD
ATOM     50  H   UNL     1     145.178 169.496 186.536  0.00  0.00    +0.033 HD
ATOM     51  H   UNL     1     144.254 170.078 183.994  0.00  0.00    +0.057 HD
ATOM     52  H   UNL     1     145.176 168.347 182.742  0.00  0.00    +0.067 HD
ATOM     53  H   UNL     1     148.886 165.566 183.174  0.00  0.00    +0.105 HD
ATOM     54  H   UNL     1     151.816 164.303 186.856  0.00  0.00    +0.105 HD
ATOM     55  H   UNL     1     153.075 164.826 191.547  0.00  0.00    +0.105 HD
ENDROOT
BRANCH   1  56
ATOM     56  C   UNL     1     151.279 165.761 193.956  0.00  0.00    -0.056 C 
ATOM     57  H   UNL     1     151.306 166.298 194.911  0.00  0.00    +0.024 HD
ATOM     58  H   UNL     1     152.261 165.298 193.806  0.00  0.00    +0.024 HD
ATOM     59  H   UNL     1     150.542 164.957 194.048  0.00  0.00    +0.024 HD
ENDBRANCH   1  56
BRANCH  14  60
ATOM     60  C   UNL     1     142.685 171.212 186.242  0.00  0.00    -0.057 C 
ATOM     61  H   UNL     1     142.316 170.345 186.797  0.00  0.00    +0.023 HD
ATOM     62  H   UNL     1     141.877 171.947 186.176  0.00  0.00    +0.023 HD
ATOM     63  H   UNL     1     142.893 170.900 185.213  0.00  0.00    +0.023 HD
ENDBRANCH  14  60
BRANCH  13  64
ATOM     64  C   UNL     1     142.909 171.481 189.256  0.00  0.00    +0.011 C 
ATOM     65  H   UNL     1     142.118 171.987 188.694  0.00  0.00    +0.033 HD
ATOM     66  H   UNL     1     143.185 172.107 190.114  0.00  0.00    +0.033 HD
BRANCH  64  67
ATOM     67  C   UNL     1     142.329 170.142 189.770  0.00  0.00    +0.064 C 
ATOM     68  H   UNL     1     143.091 169.354 189.701  0.00  0.00    +0.060 HD
BRANCH  67  69
ATOM     69  C   UNL     1     141.886 170.240 191.260  0.00  0.00    -0.017 C 
ATOM     70  H   UNL     1     142.314 171.180 191.637  0.00  0.00    +0.032 HD
BRANCH  69  71
ATOM     71  C   UNL     1     140.366 170.352 191.444  0.00  0.00    -0.060 C 
ATOM     72  H   UNL     1     139.901 170.783 190.550  0.00  0.00    +0.023 HD
ATOM     73  H   UNL     1     140.106 170.977 192.305  0.00  0.00    +0.023 HD
ATOM     74  H   UNL     1     139.910 169.368 191.592  0.00  0.00    +0.023 HD
ENDBRANCH  69  71
BRANCH  69  75
ATOM     75  C   UNL     1     142.482 169.111 192.141  0.00  0.00    -0.041 C 
ATOM     76  H   UNL     1     143.576 169.131 192.075  0.00  0.00    +0.027 HD
ATOM     77  H   UNL     1     142.252 169.351 193.188  0.00  0.00    +0.027 HD
BRANCH  75  78
ATOM     78  C   UNL     1     141.967 167.696 191.857  0.00  0.00    +0.007 C 
ATOM     79  H   UNL     1     142.058 167.450 190.800  0.00  0.00    +0.034 HD
ATOM     80  H   UNL     1     140.905 167.601 192.110  0.00  0.00    +0.034 HD
BRANCH  78  81
ATOM     81  C   UNL     1     142.697 166.661 192.702  0.00  0.00    +0.140 C 
ATOM     82  O   UNL     1     142.491 166.609 193.914  0.00  0.00    -0.297 OA
BRANCH  81  83
ATOM     83  C   UNL     1     143.574 165.629 191.981  0.00  0.00    +0.052 C 
ATOM     84  H   UNL     1     143.734 164.837 192.726  0.00  0.00    +0.041 HD
BRANCH  83  85
ATOM     85  C   UNL     1     142.868 164.967 190.798  0.00  0.00    -0.052 C 
ATOM     86  H   UNL     1     143.312 165.266 189.845  0.00  0.00    +0.024 HD
ATOM     87  H   UNL     1     141.812 165.255 190.767  0.00  0.00    +0.024 HD
ATOM     88  H   UNL     1     142.886 163.876 190.871  0.00  0.00    +0.024 HD
ENDBRANCH  83  85
BRANCH  83  89
ATOM     89  C   UNL     1     144.970 166.192 191.599  0.00  0.00    +0.118 C 
ATOM     90  H   UNL     1     145.003 167.277 191.767  0.00  0.00    +0.075 HD
BRANCH  89  91
ATOM     91  C   UNL     1     145.461 165.904 190.143  0.00  0.00    +0.014 C 
ATOM     92  H   UNL     1     145.019 164.955 189.835  0.00  0.00    +0.038 HD
BRANCH  91  93
ATOM     93  C   UNL     1     146.981 165.680 190.124  0.00  0.00    -0.056 C 
ATOM     94  H   UNL     1     147.527 166.625 190.240  0.00  0.00    +0.024 HD
ATOM     95  H   UNL     1     147.300 165.223 189.178  0.00  0.00    +0.024 HD
ATOM     96  H   UNL     1     147.295 165.011 190.931  0.00  0.00    +0.024 HD
ENDBRANCH  91  93
BRANCH  91  97
ATOM     97  C   UNL     1     145.130 166.998 189.162  0.00  0.00    -0.064 C 
ATOM     98  C   UNL     1     144.599 166.925 187.935  0.00  0.00    -0.010 C 
ATOM     99  H   UNL     1     145.317 168.005 189.539  0.00  0.00    +0.059 HD
ATOM    100  H   UNL     1     144.377 167.887 187.461  0.00  0.00    +0.078 HD
BRANCH  98 101
ATOM    101  N   UNL     1     144.241 165.874 187.111  0.00  0.00    -0.317 N 
BRANCH 101 102
ATOM    102  C   UNL     1     145.186 165.001 186.420  0.00  0.00    +0.002 C 
ATOM    103  H   UNL     1     145.643 165.515 185.566  0.00  0.00    +0.043 HD
ATOM    104  H   UNL     1     144.687 164.112 186.015  0.00  0.00    +0.043 HD
ATOM    105  H   UNL     1     145.964 164.658 187.106  0.00  0.00    +0.043 HD
ENDBRANCH 101 102
BRANCH 101 106
ATOM    106  C   UNL     1     142.843 165.573 186.847  0.00  0.00    +0.110 C 
ATOM    107  H   UNL     1     142.307 166.434 186.435  0.00  0.00    +0.077 HD
ATOM    108  H   UNL     1     142.320 165.259 187.757  0.00  0.00    +0.077 HD
BRANCH 106 109
ATOM    109  O   UNL     1     142.826 164.525 185.907  0.00  0.00    -0.377 OA
ATOM    110  H   UNL     1     142.299 164.922 185.194  0.00  0.00    +0.211 HD
ENDBRANCH 106 109
ENDBRANCH 101 106
ENDBRANCH  98 101
ENDBRANCH  91  97
ENDBRANCH  89  91
BRANCH  89 111
ATOM    111  O   UNL     1     145.949 165.554 192.477  0.00  0.00    -0.460 OA
BRANCH 111 112
ATOM    112  C   UNL     1     146.160 166.129 193.689  0.00  0.00    +0.304 C 
ATOM    113  O   UNL     1     146.457 167.298 193.882  0.00  0.00    -0.251 OA
BRANCH 112 114
ATOM    114  C   UNL     1     145.920 165.131 194.783  0.00  0.00    +0.033 C 
ATOM    115  H   UNL     1     144.862 165.117 195.066  0.00  0.00    +0.034 HD
ATOM    116  H   UNL     1     146.526 165.392 195.655  0.00  0.00    +0.034 HD
ATOM    117  H   UNL     1     146.182 164.131 194.424  0.00  0.00    +0.034 HD
ENDBRANCH 112 114
ENDBRANCH 111 112
ENDBRANCH  89 111
ENDBRANCH  83  89
ENDBRANCH  81  83
ENDBRANCH  78  81
ENDBRANCH  75  78
ENDBRANCH  69  75
ENDBRANCH  67  69
BRANCH  67 118
ATOM    118  O   UNL     1     141.190 169.816 188.960  0.00  0.00    -0.379 OA
BRANCH 118 119
ATOM    119  C   UNL     1     141.280 168.528 188.362  0.00  0.00    +0.037 C 
ATOM    120  H   UNL     1     142.153 168.019 188.781  0.00  0.00    +0.052 HD
ATOM    121  H   UNL     1     141.409 168.613 187.280  0.00  0.00    +0.052 HD
ATOM    122  H   UNL     1     140.400 167.925 188.585  0.00  0.00    +0.052 HD
ENDBRANCH 118 119
ENDBRANCH  67 118
ENDBRANCH  64  67
ENDBRANCH  13  64
BRANCH   8 123
ATOM    123  O   UNL     1     146.180 172.932 191.801  0.00  0.00    -0.391 OA
ATOM    124  H   UNL     1     145.999 173.859 191.566  0.00  0.00    +0.210 HD
ENDBRANCH   8 123
BRANCH  15 125
ATOM    125  O   UNL     1     146.252 172.431 186.437  0.00  0.00    -0.379 OA
BRANCH 125 126
ATOM    126  C   UNL     1     146.075 173.822 186.191  0.00  0.00    +0.037 C 
ATOM    127  H   UNL     1     145.608 173.993 185.215  0.00  0.00    +0.052 HD
ATOM    128  H   UNL     1     147.025 174.355 186.251  0.00  0.00    +0.052 HD
ATOM    129  H   UNL     1     145.409 174.219 186.959  0.00  0.00    +0.052 HD
ENDBRANCH 125 126
ENDBRANCH  15 125
TORSDOF 27
ENDMDL
MODEL 8
REMARK VINA RESULT:      -5.2      4.291     11.271
REMARK  Name = Ulapualide A_conf3
REMARK  27 active torsions:
REMARK  status: ('A' for Active; 'I' for Inactive)
REMARK    1  A    between atoms: C_1  and  C_2
REMARK    2  A    between atoms: C_9  and  O_63
REMARK    3  A    between atoms: C_14  and  C_38
REMARK    4  A    between atoms: C_15  and  C_37
REMARK    5  A    between atoms: C_16  and  O_35
REMARK    6  A    between atoms: O_35  and  C_36
REMARK    7  A    between atoms: C_38  and  C_39
REMARK    8  A    between atoms: C_39  and  C_40
REMARK    9  A    between atoms: C_39  and  O_61
REMARK   10  A    between atoms: C_40  and  C_41
REMARK   11  A    between atoms: C_40  and  C_42
REMARK   12  A    between atoms: C_42  and  C_43
REMARK   13  A    between atoms: C_43  and  C_44
REMARK   14  A    between atoms: C_44  and  C_46
REMARK   15  A    between atoms: C_46  and  C_47
REMARK   16  A    between atoms: C_46  and  C_48
REMARK   17  A    between atoms: C_48  and  C_49
REMARK   18  A    between atoms: C_48  and  O_57
REMARK   19  A    between atoms: C_49  and  C_50
REMARK   20  A    between atoms: C_49  and  C_51
REMARK   21  A    between atoms: C_52  and  N_53
REMARK   22  A    between atoms: N_53  and  C_54
REMARK   23  A    between atoms: N_53  and  C_55
REMARK   24  A    between atoms: C_55  and  O_56
REMARK   25  A    between atoms: O_57  and  C_58
REMARK   26  A    between atoms: C_58  and  C_60
REMARK   27  A    between atoms: O_61  and  C_62
REMARK                            x       y       z     vdW  Elec       q    Type
REMARK                         _______ _______ _______ _____ _____    ______ ____
ROOT
ATOM      1  C   UNL     1     148.359 172.147 191.850  0.00  0.00    +0.008 C 
ATOM      2  C   UNL     1     148.332 171.188 193.046  0.00  0.00    +0.014 C 
ATOM      3  C   UNL     1     148.741 169.767 192.692  0.00  0.00    +0.134 C 
ATOM      4  O   UNL     1     147.985 168.822 192.923  0.00  0.00    -0.297 OA
ATOM      5  C   UNL     1     150.137 169.580 192.122  0.00  0.00    +0.006 C 
ATOM      6  C   UNL     1     150.590 168.120 192.085  0.00  0.00    -0.044 C 
ATOM      7  C   UNL     1     152.076 168.032 191.734  0.00  0.00    -0.026 C 
ATOM      8  C   UNL     1     152.621 166.603 191.698  0.00  0.00    +0.065 C 
ATOM      9  C   UNL     1     151.993 165.684 190.655  0.00  0.00    +0.071 C 
ATOM     10  C   UNL     1     152.183 166.201 189.253  0.00  0.00    +0.310 C 
ATOM     11  O   UNL     1     151.467 167.039 188.724  0.00  0.00    -0.251 OA
ATOM     12  O   UNL     1     153.272 165.613 188.686  0.00  0.00    -0.461 OA
ATOM     13  C   UNL     1     153.542 165.893 187.295  0.00  0.00    +0.110 C 
ATOM     14  C   UNL     1     153.242 164.601 186.472  0.00  0.00    +0.020 C 
ATOM     15  C   UNL     1     151.741 164.159 186.479  0.00  0.00    +0.068 C 
ATOM     16  C   UNL     1     150.759 165.202 185.866  0.00  0.00    -0.008 C 
ATOM     17  C   UNL     1     150.348 164.828 184.461  0.00  0.00    -0.077 C 
ATOM     18  C   UNL     1     149.236 165.176 183.789  0.00  0.00    -0.003 C 
ATOM     19  C   UNL     1     148.204 166.036 184.256  0.00  0.00    +0.220 A 
ATOM     20  N   UNL     1     148.215 166.868 185.291  0.00  0.00    -0.205 NA
ATOM     21  C   UNL     1     146.981 167.475 185.287  0.00  0.00    +0.164 A 
ATOM     22  C   UNL     1     146.242 166.996 184.238  0.00  0.00    +0.125 A 
ATOM     23  O   UNL     1     146.999 166.092 183.571  0.00  0.00    -0.443 OA
ATOM     24  C   UNL     1     146.436 168.548 186.284  0.00  0.00    +0.250 A 
ATOM     25  N   UNL     1     147.112 169.081 187.288  0.00  0.00    -0.203 NA
ATOM     26  C   UNL     1     146.210 169.933 187.888  0.00  0.00    +0.164 A 
ATOM     27  C   UNL     1     145.019 169.899 187.212  0.00  0.00    +0.125 A 
ATOM     28  O   UNL     1     145.146 169.030 186.177  0.00  0.00    -0.442 OA
ATOM     29  C   UNL     1     146.442 170.826 189.150  0.00  0.00    +0.249 A 
ATOM     30  N   UNL     1     147.582 170.932 189.813  0.00  0.00    -0.212 NA
ATOM     31  C   UNL     1     147.306 171.797 190.848  0.00  0.00    +0.083 A 
ATOM     32  C   UNL     1     145.991 172.191 190.770  0.00  0.00    +0.116 A 
ATOM     33  O   UNL     1     145.431 171.594 189.689  0.00  0.00    -0.442 OA
ATOM     34  H   UNL     1     149.331 172.075 191.345  0.00  0.00    +0.037 HD
ATOM     35  H   UNL     1     147.331 171.153 193.492  0.00  0.00    +0.035 HD
ATOM     36  H   UNL     1     149.018 171.527 193.832  0.00  0.00    +0.035 HD
ATOM     37  H   UNL     1     150.819 170.156 192.757  0.00  0.00    +0.034 HD
ATOM     38  H   UNL     1     150.163 169.994 191.109  0.00  0.00    +0.034 HD
ATOM     39  H   UNL     1     149.982 167.577 191.353  0.00  0.00    +0.027 HD
ATOM     40  H   UNL     1     150.415 167.647 193.059  0.00  0.00    +0.027 HD
ATOM     41  H   UNL     1     152.652 168.597 192.479  0.00  0.00    +0.029 HD
ATOM     42  H   UNL     1     152.273 168.539 190.780  0.00  0.00    +0.029 HD
ATOM     43  H   UNL     1     152.471 166.153 192.688  0.00  0.00    +0.060 HD
ATOM     44  H   UNL     1     152.444 164.686 190.715  0.00  0.00    +0.040 HD
ATOM     45  H   UNL     1     150.922 165.543 190.826  0.00  0.00    +0.040 HD
ATOM     46  H   UNL     1     152.929 166.712 186.917  0.00  0.00    +0.074 HD
ATOM     47  H   UNL     1     153.792 163.784 186.963  0.00  0.00    +0.036 HD
ATOM     48  H   UNL     1     151.698 163.229 185.894  0.00  0.00    +0.060 HD
ATOM     49  H   UNL     1     149.877 165.301 186.503  0.00  0.00    +0.033 HD
ATOM     50  H   UNL     1     151.221 166.191 185.818  0.00  0.00    +0.033 HD
ATOM     51  H   UNL     1     151.040 164.187 183.918  0.00  0.00    +0.057 HD
ATOM     52  H   UNL     1     149.092 164.775 182.789  0.00  0.00    +0.067 HD
ATOM     53  H   UNL     1     145.250 167.180 183.855  0.00  0.00    +0.105 HD
ATOM     54  H   UNL     1     144.064 170.389 187.323  0.00  0.00    +0.105 HD
ATOM     55  H   UNL     1     145.346 172.830 191.356  0.00  0.00    +0.105 HD
ENDROOT
BRANCH   1  56
ATOM     56  C   UNL     1     148.237 173.594 192.337  0.00  0.00    -0.056 C 
ATOM     57  H   UNL     1     147.714 174.211 191.596  0.00  0.00    +0.024 HD
ATOM     58  H   UNL     1     149.219 174.047 192.514  0.00  0.00    +0.024 HD
ATOM     59  H   UNL     1     147.670 173.648 193.272  0.00  0.00    +0.024 HD
ENDBRANCH   1  56
BRANCH  14  60
ATOM     60  C   UNL     1     153.746 164.692 185.024  0.00  0.00    -0.057 C 
ATOM     61  H   UNL     1     153.255 165.503 184.477  0.00  0.00    +0.023 HD
ATOM     62  H   UNL     1     154.827 164.857 184.987  0.00  0.00    +0.023 HD
ATOM     63  H   UNL     1     153.566 163.755 184.486  0.00  0.00    +0.023 HD
ENDBRANCH  14  60
BRANCH  13  64
ATOM     64  C   UNL     1     155.022 166.323 187.242  0.00  0.00    +0.011 C 
ATOM     65  H   UNL     1     155.153 167.256 187.797  0.00  0.00    +0.033 HD
ATOM     66  H   UNL     1     155.297 166.496 186.193  0.00  0.00    +0.033 HD
BRANCH  64  67
ATOM     67  C   UNL     1     155.987 165.280 187.854  0.00  0.00    +0.064 C 
ATOM     68  H   UNL     1     155.452 164.336 188.032  0.00  0.00    +0.060 HD
BRANCH  67  69
ATOM     69  C   UNL     1     157.181 164.971 186.902  0.00  0.00    -0.017 C 
ATOM     70  H   UNL     1     158.085 165.275 187.450  0.00  0.00    +0.032 HD
BRANCH  69  71
ATOM     71  C   UNL     1     157.346 163.478 186.587  0.00  0.00    -0.060 C 
ATOM     72  H   UNL     1     157.991 162.997 187.331  0.00  0.00    +0.023 HD
ATOM     73  H   UNL     1     157.784 163.319 185.596  0.00  0.00    +0.023 HD
ATOM     74  H   UNL     1     156.385 162.956 186.618  0.00  0.00    +0.023 HD
ENDBRANCH  69  71
BRANCH  69  75
ATOM     75  C   UNL     1     157.155 165.825 185.607  0.00  0.00    -0.041 C 
ATOM     76  H   UNL     1     157.255 165.170 184.733  0.00  0.00    +0.027 HD
ATOM     77  H   UNL     1     156.153 166.268 185.523  0.00  0.00    +0.027 HD
BRANCH  75  78
ATOM     78  C   UNL     1     158.182 166.960 185.530  0.00  0.00    +0.007 C 
ATOM     79  H   UNL     1     159.064 166.654 184.969  0.00  0.00    +0.034 HD
ATOM     80  H   UNL     1     158.531 167.247 186.528  0.00  0.00    +0.034 HD
BRANCH  78  81
ATOM     81  C   UNL     1     157.576 168.213 184.916  0.00  0.00    +0.140 C 
ATOM     82  O   UNL     1     156.533 168.132 184.267  0.00  0.00    -0.297 OA
BRANCH  81  83
ATOM     83  C   UNL     1     158.227 169.564 185.243  0.00  0.00    +0.052 C 
ATOM     84  H   UNL     1     157.552 170.023 185.979  0.00  0.00    +0.041 HD
BRANCH  83  85
ATOM     85  C   UNL     1     159.582 169.422 185.936  0.00  0.00    -0.052 C 
ATOM     86  H   UNL     1     160.409 169.541 185.232  0.00  0.00    +0.024 HD
ATOM     87  H   UNL     1     159.683 168.432 186.390  0.00  0.00    +0.024 HD
ATOM     88  H   UNL     1     159.702 170.145 186.748  0.00  0.00    +0.024 HD
ENDBRANCH  83  85
BRANCH  83  89
ATOM     89  C   UNL     1     158.284 170.514 184.016  0.00  0.00    +0.118 C 
ATOM     90  H   UNL     1     157.796 170.047 183.149  0.00  0.00    +0.075 HD
BRANCH  89  91
ATOM     91  C   UNL     1     159.705 170.997 183.578  0.00  0.00    +0.014 C 
ATOM     92  H   UNL     1     160.420 170.597 184.299  0.00  0.00    +0.038 HD
BRANCH  91  93
ATOM     93  C   UNL     1     159.810 172.526 183.693  0.00  0.00    -0.056 C 
ATOM     94  H   UNL     1     160.840 172.843 183.898  0.00  0.00    +0.024 HD
ATOM     95  H   UNL     1     159.176 172.903 184.506  0.00  0.00    +0.024 HD
ATOM     96  H   UNL     1     159.484 173.018 182.771  0.00  0.00    +0.024 HD
ENDBRANCH  91  93
BRANCH  91  97
ATOM     97  C   UNL     1     160.077 170.601 182.172  0.00  0.00    -0.064 C 
ATOM     98  C   UNL     1     160.168 169.388 181.614  0.00  0.00    -0.010 C 
ATOM     99  H   UNL     1     160.253 171.446 181.504  0.00  0.00    +0.059 HD
ATOM    100  H   UNL     1     160.374 169.380 180.539  0.00  0.00    +0.078 HD
BRANCH  98 101
ATOM    101  N   UNL     1     160.039 168.100 182.102  0.00  0.00    -0.317 N 
BRANCH 101 102
ATOM    102  C   UNL     1     160.952 167.479 183.058  0.00  0.00    +0.002 C 
ATOM    103  H   UNL     1     160.420 166.776 183.709  0.00  0.00    +0.043 HD
ATOM    104  H   UNL     1     161.410 168.226 183.718  0.00  0.00    +0.043 HD
ATOM    105  H   UNL     1     161.761 166.961 182.536  0.00  0.00    +0.043 HD
ENDBRANCH 101 102
BRANCH 101 106
ATOM    106  C   UNL     1     158.959 167.236 181.656  0.00  0.00    +0.110 C 
ATOM    107  H   UNL     1     158.735 166.448 182.383  0.00  0.00    +0.077 HD
ATOM    108  H   UNL     1     159.196 166.753 180.703  0.00  0.00    +0.077 HD
BRANCH 106 109
ATOM    109  O   UNL     1     157.825 168.056 181.501  0.00  0.00    -0.377 OA
ATOM    110  H   UNL     1     158.128 168.877 181.923  0.00  0.00    +0.211 HD
ENDBRANCH 106 109
ENDBRANCH 101 106
ENDBRANCH  98 101
ENDBRANCH  91  97
ENDBRANCH  89  91
BRANCH  89 111
ATOM    111  O   UNL     1     157.549 171.725 184.370  0.00  0.00    -0.460 OA
BRANCH 111 112
ATOM    112  C   UNL     1     156.392 171.965 183.701  0.00  0.00    +0.304 C 
ATOM    113  O   UNL     1     155.832 171.187 182.943  0.00  0.00    -0.251 OA
BRANCH 112 114
ATOM    114  C   UNL     1     155.853 173.316 184.068  0.00  0.00    +0.033 C 
ATOM    115  H   UNL     1     156.389 174.104 183.527  0.00  0.00    +0.034 HD
ATOM    116  H   UNL     1     155.966 173.474 185.144  0.00  0.00    +0.034 HD
ATOM    117  H   UNL     1     154.799 173.374 183.784  0.00  0.00    +0.034 HD
ENDBRANCH 112 114
ENDBRANCH 111 112
ENDBRANCH  89 111
ENDBRANCH  83  89
ENDBRANCH  81  83
ENDBRANCH  78  81
ENDBRANCH  75  78
ENDBRANCH  69  75
ENDBRANCH  67  69
BRANCH  67 118
ATOM    118  O   UNL     1     156.492 165.816 189.085  0.00  0.00    -0.379 OA
BRANCH 118 119
ATOM    119  C   UNL     1     156.743 164.817 190.068  0.00  0.00    +0.037 C 
ATOM    120  H   UNL     1     157.824 164.663 190.127  0.00  0.00    +0.052 HD
ATOM    121  H   UNL     1     156.269 163.873 189.788  0.00  0.00    +0.052 HD
ATOM    122  H   UNL     1     156.393 165.132 191.050  0.00  0.00    +0.052 HD
ENDBRANCH 118 119
ENDBRANCH  67 118
ENDBRANCH  64  67
ENDBRANCH  13  64
BRANCH   8 123
ATOM    123  O   UNL     1     154.037 166.685 191.506  0.00  0.00    -0.391 OA
ATOM    124  H   UNL     1     154.353 167.491 191.949  0.00  0.00    +0.210 HD
ENDBRANCH   8 123
BRANCH  15 125
ATOM    125  O   UNL     1     151.375 163.794 187.821  0.00  0.00    -0.379 OA
BRANCH 125 126
ATOM    126  C   UNL     1     151.739 162.462 188.171  0.00  0.00    +0.037 C 
ATOM    127  H   UNL     1     152.175 161.935 187.316  0.00  0.00    +0.052 HD
ATOM    128  H   UNL     1     150.880 161.910 188.555  0.00  0.00    +0.052 HD
ATOM    129  H   UNL     1     152.493 162.514 188.958  0.00  0.00    +0.052 HD
ENDBRANCH 125 126
ENDBRANCH  15 125
TORSDOF 27
ENDMDL
MODEL 9
REMARK VINA RESULT:      -5.2      2.460      7.885
REMARK  Name = Ulapualide A_conf3
REMARK  27 active torsions:
REMARK  status: ('A' for Active; 'I' for Inactive)
REMARK    1  A    between atoms: C_1  and  C_2
REMARK    2  A    between atoms: C_9  and  O_63
REMARK    3  A    between atoms: C_14  and  C_38
REMARK    4  A    between atoms: C_15  and  C_37
REMARK    5  A    between atoms: C_16  and  O_35
REMARK    6  A    between atoms: O_35  and  C_36
REMARK    7  A    between atoms: C_38  and  C_39
REMARK    8  A    between atoms: C_39  and  C_40
REMARK    9  A    between atoms: C_39  and  O_61
REMARK   10  A    between atoms: C_40  and  C_41
REMARK   11  A    between atoms: C_40  and  C_42
REMARK   12  A    between atoms: C_42  and  C_43
REMARK   13  A    between atoms: C_43  and  C_44
REMARK   14  A    between atoms: C_44  and  C_46
REMARK   15  A    between atoms: C_46  and  C_47
REMARK   16  A    between atoms: C_46  and  C_48
REMARK   17  A    between atoms: C_48  and  C_49
REMARK   18  A    between atoms: C_48  and  O_57
REMARK   19  A    between atoms: C_49  and  C_50
REMARK   20  A    between atoms: C_49  and  C_51
REMARK   21  A    between atoms: C_52  and  N_53
REMARK   22  A    between atoms: N_53  and  C_54
REMARK   23  A    between atoms: N_53  and  C_55
REMARK   24  A    between atoms: C_55  and  O_56
REMARK   25  A    between atoms: O_57  and  C_58
REMARK   26  A    between atoms: C_58  and  C_60
REMARK   27  A    between atoms: O_61  and  C_62
REMARK                            x       y       z     vdW  Elec       q    Type
REMARK                         _______ _______ _______ _____ _____    ______ ____
ROOT
ATOM      1  C   UNL     1     143.564 164.236 185.836  0.00  0.00    +0.008 C 
ATOM      2  C   UNL     1     143.114 163.329 186.987  0.00  0.00    +0.014 C 
ATOM      3  C   UNL     1     144.041 163.374 188.191  0.00  0.00    +0.134 C 
ATOM      4  O   UNL     1     144.555 162.341 188.625  0.00  0.00    -0.297 OA
ATOM      5  C   UNL     1     144.229 164.726 188.860  0.00  0.00    +0.006 C 
ATOM      6  C   UNL     1     144.909 164.641 190.226  0.00  0.00    -0.044 C 
ATOM      7  C   UNL     1     144.844 165.993 190.938  0.00  0.00    -0.026 C 
ATOM      8  C   UNL     1     145.483 165.993 192.329  0.00  0.00    +0.065 C 
ATOM      9  C   UNL     1     146.976 165.686 192.368  0.00  0.00    +0.071 C 
ATOM     10  C   UNL     1     147.784 166.681 191.576  0.00  0.00    +0.310 C 
ATOM     11  O   UNL     1     147.957 166.622 190.367  0.00  0.00    -0.251 OA
ATOM     12  O   UNL     1     148.261 167.651 192.402  0.00  0.00    -0.461 OA
ATOM     13  C   UNL     1     149.163 168.631 191.842  0.00  0.00    +0.110 C 
ATOM     14  C   UNL     1     150.589 168.365 192.418  0.00  0.00    +0.020 C 
ATOM     15  C   UNL     1     151.217 166.994 191.995  0.00  0.00    +0.068 C 
ATOM     16  C   UNL     1     151.421 166.825 190.460  0.00  0.00    -0.008 C 
ATOM     17  C   UNL     1     152.860 167.044 190.057  0.00  0.00    -0.077 C 
ATOM     18  C   UNL     1     153.515 166.573 188.980  0.00  0.00    -0.003 C 
ATOM     19  C   UNL     1     152.958 165.785 187.936  0.00  0.00    +0.220 A 
ATOM     20  N   UNL     1     151.680 165.566 187.645  0.00  0.00    -0.205 NA
ATOM     21  C   UNL     1     151.692 164.757 186.532  0.00  0.00    +0.164 A 
ATOM     22  C   UNL     1     152.986 164.504 186.166  0.00  0.00    +0.125 A 
ATOM     23  O   UNL     1     153.801 165.150 187.035  0.00  0.00    -0.443 OA
ATOM     24  C   UNL     1     150.466 164.181 185.753  0.00  0.00    +0.250 A 
ATOM     25  N   UNL     1     149.195 164.421 186.028  0.00  0.00    -0.203 NA
ATOM     26  C   UNL     1     148.500 163.673 185.102  0.00  0.00    +0.164 A 
ATOM     27  C   UNL     1     149.380 163.015 184.284  0.00  0.00    +0.125 A 
ATOM     28  O   UNL     1     150.640 163.336 184.674  0.00  0.00    -0.442 OA
ATOM     29  C   UNL     1     146.949 163.544 184.956  0.00  0.00    +0.249 A 
ATOM     30  N   UNL     1     146.056 164.189 185.688  0.00  0.00    -0.212 NA
ATOM     31  C   UNL     1     144.837 163.746 185.223  0.00  0.00    +0.083 A 
ATOM     32  C   UNL     1     145.042 162.839 184.211  0.00  0.00    +0.116 A 
ATOM     33  O   UNL     1     146.378 162.709 184.018  0.00  0.00    -0.442 OA
ATOM     34  H   UNL     1     143.751 165.248 186.217  0.00  0.00    +0.037 HD
ATOM     35  H   UNL     1     143.039 162.287 186.653  0.00  0.00    +0.035 HD
ATOM     36  H   UNL     1     142.118 163.620 187.345  0.00  0.00    +0.035 HD
ATOM     37  H   UNL     1     143.231 165.163 188.977  0.00  0.00    +0.034 HD
ATOM     38  H   UNL     1     144.819 165.367 188.198  0.00  0.00    +0.034 HD
ATOM     39  H   UNL     1     145.948 164.322 190.087  0.00  0.00    +0.027 HD
ATOM     40  H   UNL     1     144.420 163.878 190.843  0.00  0.00    +0.027 HD
ATOM     41  H   UNL     1     143.792 166.287 191.048  0.00  0.00    +0.029 HD
ATOM     42  H   UNL     1     145.293 166.776 190.313  0.00  0.00    +0.029 HD
ATOM     43  H   UNL     1     144.962 165.250 192.946  0.00  0.00    +0.060 HD
ATOM     44  H   UNL     1     147.335 165.702 193.404  0.00  0.00    +0.040 HD
ATOM     45  H   UNL     1     147.197 164.684 191.986  0.00  0.00    +0.040 HD
ATOM     46  H   UNL     1     149.198 168.577 190.752  0.00  0.00    +0.074 HD
ATOM     47  H   UNL     1     150.478 168.313 193.511  0.00  0.00    +0.036 HD
ATOM     48  H   UNL     1     152.191 166.940 192.502  0.00  0.00    +0.060 HD
ATOM     49  H   UNL     1     151.089 165.831 190.148  0.00  0.00    +0.033 HD
ATOM     50  H   UNL     1     150.814 167.545 189.904  0.00  0.00    +0.033 HD
ATOM     51  H   UNL     1     153.452 167.663 190.729  0.00  0.00    +0.057 HD
ATOM     52  H   UNL     1     154.570 166.806 188.877  0.00  0.00    +0.067 HD
ATOM     53  H   UNL     1     153.462 163.938 185.379  0.00  0.00    +0.105 HD
ATOM     54  H   UNL     1     149.286 162.342 183.446  0.00  0.00    +0.105 HD
ATOM     55  H   UNL     1     144.403 162.237 183.579  0.00  0.00    +0.105 HD
ENDROOT
BRANCH   1  56
ATOM     56  C   UNL     1     142.440 164.370 184.804  0.00  0.00    -0.056 C 
ATOM     57  H   UNL     1     142.423 163.503 184.132  0.00  0.00    +0.024 HD
ATOM     58  H   UNL     1     142.560 165.268 184.187  0.00  0.00    +0.024 HD
ATOM     59  H   UNL     1     141.462 164.428 185.293  0.00  0.00    +0.024 HD
ENDBRANCH   1  56
BRANCH  14  60
ATOM     60  C   UNL     1     151.575 169.501 192.106  0.00  0.00    -0.057 C 
ATOM     61  H   UNL     1     151.783 169.570 191.034  0.00  0.00    +0.023 HD
ATOM     62  H   UNL     1     151.189 170.467 192.445  0.00  0.00    +0.023 HD
ATOM     63  H   UNL     1     152.523 169.353 192.633  0.00  0.00    +0.023 HD
ENDBRANCH  14  60
BRANCH  13  64
ATOM     64  C   UNL     1     148.585 170.001 192.247  0.00  0.00    +0.011 C 
ATOM     65  H   UNL     1     149.342 170.572 192.793  0.00  0.00    +0.033 HD
ATOM     66  H   UNL     1     147.726 169.834 192.910  0.00  0.00    +0.033 HD
BRANCH  64  67
ATOM     67  C   UNL     1     148.137 170.860 191.041  0.00  0.00    +0.064 C 
ATOM     68  H   UNL     1     148.935 170.890 190.287  0.00  0.00    +0.060 HD
BRANCH  67  69
ATOM     69  C   UNL     1     146.866 170.273 190.356  0.00  0.00    -0.017 C 
ATOM     70  H   UNL     1     146.585 169.393 190.954  0.00  0.00    +0.032 HD
BRANCH  69  71
ATOM     71  C   UNL     1     145.659 171.221 190.385  0.00  0.00    -0.060 C 
ATOM     72  H   UNL     1     145.023 171.061 189.507  0.00  0.00    +0.023 HD
ATOM     73  H   UNL     1     145.968 172.271 190.401  0.00  0.00    +0.023 HD
ATOM     74  H   UNL     1     145.033 171.041 191.264  0.00  0.00    +0.023 HD
ENDBRANCH  69  71
BRANCH  69  75
ATOM     75  C   UNL     1     147.142 169.749 188.922  0.00  0.00    -0.041 C 
ATOM     76  H   UNL     1     148.009 170.270 188.500  0.00  0.00    +0.027 HD
ATOM     77  H   UNL     1     147.450 168.698 189.007  0.00  0.00    +0.027 HD
BRANCH  75  78
ATOM     78  C   UNL     1     145.964 169.819 187.944  0.00  0.00    +0.007 C 
ATOM     79  H   UNL     1     146.293 170.136 186.956  0.00  0.00    +0.034 HD
ATOM     80  H   UNL     1     145.217 170.549 188.274  0.00  0.00    +0.034 HD
BRANCH  78  81
ATOM     81  C   UNL     1     145.240 168.483 187.854  0.00  0.00    +0.140 C 
ATOM     82  O   UNL     1     145.885 167.436 187.900  0.00  0.00    -0.297 OA
BRANCH  81  83
ATOM     83  C   UNL     1     143.705 168.494 187.838  0.00  0.00    +0.052 C 
ATOM     84  H   UNL     1     143.419 167.903 188.719  0.00  0.00    +0.041 HD
BRANCH  83  85
ATOM     85  C   UNL     1     143.115 169.888 188.048  0.00  0.00    -0.052 C 
ATOM     86  H   UNL     1     143.391 170.568 187.238  0.00  0.00    +0.024 HD
ATOM     87  H   UNL     1     143.483 170.328 188.980  0.00  0.00    +0.024 HD
ATOM     88  H   UNL     1     142.025 169.861 188.131  0.00  0.00    +0.024 HD
ENDBRANCH  83  85
BRANCH  83  89
ATOM     89  C   UNL     1     143.115 167.780 186.592  0.00  0.00    +0.118 C 
ATOM     90  H   UNL     1     143.363 166.710 186.612  0.00  0.00    +0.075 HD
BRANCH  89  91
ATOM     91  C   UNL     1     143.532 168.356 185.200  0.00  0.00    +0.014 C 
ATOM     92  H   UNL     1     143.998 169.326 185.378  0.00  0.00    +0.038 HD
BRANCH  91  93
ATOM     93  C   UNL     1     142.288 168.642 184.344  0.00  0.00    -0.056 C 
ATOM     94  H   UNL     1     142.482 168.458 183.281  0.00  0.00    +0.024 HD
ATOM     95  H   UNL     1     141.970 169.688 184.450  0.00  0.00    +0.024 HD
ATOM     96  H   UNL     1     141.444 168.014 184.645  0.00  0.00    +0.024 HD
ENDBRANCH  91  93
BRANCH  91  97
ATOM     97  C   UNL     1     144.448 167.451 184.416  0.00  0.00    -0.064 C 
ATOM     98  C   UNL     1     145.763 167.548 184.184  0.00  0.00    -0.010 C 
ATOM     99  H   UNL     1     143.960 166.560 184.020  0.00  0.00    +0.059 HD
ATOM    100  H   UNL     1     146.209 166.702 183.652  0.00  0.00    +0.078 HD
BRANCH  98 101
ATOM    101  N   UNL     1     146.719 168.501 184.489  0.00  0.00    -0.317 N 
BRANCH 101 102
ATOM    102  C   UNL     1     146.629 169.913 184.128  0.00  0.00    +0.002 C 
ATOM    103  H   UNL     1     146.806 170.055 183.055  0.00  0.00    +0.043 HD
ATOM    104  H   UNL     1     147.388 170.508 184.649  0.00  0.00    +0.043 HD
ATOM    105  H   UNL     1     145.651 170.317 184.398  0.00  0.00    +0.043 HD
ENDBRANCH 101 102
BRANCH 101 106
ATOM    106  C   UNL     1     147.937 168.137 185.194  0.00  0.00    +0.110 C 
ATOM    107  H   UNL     1     148.230 168.894 185.928  0.00  0.00    +0.077 HD
ATOM    108  H   UNL     1     148.776 168.000 184.504  0.00  0.00    +0.077 HD
BRANCH 106 109
ATOM    109  O   UNL     1     147.671 166.926 185.861  0.00  0.00    -0.377 OA
ATOM    110  H   UNL     1     148.457 166.406 185.625  0.00  0.00    +0.211 HD
ENDBRANCH 106 109
ENDBRANCH 101 106
ENDBRANCH  98 101
ENDBRANCH  91  97
ENDBRANCH  89  91
BRANCH  89 111
ATOM    111  O   UNL     1     141.663 167.924 186.658  0.00  0.00    -0.460 OA
BRANCH 111 112
ATOM    112  C   UNL     1     140.964 166.903 187.217  0.00  0.00    +0.304 C 
ATOM    113  O   UNL     1     141.161 166.426 188.325  0.00  0.00    -0.251 OA
BRANCH 112 114
ATOM    114  C   UNL     1     139.860 166.467 186.299  0.00  0.00    +0.033 C 
ATOM    115  H   UNL     1     140.144 166.628 185.253  0.00  0.00    +0.034 HD
ATOM    116  H   UNL     1     138.954 167.038 186.521  0.00  0.00    +0.034 HD
ATOM    117  H   UNL     1     139.678 165.397 186.434  0.00  0.00    +0.034 HD
ENDBRANCH 112 114
ENDBRANCH 111 112
ENDBRANCH  89 111
ENDBRANCH  83  89
ENDBRANCH  81  83
ENDBRANCH  78  81
ENDBRANCH  75  78
ENDBRANCH  69  75
ENDBRANCH  67  69
BRANCH  67 118
ATOM    118  O   UNL     1     147.845 172.179 191.523  0.00  0.00    -0.379 OA
BRANCH 118 119
ATOM    119  C   UNL     1     148.748 173.165 191.035  0.00  0.00    +0.037 C 
ATOM    120  H   UNL     1     149.421 173.443 191.851  0.00  0.00    +0.052 HD
ATOM    121  H   UNL     1     148.206 174.057 190.709  0.00  0.00    +0.052 HD
ATOM    122  H   UNL     1     149.352 172.777 190.216  0.00  0.00    +0.052 HD
ENDBRANCH 118 119
ENDBRANCH  67 118
ENDBRANCH  64  67
ENDBRANCH  13  64
BRANCH   8 123
ATOM    123  O   UNL     1     145.218 167.266 192.926  0.00  0.00    -0.391 OA
ATOM    124  H   UNL     1     145.619 167.951 192.363  0.00  0.00    +0.210 HD
ENDBRANCH   8 123
BRANCH  15 125
ATOM    125  O   UNL     1     150.424 165.933 192.556  0.00  0.00    -0.379 OA
BRANCH 125 126
ATOM    126  C   UNL     1     150.704 165.674 193.928  0.00  0.00    +0.037 C 
ATOM    127  H   UNL     1     149.812 165.313 194.451  0.00  0.00    +0.052 HD
ATOM    128  H   UNL     1     151.095 166.565 194.423  0.00  0.00    +0.052 HD
ATOM    129  H   UNL     1     151.465 164.893 193.976  0.00  0.00    +0.052 HD
ENDBRANCH 125 126
ENDBRANCH  15 125
TORSDOF 27
ENDMDL
MODEL 10
REMARK VINA RESULT:      -5.1      1.976      3.573
REMARK  Name = Ulapualide A_conf3
REMARK  27 active torsions:
REMARK  status: ('A' for Active; 'I' for Inactive)
REMARK    1  A    between atoms: C_1  and  C_2
REMARK    2  A    between atoms: C_9  and  O_63
REMARK    3  A    between atoms: C_14  and  C_38
REMARK    4  A    between atoms: C_15  and  C_37
REMARK    5  A    between atoms: C_16  and  O_35
REMARK    6  A    between atoms: O_35  and  C_36
REMARK    7  A    between atoms: C_38  and  C_39
REMARK    8  A    between atoms: C_39  and  C_40
REMARK    9  A    between atoms: C_39  and  O_61
REMARK   10  A    between atoms: C_40  and  C_41
REMARK   11  A    between atoms: C_40  and  C_42
REMARK   12  A    between atoms: C_42  and  C_43
REMARK   13  A    between atoms: C_43  and  C_44
REMARK   14  A    between atoms: C_44  and  C_46
REMARK   15  A    between atoms: C_46  and  C_47
REMARK   16  A    between atoms: C_46  and  C_48
REMARK   17  A    between atoms: C_48  and  C_49
REMARK   18  A    between atoms: C_48  and  O_57
REMARK   19  A    between atoms: C_49  and  C_50
REMARK   20  A    between atoms: C_49  and  C_51
REMARK   21  A    between atoms: C_52  and  N_53
REMARK   22  A    between atoms: N_53  and  C_54
REMARK   23  A    between atoms: N_53  and  C_55
REMARK   24  A    between atoms: C_55  and  O_56
REMARK   25  A    between atoms: O_57  and  C_58
REMARK   26  A    between atoms: C_58  and  C_60
REMARK   27  A    between atoms: O_61  and  C_62
REMARK                            x       y       z     vdW  Elec       q    Type
REMARK                         _______ _______ _______ _____ _____    ______ ____
ROOT
ATOM      1  C   UNL     1     153.481 166.579 187.201  0.00  0.00    +0.008 C 
ATOM      2  C   UNL     1     153.353 165.237 186.471  0.00  0.00    +0.014 C 
ATOM      3  C   UNL     1     152.015 164.550 186.697  0.00  0.00    +0.134 C 
ATOM      4  O   UNL     1     151.966 163.408 187.156  0.00  0.00    -0.297 OA
ATOM      5  C   UNL     1     150.774 165.311 186.257  0.00  0.00    +0.006 C 
ATOM      6  C   UNL     1     149.512 164.449 186.223  0.00  0.00    -0.044 C 
ATOM      7  C   UNL     1     148.368 165.206 185.547  0.00  0.00    -0.026 C 
ATOM      8  C   UNL     1     147.068 164.406 185.447  0.00  0.00    +0.065 C 
ATOM      9  C   UNL     1     146.439 164.004 186.777  0.00  0.00    +0.071 C 
ATOM     10  C   UNL     1     146.090 165.198 187.627  0.00  0.00    +0.310 C 
ATOM     11  O   UNL     1     146.881 165.784 188.352  0.00  0.00    -0.251 OA
ATOM     12  O   UNL     1     144.782 165.529 187.445  0.00  0.00    -0.461 OA
ATOM     13  C   UNL     1     144.230 166.578 188.271  0.00  0.00    +0.110 C 
ATOM     14  C   UNL     1     143.237 165.926 189.284  0.00  0.00    +0.020 C 
ATOM     15  C   UNL     1     143.901 164.951 190.312  0.00  0.00    +0.068 C 
ATOM     16  C   UNL     1     144.962 165.617 191.239  0.00  0.00    -0.008 C 
ATOM     17  C   UNL     1     144.407 165.898 192.616  0.00  0.00    -0.077 C 
ATOM     18  C   UNL     1     145.069 166.027 193.780  0.00  0.00    -0.003 C 
ATOM     19  C   UNL     1     146.479 165.973 193.957  0.00  0.00    +0.220 A 
ATOM     20  N   UNL     1     147.439 166.051 193.043  0.00  0.00    -0.205 NA
ATOM     21  C   UNL     1     148.620 165.969 193.743  0.00  0.00    +0.164 A 
ATOM     22  C   UNL     1     148.349 165.846 195.079  0.00  0.00    +0.125 A 
ATOM     23  O   UNL     1     147.003 165.854 195.236  0.00  0.00    -0.443 OA
ATOM     24  C   UNL     1     150.076 166.006 193.177  0.00  0.00    +0.250 A 
ATOM     25  N   UNL     1     150.406 166.165 191.906  0.00  0.00    -0.203 NA
ATOM     26  C   UNL     1     151.782 166.092 191.901  0.00  0.00    +0.164 A 
ATOM     27  C   UNL     1     152.241 165.906 193.179  0.00  0.00    +0.125 A 
ATOM     28  O   UNL     1     151.169 165.861 194.010  0.00  0.00    -0.442 OA
ATOM     29  C   UNL     1     152.734 166.190 190.665  0.00  0.00    +0.249 A 
ATOM     30  N   UNL     1     152.348 166.413 189.419  0.00  0.00    -0.212 NA
ATOM     31  C   UNL     1     153.513 166.391 188.684  0.00  0.00    +0.083 A 
ATOM     32  C   UNL     1     154.575 166.157 189.525  0.00  0.00    +0.116 A 
ATOM     33  O   UNL     1     154.099 166.041 190.789  0.00  0.00    -0.442 OA
ATOM     34  H   UNL     1     152.612 167.208 186.967  0.00  0.00    +0.037 HD
ATOM     35  H   UNL     1     154.146 164.548 186.785  0.00  0.00    +0.035 HD
ATOM     36  H   UNL     1     153.459 165.371 185.387  0.00  0.00    +0.035 HD
ATOM     37  H   UNL     1     150.978 165.697 185.253  0.00  0.00    +0.034 HD
ATOM     38  H   UNL     1     150.620 166.155 186.936  0.00  0.00    +0.034 HD
ATOM     39  H   UNL     1     149.244 164.170 187.248  0.00  0.00    +0.027 HD
ATOM     40  H   UNL     1     149.707 163.517 185.678  0.00  0.00    +0.027 HD
ATOM     41  H   UNL     1     148.676 165.482 184.529  0.00  0.00    +0.029 HD
ATOM     42  H   UNL     1     148.189 166.163 186.056  0.00  0.00    +0.029 HD
ATOM     43  H   UNL     1     147.269 163.494 184.871  0.00  0.00    +0.060 HD
ATOM     44  H   UNL     1     145.520 163.432 186.599  0.00  0.00    +0.040 HD
ATOM     45  H   UNL     1     147.095 163.350 187.359  0.00  0.00    +0.040 HD
ATOM     46  H   UNL     1     145.005 167.114 188.820  0.00  0.00    +0.074 HD
ATOM     47  H   UNL     1     142.550 165.305 188.690  0.00  0.00    +0.036 HD
ATOM     48  H   UNL     1     143.080 164.553 190.924  0.00  0.00    +0.060 HD
ATOM     49  H   UNL     1     145.846 164.978 191.312  0.00  0.00    +0.033 HD
ATOM     50  H   UNL     1     145.300 166.570 190.823  0.00  0.00    +0.033 HD
ATOM     51  H   UNL     1     143.327 166.007 192.679  0.00  0.00    +0.057 HD
ATOM     52  H   UNL     1     144.491 166.191 194.685  0.00  0.00    +0.067 HD
ATOM     53  H   UNL     1     148.944 165.755 195.976  0.00  0.00    +0.105 HD
ATOM     54  H   UNL     1     153.214 165.799 193.631  0.00  0.00    +0.105 HD
ATOM     55  H   UNL     1     155.643 166.045 189.399  0.00  0.00    +0.105 HD
ENDROOT
BRANCH   1  56
ATOM     56  C   UNL     1     154.708 167.339 186.687  0.00  0.00    -0.056 C 
ATOM     57  H   UNL     1     154.837 167.186 185.609  0.00  0.00    +0.024 HD
ATOM     58  H   UNL     1     155.628 167.007 187.183  0.00  0.00    +0.024 HD
ATOM     59  H   UNL     1     154.605 168.415 186.860  0.00  0.00    +0.024 HD
ENDBRANCH   1  56
BRANCH  14  60
ATOM     60  C   UNL     1     142.389 166.966 190.033  0.00  0.00    -0.057 C 
ATOM     61  H   UNL     1     142.824 167.967 189.959  0.00  0.00    +0.023 HD
ATOM     62  H   UNL     1     141.368 167.004 189.643  0.00  0.00    +0.023 HD
ATOM     63  H   UNL     1     142.298 166.707 191.093  0.00  0.00    +0.023 HD
ENDBRANCH  14  60
BRANCH  13  64
ATOM     64  C   UNL     1     143.552 167.558 187.293  0.00  0.00    +0.011 C 
ATOM     65  H   UNL     1     142.586 167.872 187.699  0.00  0.00    +0.033 HD
ATOM     66  H   UNL     1     143.381 167.037 186.342  0.00  0.00    +0.033 HD
BRANCH  64  67
ATOM     67  C   UNL     1     144.383 168.836 187.030  0.00  0.00    +0.064 C 
ATOM     68  H   UNL     1     143.725 169.644 186.682  0.00  0.00    +0.060 HD
BRANCH  67  69
ATOM     69  C   UNL     1     145.098 169.334 188.322  0.00  0.00    -0.017 C 
ATOM     70  H   UNL     1     145.321 168.430 188.908  0.00  0.00    +0.032 HD
BRANCH  69  71
ATOM     71  C   UNL     1     146.445 170.020 188.054  0.00  0.00    -0.060 C 
ATOM     72  H   UNL     1     147.209 169.651 188.747  0.00  0.00    +0.023 HD
ATOM     73  H   UNL     1     146.375 171.108 188.163  0.00  0.00    +0.023 HD
ATOM     74  H   UNL     1     146.805 169.807 187.043  0.00  0.00    +0.023 HD
ENDBRANCH  69  71
BRANCH  69  75
ATOM     75  C   UNL     1     144.183 170.212 189.216  0.00  0.00    -0.041 C 
ATOM     76  H   UNL     1     143.133 169.948 189.040  0.00  0.00    +0.027 HD
ATOM     77  H   UNL     1     144.379 169.938 190.261  0.00  0.00    +0.027 HD
BRANCH  75  78
ATOM     78  C   UNL     1     144.369 171.728 189.083  0.00  0.00    +0.007 C 
ATOM     79  H   UNL     1     143.668 172.148 188.362  0.00  0.00    +0.034 HD
ATOM     80  H   UNL     1     145.374 171.974 188.722  0.00  0.00    +0.034 HD
BRANCH  78  81
ATOM     81  C   UNL     1     144.220 172.424 190.428  0.00  0.00    +0.140 C 
ATOM     82  O   UNL     1     144.988 172.143 191.348  0.00  0.00    -0.297 OA
BRANCH  81  83
ATOM     83  C   UNL     1     143.188 173.554 190.546  0.00  0.00    +0.052 C 
ATOM     84  H   UNL     1     143.786 174.475 190.506  0.00  0.00    +0.041 HD
BRANCH  83  85
ATOM     85  C   UNL     1     142.229 173.613 189.357  0.00  0.00    -0.052 C 
ATOM     86  H   UNL     1     142.736 173.376 188.418  0.00  0.00    +0.024 HD
ATOM     87  H   UNL     1     141.805 174.617 189.252  0.00  0.00    +0.024 HD
ATOM     88  H   UNL     1     141.381 172.935 189.483  0.00  0.00    +0.024 HD
ENDBRANCH  83  85
BRANCH  83  89
ATOM     89  C   UNL     1     142.444 173.545 191.909  0.00  0.00    +0.118 C 
ATOM     90  H   UNL     1     143.140 173.296 192.722  0.00  0.00    +0.075 HD
BRANCH  89  91
ATOM     91  C   UNL     1     141.204 172.600 192.017  0.00  0.00    +0.014 C 
ATOM     92  H   UNL     1     140.481 172.929 191.269  0.00  0.00    +0.038 HD
BRANCH  91  93
ATOM     93  C   UNL     1     140.508 172.782 193.376  0.00  0.00    -0.056 C 
ATOM     94  H   UNL     1     141.228 173.039 194.163  0.00  0.00    +0.024 HD
ATOM     95  H   UNL     1     139.993 171.861 193.680  0.00  0.00    +0.024 HD
ATOM     96  H   UNL     1     139.757 173.577 193.335  0.00  0.00    +0.024 HD
ENDBRANCH  91  93
BRANCH  91  97
ATOM     97  C   UNL     1     141.533 171.140 191.845  0.00  0.00    -0.064 C 
ATOM     98  C   UNL     1     140.944 170.206 191.088  0.00  0.00    -0.010 C 
ATOM     99  H   UNL     1     142.420 170.817 192.394  0.00  0.00    +0.059 HD
ATOM    100  H   UNL     1     141.439 169.230 191.076  0.00  0.00    +0.078 HD
BRANCH  98 101
ATOM    101  N   UNL     1     139.822 170.202 190.278  0.00  0.00    -0.317 N 
BRANCH 101 102
ATOM    102  C   UNL     1     138.448 170.294 190.763  0.00  0.00    +0.002 C 
ATOM    103  H   UNL     1     138.418 170.684 191.787  0.00  0.00    +0.043 HD
ATOM    104  H   UNL     1     137.967 169.309 190.792  0.00  0.00    +0.043 HD
ATOM    105  H   UNL     1     137.852 170.932 190.106  0.00  0.00    +0.043 HD
ENDBRANCH 101 102
BRANCH 101 106
ATOM    106  C   UNL     1     139.943 170.073 188.835  0.00  0.00    +0.110 C 
ATOM    107  H   UNL     1     140.928 170.383 188.474  0.00  0.00    +0.077 HD
ATOM    108  H   UNL     1     139.191 170.674 188.313  0.00  0.00    +0.077 HD
BRANCH 106 109
ATOM    109  O   UNL     1     139.749 168.710 188.535  0.00  0.00    -0.377 OA
ATOM    110  H   UNL     1     140.393 168.294 189.132  0.00  0.00    +0.211 HD
ENDBRANCH 106 109
ENDBRANCH 101 106
ENDBRANCH  98 101
ENDBRANCH  91  97
ENDBRANCH  89  91
BRANCH  89 111
ATOM    111  O   UNL     1     141.931 174.894 192.131  0.00  0.00    -0.460 OA
BRANCH 111 112
ATOM    112  C   UNL     1     142.811 175.825 192.584  0.00  0.00    +0.304 C 
ATOM    113  O   UNL     1     143.166 176.824 191.977  0.00  0.00    -0.251 OA
BRANCH 112 114
ATOM    114  C   UNL     1     143.251 175.485 193.977  0.00  0.00    +0.033 C 
ATOM    115  H   UNL     1     143.020 174.440 194.209  0.00  0.00    +0.034 HD
ATOM    116  H   UNL     1     142.741 176.137 194.691  0.00  0.00    +0.034 HD
ATOM    117  H   UNL     1     144.335 175.613 194.054  0.00  0.00    +0.034 HD
ENDBRANCH 112 114
ENDBRANCH 111 112
ENDBRANCH  89 111
ENDBRANCH  83  89
ENDBRANCH  81  83
ENDBRANCH  78  81
ENDBRANCH  75  78
ENDBRANCH  69  75
ENDBRANCH  67  69
BRANCH  67 118
ATOM    118  O   UNL     1     145.370 168.523 186.037  0.00  0.00    -0.379 OA
BRANCH 118 119
ATOM    119  C   UNL     1     144.861 168.569 184.709  0.00  0.00    +0.037 C 
ATOM    120  H   UNL     1     144.875 169.611 184.376  0.00  0.00    +0.052 HD
ATOM    121  H   UNL     1     143.830 168.205 184.678  0.00  0.00    +0.052 HD
ATOM    122  H   UNL     1     145.480 167.988 184.027  0.00  0.00    +0.052 HD
ENDBRANCH 118 119
ENDBRANCH  67 118
ENDBRANCH  64  67
ENDBRANCH  13  64
BRANCH   8 123
ATOM    123  O   UNL     1     146.145 165.176 184.669  0.00  0.00    -0.391 OA
ATOM    124  H   UNL     1     146.569 166.026 184.456  0.00  0.00    +0.210 HD
ENDBRANCH   8 123
BRANCH  15 125
ATOM    125  O   UNL     1     144.438 163.825 189.597  0.00  0.00    -0.379 OA
BRANCH 125 126
ATOM    126  C   UNL     1     143.456 162.864 189.223  0.00  0.00    +0.037 C 
ATOM    127  H   UNL     1     142.637 162.834 189.950  0.00  0.00    +0.052 HD
ATOM    128  H   UNL     1     143.899 161.873 189.115  0.00  0.00    +0.052 HD
ATOM    129  H   UNL     1     143.042 163.162 188.258  0.00  0.00    +0.052 HD
ENDBRANCH 125 126
ENDBRANCH  15 125
TORSDOF 27
ENDMDL
