MODEL 1
REMARK VINA RESULT:      -6.5      0.000      0.000
REMARK  Name = Ulapualide A_conf2
REMARK  27 active torsions:
REMARK  status: ('A' for Active; 'I' for Inactive)
REMARK    1  A    between atoms: C_1  and  C_2
REMARK    2  A    between atoms: C_9  and  O_63
REMARK    3  A    between atoms: C_14  and  C_38
REMARK    4  A    between atoms: C_15  and  C_37
REMARK    5  A    between atoms: C_16  and  O_35
REMARK    6  A    between atoms: O_35  and  C_36
REMARK    7  A    between atoms: C_38  and  C_39
REMARK    8  A    between atoms: C_39  and  C_40
REMARK    9  A    between atoms: C_39  and  O_61
REMARK   10  A    between atoms: C_40  and  C_41
REMARK   11  A    between atoms: C_40  and  C_42
REMARK   12  A    between atoms: C_42  and  C_43
REMARK   13  A    between atoms: C_43  and  C_44
REMARK   14  A    between atoms: C_44  and  C_46
REMARK   15  A    between atoms: C_46  and  C_47
REMARK   16  A    between atoms: C_46  and  C_48
REMARK   17  A    between atoms: C_48  and  C_49
REMARK   18  A    between atoms: C_48  and  O_57
REMARK   19  A    between atoms: C_49  and  C_50
REMARK   20  A    between atoms: C_49  and  C_51
REMARK   21  A    between atoms: C_52  and  N_53
REMARK   22  A    between atoms: N_53  and  C_54
REMARK   23  A    between atoms: N_53  and  C_55
REMARK   24  A    between atoms: C_55  and  O_56
REMARK   25  A    between atoms: O_57  and  C_58
REMARK   26  A    between atoms: C_58  and  C_60
REMARK   27  A    between atoms: O_61  and  C_62
REMARK                            x       y       z     vdW  Elec       q    Type
REMARK                         _______ _______ _______ _____ _____    ______ ____
ROOT
ATOM      1  C   UNL     1     156.446 173.910 183.394  0.00  0.00    +0.008 C 
ATOM      2  C   UNL     1     157.896 173.657 182.971  0.00  0.00    +0.014 C 
ATOM      3  C   UNL     1     158.218 172.272 182.432  0.00  0.00    +0.134 C 
ATOM      4  O   UNL     1     158.459 172.109 181.234  0.00  0.00    -0.297 OA
ATOM      5  C   UNL     1     158.283 171.131 183.433  0.00  0.00    +0.006 C 
ATOM      6  C   UNL     1     159.079 169.939 182.909  0.00  0.00    -0.044 C 
ATOM      7  C   UNL     1     159.488 168.925 183.986  0.00  0.00    -0.026 C 
ATOM      8  C   UNL     1     158.321 168.358 184.806  0.00  0.00    +0.065 C 
ATOM      9  C   UNL     1     158.752 167.108 185.574  0.00  0.00    +0.071 C 
ATOM     10  C   UNL     1     157.560 166.327 186.059  0.00  0.00    +0.310 C 
ATOM     11  O   UNL     1     157.293 166.149 187.241  0.00  0.00    -0.251 OA
ATOM     12  O   UNL     1     156.878 165.801 185.005  0.00  0.00    -0.461 OA
ATOM     13  C   UNL     1     155.751 164.948 185.318  0.00  0.00    +0.110 C 
ATOM     14  C   UNL     1     155.693 163.823 184.240  0.00  0.00    +0.020 C 
ATOM     15  C   UNL     1     155.977 164.283 182.770  0.00  0.00    +0.068 C 
ATOM     16  C   UNL     1     154.802 165.016 182.082  0.00  0.00    -0.008 C 
ATOM     17  C   UNL     1     153.613 164.130 181.776  0.00  0.00    -0.077 C 
ATOM     18  C   UNL     1     152.580 164.423 180.970  0.00  0.00    -0.003 C 
ATOM     19  C   UNL     1     152.390 165.688 180.344  0.00  0.00    +0.220 A 
ATOM     20  N   UNL     1     152.966 166.837 180.669  0.00  0.00    -0.205 NA
ATOM     21  C   UNL     1     152.409 167.773 179.838  0.00  0.00    +0.164 A 
ATOM     22  C   UNL     1     151.516 167.168 178.996  0.00  0.00    +0.125 A 
ATOM     23  O   UNL     1     151.482 165.844 179.307  0.00  0.00    -0.443 OA
ATOM     24  C   UNL     1     152.709 169.305 179.847  0.00  0.00    +0.250 A 
ATOM     25  N   UNL     1     153.534 169.902 180.694  0.00  0.00    -0.203 NA
ATOM     26  C   UNL     1     153.454 171.232 180.361  0.00  0.00    +0.164 A 
ATOM     27  C   UNL     1     152.589 171.398 179.310  0.00  0.00    +0.125 A 
ATOM     28  O   UNL     1     152.104 170.174 178.965  0.00  0.00    -0.442 OA
ATOM     29  C   UNL     1     154.209 172.418 181.042  0.00  0.00    +0.249 A 
ATOM     30  N   UNL     1     155.045 172.306 182.063  0.00  0.00    -0.212 NA
ATOM     31  C   UNL     1     155.468 173.592 182.313  0.00  0.00    +0.083 A 
ATOM     32  C   UNL     1     154.856 174.450 181.431  0.00  0.00    +0.116 A 
ATOM     33  O   UNL     1     154.054 173.719 180.614  0.00  0.00    -0.442 OA
ATOM     34  H   UNL     1     156.380 174.994 183.574  0.00  0.00    +0.037 HD
ATOM     35  H   UNL     1     158.588 173.875 183.792  0.00  0.00    +0.035 HD
ATOM     36  H   UNL     1     158.156 174.365 182.171  0.00  0.00    +0.035 HD
ATOM     37  H   UNL     1     158.755 171.516 184.343  0.00  0.00    +0.034 HD
ATOM     38  H   UNL     1     157.259 170.817 183.654  0.00  0.00    +0.034 HD
ATOM     39  H   UNL     1     158.493 169.427 182.133  0.00  0.00    +0.027 HD
ATOM     40  H   UNL     1     159.996 170.291 182.415  0.00  0.00    +0.027 HD
ATOM     41  H   UNL     1     160.013 168.107 183.477  0.00  0.00    +0.029 HD
ATOM     42  H   UNL     1     160.212 169.404 184.659  0.00  0.00    +0.029 HD
ATOM     43  H   UNL     1     157.478 168.135 184.141  0.00  0.00    +0.060 HD
ATOM     44  H   UNL     1     159.357 167.375 186.449  0.00  0.00    +0.040 HD
ATOM     45  H   UNL     1     159.350 166.430 184.954  0.00  0.00    +0.040 HD
ATOM     46  H   UNL     1     155.949 164.459 186.282  0.00  0.00    +0.074 HD
ATOM     47  H   UNL     1     154.722 163.317 184.289  0.00  0.00    +0.036 HD
ATOM     48  H   UNL     1     156.844 164.954 182.777  0.00  0.00    +0.060 HD
ATOM     49  H   UNL     1     155.169 165.423 181.131  0.00  0.00    +0.033 HD
ATOM     50  H   UNL     1     154.490 165.873 182.673  0.00  0.00    +0.033 HD
ATOM     51  H   UNL     1     153.628 163.136 182.223  0.00  0.00    +0.057 HD
ATOM     52  H   UNL     1     151.822 163.671 180.784  0.00  0.00    +0.067 HD
ATOM     53  H   UNL     1     150.864 167.498 178.200  0.00  0.00    +0.105 HD
ATOM     54  H   UNL     1     152.231 172.241 178.740  0.00  0.00    +0.105 HD
ATOM     55  H   UNL     1     154.889 175.511 181.247  0.00  0.00    +0.105 HD
ENDROOT
BRANCH   1  56
ATOM     56  C   UNL     1     156.073 173.264 184.730  0.00  0.00    -0.056 C 
ATOM     57  H   UNL     1     156.375 172.210 184.740  0.00  0.00    +0.024 HD
ATOM     58  H   UNL     1     156.564 173.736 185.584  0.00  0.00    +0.024 HD
ATOM     59  H   UNL     1     154.989 173.298 184.895  0.00  0.00    +0.024 HD
ENDBRANCH   1  56
BRANCH  14  60
ATOM     60  C   UNL     1     156.737 162.751 184.643  0.00  0.00    -0.057 C 
ATOM     61  H   UNL     1     157.519 163.174 185.283  0.00  0.00    +0.023 HD
ATOM     62  H   UNL     1     157.245 162.345 183.763  0.00  0.00    +0.023 HD
ATOM     63  H   UNL     1     156.265 161.920 185.180  0.00  0.00    +0.023 HD
ENDBRANCH  14  60
BRANCH  13  64
ATOM     64  C   UNL     1     154.502 165.834 185.521  0.00  0.00    +0.011 C 
ATOM     65  H   UNL     1     154.831 166.877 185.554  0.00  0.00    +0.033 HD
ATOM     66  H   UNL     1     153.832 165.764 184.667  0.00  0.00    +0.033 HD
BRANCH  64  67
ATOM     67  C   UNL     1     153.732 165.497 186.812  0.00  0.00    +0.064 C 
ATOM     68  H   UNL     1     154.298 164.734 187.364  0.00  0.00    +0.060 HD
BRANCH  67  69
ATOM     69  C   UNL     1     153.535 166.720 187.754  0.00  0.00    -0.017 C 
ATOM     70  H   UNL     1     154.111 167.558 187.343  0.00  0.00    +0.032 HD
BRANCH  69  71
ATOM     71  C   UNL     1     152.066 167.171 187.758  0.00  0.00    -0.060 C 
ATOM     72  H   UNL     1     151.551 166.827 186.854  0.00  0.00    +0.023 HD
ATOM     73  H   UNL     1     151.521 166.791 188.627  0.00  0.00    +0.023 HD
ATOM     74  H   UNL     1     151.999 168.264 187.778  0.00  0.00    +0.023 HD
ENDBRANCH  69  71
BRANCH  69  75
ATOM     75  C   UNL     1     154.012 166.528 189.212  0.00  0.00    -0.041 C 
ATOM     76  H   UNL     1     154.902 167.136 189.414  0.00  0.00    +0.027 HD
ATOM     77  H   UNL     1     154.335 165.485 189.328  0.00  0.00    +0.027 HD
BRANCH  75  78
ATOM     78  C   UNL     1     152.936 166.825 190.259  0.00  0.00    +0.007 C 
ATOM     79  H   UNL     1     153.320 167.535 190.997  0.00  0.00    +0.034 HD
ATOM     80  H   UNL     1     152.066 167.262 189.761  0.00  0.00    +0.034 HD
BRANCH  78  81
ATOM     81  C   UNL     1     152.488 165.576 191.009  0.00  0.00    +0.140 C 
ATOM     82  O   UNL     1     152.256 164.512 190.426  0.00  0.00    -0.297 OA
BRANCH  81  83
ATOM     83  C   UNL     1     152.362 165.636 192.530  0.00  0.00    +0.052 C 
ATOM     84  H   UNL     1     152.773 164.687 192.898  0.00  0.00    +0.041 HD
BRANCH  83  85
ATOM     85  C   UNL     1     153.269 166.729 193.099  0.00  0.00    -0.052 C 
ATOM     86  H   UNL     1     153.640 166.433 194.086  0.00  0.00    +0.024 HD
ATOM     87  H   UNL     1     154.137 166.926 192.464  0.00  0.00    +0.024 HD
ATOM     88  H   UNL     1     152.718 167.666 193.218  0.00  0.00    +0.024 HD
ENDBRANCH  83  85
BRANCH  83  89
ATOM     89  C   UNL     1     150.919 165.762 193.063  0.00  0.00    +0.118 C 
ATOM     90  H   UNL     1     150.508 164.743 193.014  0.00  0.00    +0.075 HD
BRANCH  89  91
ATOM     91  C   UNL     1     149.942 166.674 192.263  0.00  0.00    +0.014 C 
ATOM     92  H   UNL     1     150.287 166.650 191.218  0.00  0.00    +0.038 HD
BRANCH  91  93
ATOM     93  C   UNL     1     150.050 168.142 192.691  0.00  0.00    -0.056 C 
ATOM     94  H   UNL     1     150.100 168.825 191.837  0.00  0.00    +0.024 HD
ATOM     95  H   UNL     1     150.946 168.305 193.301  0.00  0.00    +0.024 HD
ATOM     96  H   UNL     1     149.187 168.431 193.300  0.00  0.00    +0.024 HD
ENDBRANCH  91  93
BRANCH  91  97
ATOM     97  C   UNL     1     148.527 166.127 192.186  0.00  0.00    -0.064 C 
ATOM     98  C   UNL     1     147.521 166.345 193.043  0.00  0.00    -0.010 C 
ATOM     99  H   UNL     1     148.333 165.512 191.309  0.00  0.00    +0.059 HD
ATOM    100  H   UNL     1     147.698 166.943 193.937  0.00  0.00    +0.078 HD
BRANCH  98 101
ATOM    101  N   UNL     1     146.218 165.878 192.980  0.00  0.00    -0.317 N 
BRANCH 101 102
ATOM    102  C   UNL     1     145.476 165.749 191.729  0.00  0.00    +0.002 C 
ATOM    103  H   UNL     1     144.680 165.003 191.828  0.00  0.00    +0.043 HD
ATOM    104  H   UNL     1     145.005 166.691 191.425  0.00  0.00    +0.043 HD
ATOM    105  H   UNL     1     146.149 165.444 190.917  0.00  0.00    +0.043 HD
ENDBRANCH 101 102
BRANCH 101 106
ATOM    106  C   UNL     1     145.490 165.502 194.180  0.00  0.00    +0.110 C 
ATOM    107  H   UNL     1     144.643 164.844 193.949  0.00  0.00    +0.077 HD
ATOM    108  H   UNL     1     145.095 166.368 194.722  0.00  0.00    +0.077 HD
BRANCH 106 109
ATOM    109  O   UNL     1     146.396 164.811 195.010  0.00  0.00    -0.377 OA
ATOM    110  H   UNL     1     146.072 163.895 194.938  0.00  0.00    +0.211 HD
ENDBRANCH 106 109
ENDBRANCH 101 106
ENDBRANCH  98 101
ENDBRANCH  91  97
ENDBRANCH  89  91
BRANCH  89 111
ATOM    111  O   UNL     1     150.956 166.161 194.454  0.00  0.00    -0.460 OA
BRANCH 111 112
ATOM    112  C   UNL     1     150.469 165.275 195.366  0.00  0.00    +0.304 C 
ATOM    113  O   UNL     1     150.653 164.066 195.357  0.00  0.00    -0.251 OA
BRANCH 112 114
ATOM    114  C   UNL     1     149.649 166.002 196.386  0.00  0.00    +0.033 C 
ATOM    115  H   UNL     1     148.806 166.497 195.898  0.00  0.00    +0.034 HD
ATOM    116  H   UNL     1     150.270 166.731 196.910  0.00  0.00    +0.034 HD
ATOM    117  H   UNL     1     149.260 165.288 197.117  0.00  0.00    +0.034 HD
ENDBRANCH 112 114
ENDBRANCH 111 112
ENDBRANCH  89 111
ENDBRANCH  83  89
ENDBRANCH  81  83
ENDBRANCH  78  81
ENDBRANCH  75  78
ENDBRANCH  69  75
ENDBRANCH  67  69
BRANCH  67 118
ATOM    118  O   UNL     1     152.464 164.948 186.430  0.00  0.00    -0.379 OA
BRANCH 118 119
ATOM    119  C   UNL     1     152.326 163.569 186.754  0.00  0.00    +0.037 C 
ATOM    120  H   UNL     1     153.238 163.247 187.267  0.00  0.00    +0.052 HD
ATOM    121  H   UNL     1     151.478 163.421 187.432  0.00  0.00    +0.052 HD
ATOM    122  H   UNL     1     152.203 162.959 185.855  0.00  0.00    +0.052 HD
ENDBRANCH 118 119
ENDBRANCH  67 118
ENDBRANCH  64  67
ENDBRANCH  13  64
BRANCH   8 123
ATOM    123  O   UNL     1     157.877 169.346 185.738  0.00  0.00    -0.391 OA
ATOM    124  H   UNL     1     158.029 170.228 185.351  0.00  0.00    +0.210 HD
ENDBRANCH   8 123
BRANCH  15 125
ATOM    125  O   UNL     1     156.342 163.124 181.983  0.00  0.00    -0.379 OA
BRANCH 125 126
ATOM    126  C   UNL     1     157.238 163.405 180.915  0.00  0.00    +0.037 C 
ATOM    127  H   UNL     1     158.198 163.769 181.294  0.00  0.00    +0.052 HD
ATOM    128  H   UNL     1     157.414 162.477 180.365  0.00  0.00    +0.052 HD
ATOM    129  H   UNL     1     156.806 164.129 180.219  0.00  0.00    +0.052 HD
ENDBRANCH 125 126
ENDBRANCH  15 125
TORSDOF 27
ENDMDL
MODEL 2
REMARK VINA RESULT:      -6.5      6.170     12.316
REMARK  Name = Ulapualide A_conf2
REMARK  27 active torsions:
REMARK  status: ('A' for Active; 'I' for Inactive)
REMARK    1  A    between atoms: C_1  and  C_2
REMARK    2  A    between atoms: C_9  and  O_63
REMARK    3  A    between atoms: C_14  and  C_38
REMARK    4  A    between atoms: C_15  and  C_37
REMARK    5  A    between atoms: C_16  and  O_35
REMARK    6  A    between atoms: O_35  and  C_36
REMARK    7  A    between atoms: C_38  and  C_39
REMARK    8  A    between atoms: C_39  and  C_40
REMARK    9  A    between atoms: C_39  and  O_61
REMARK   10  A    between atoms: C_40  and  C_41
REMARK   11  A    between atoms: C_40  and  C_42
REMARK   12  A    between atoms: C_42  and  C_43
REMARK   13  A    between atoms: C_43  and  C_44
REMARK   14  A    between atoms: C_44  and  C_46
REMARK   15  A    between atoms: C_46  and  C_47
REMARK   16  A    between atoms: C_46  and  C_48
REMARK   17  A    between atoms: C_48  and  C_49
REMARK   18  A    between atoms: C_48  and  O_57
REMARK   19  A    between atoms: C_49  and  C_50
REMARK   20  A    between atoms: C_49  and  C_51
REMARK   21  A    between atoms: C_52  and  N_53
REMARK   22  A    between atoms: N_53  and  C_54
REMARK   23  A    between atoms: N_53  and  C_55
REMARK   24  A    between atoms: C_55  and  O_56
REMARK   25  A    between atoms: O_57  and  C_58
REMARK   26  A    between atoms: C_58  and  C_60
REMARK   27  A    between atoms: O_61  and  C_62
REMARK                            x       y       z     vdW  Elec       q    Type
REMARK                         _______ _______ _______ _____ _____    ______ ____
ROOT
ATOM      1  C   UNL     1     146.610 157.072 189.606  0.00  0.00    +0.008 C 
ATOM      2  C   UNL     1     145.609 156.922 188.456  0.00  0.00    +0.014 C 
ATOM      3  C   UNL     1     145.459 158.114 187.524  0.00  0.00    +0.134 C 
ATOM      4  O   UNL     1     145.893 158.062 186.371  0.00  0.00    -0.297 OA
ATOM      5  C   UNL     1     144.710 159.324 188.053  0.00  0.00    +0.006 C 
ATOM      6  C   UNL     1     144.184 160.221 186.936  0.00  0.00    -0.044 C 
ATOM      7  C   UNL     1     143.125 161.239 187.383  0.00  0.00    -0.026 C 
ATOM      8  C   UNL     1     143.570 162.163 188.525  0.00  0.00    +0.065 C 
ATOM      9  C   UNL     1     142.632 163.363 188.650  0.00  0.00    +0.071 C 
ATOM     10  C   UNL     1     143.251 164.457 189.478  0.00  0.00    +0.310 C 
ATOM     11  O   UNL     1     142.802 164.841 190.552  0.00  0.00    -0.251 OA
ATOM     12  O   UNL     1     144.324 164.990 188.832  0.00  0.00    -0.461 OA
ATOM     13  C   UNL     1     144.975 166.116 189.467  0.00  0.00    +0.110 C 
ATOM     14  C   UNL     1     145.466 167.078 188.343  0.00  0.00    +0.020 C 
ATOM     15  C   UNL     1     146.095 166.382 187.088  0.00  0.00    +0.068 C 
ATOM     16  C   UNL     1     147.537 165.864 187.289  0.00  0.00    -0.008 C 
ATOM     17  C   UNL     1     148.574 166.957 187.436  0.00  0.00    -0.077 C 
ATOM     18  C   UNL     1     149.907 166.815 187.365  0.00  0.00    -0.003 C 
ATOM     19  C   UNL     1     150.569 165.561 187.238  0.00  0.00    +0.220 A 
ATOM     20  N   UNL     1     150.064 164.360 187.481  0.00  0.00    -0.205 NA
ATOM     21  C   UNL     1     151.100 163.483 187.294  0.00  0.00    +0.164 A 
ATOM     22  C   UNL     1     152.221 164.169 186.913  0.00  0.00    +0.125 A 
ATOM     23  O   UNL     1     151.908 165.492 186.880  0.00  0.00    -0.443 OA
ATOM     24  C   UNL     1     151.046 161.937 187.506  0.00  0.00    +0.250 A 
ATOM     25  N   UNL     1     149.977 161.276 187.925  0.00  0.00    -0.203 NA
ATOM     26  C   UNL     1     150.397 159.970 187.999  0.00  0.00    +0.164 A 
ATOM     27  C   UNL     1     151.709 159.880 187.609  0.00  0.00    +0.125 A 
ATOM     28  O   UNL     1     152.141 161.130 187.287  0.00  0.00    -0.442 OA
ATOM     29  C   UNL     1     149.554 158.736 188.453  0.00  0.00    +0.249 A 
ATOM     30  N   UNL     1     148.290 158.777 188.846  0.00  0.00    -0.212 NA
ATOM     31  C   UNL     1     147.969 157.471 189.137  0.00  0.00    +0.083 A 
ATOM     32  C   UNL     1     149.069 156.675 188.918  0.00  0.00    +0.116 A 
ATOM     33  O   UNL     1     150.085 157.464 188.481  0.00  0.00    -0.442 OA
ATOM     34  H   UNL     1     146.708 156.065 190.040  0.00  0.00    +0.037 HD
ATOM     35  H   UNL     1     144.616 156.654 188.834  0.00  0.00    +0.035 HD
ATOM     36  H   UNL     1     145.923 156.077 187.826  0.00  0.00    +0.035 HD
ATOM     37  H   UNL     1     143.871 158.958 188.656  0.00  0.00    +0.034 HD
ATOM     38  H   UNL     1     145.396 159.895 188.686  0.00  0.00    +0.034 HD
ATOM     39  H   UNL     1     145.026 160.753 186.474  0.00  0.00    +0.027 HD
ATOM     40  H   UNL     1     143.741 159.604 186.141  0.00  0.00    +0.027 HD
ATOM     41  H   UNL     1     142.863 161.840 186.503  0.00  0.00    +0.029 HD
ATOM     42  H   UNL     1     142.220 160.693 187.682  0.00  0.00    +0.029 HD
ATOM     43  H   UNL     1     144.601 162.491 188.353  0.00  0.00    +0.060 HD
ATOM     44  H   UNL     1     141.687 163.075 189.128  0.00  0.00    +0.040 HD
ATOM     45  H   UNL     1     142.387 163.798 187.674  0.00  0.00    +0.040 HD
ATOM     46  H   UNL     1     144.221 166.663 190.051  0.00  0.00    +0.074 HD
ATOM     47  H   UNL     1     146.178 167.799 188.762  0.00  0.00    +0.036 HD
ATOM     48  H   UNL     1     145.460 165.533 186.807  0.00  0.00    +0.060 HD
ATOM     49  H   UNL     1     147.806 165.265 186.409  0.00  0.00    +0.033 HD
ATOM     50  H   UNL     1     147.583 165.185 188.137  0.00  0.00    +0.033 HD
ATOM     51  H   UNL     1     148.188 167.969 187.568  0.00  0.00    +0.057 HD
ATOM     52  H   UNL     1     150.538 167.694 187.422  0.00  0.00    +0.067 HD
ATOM     53  H   UNL     1     153.238 163.903 186.663  0.00  0.00    +0.105 HD
ATOM     54  H   UNL     1     152.426 159.079 187.516  0.00  0.00    +0.105 HD
ATOM     55  H   UNL     1     149.279 155.621 188.996  0.00  0.00    +0.105 HD
ENDROOT
BRANCH   1  56
ATOM     56  C   UNL     1     146.105 157.951 190.751  0.00  0.00    -0.056 C 
ATOM     57  H   UNL     1     146.896 158.634 191.083  0.00  0.00    +0.024 HD
ATOM     58  H   UNL     1     145.254 158.574 190.467  0.00  0.00    +0.024 HD
ATOM     59  H   UNL     1     145.812 157.342 191.615  0.00  0.00    +0.024 HD
ENDBRANCH   1  56
BRANCH  14  60
ATOM     60  C   UNL     1     144.243 167.917 187.894  0.00  0.00    -0.057 C 
ATOM     61  H   UNL     1     144.502 168.599 187.078  0.00  0.00    +0.023 HD
ATOM     62  H   UNL     1     143.872 168.542 188.713  0.00  0.00    +0.023 HD
ATOM     63  H   UNL     1     143.423 167.272 187.558  0.00  0.00    +0.023 HD
ENDBRANCH  14  60
BRANCH  13  64
ATOM     64  C   UNL     1     146.011 165.581 190.479  0.00  0.00    +0.011 C 
ATOM     65  H   UNL     1     145.721 164.561 190.751  0.00  0.00    +0.033 HD
ATOM     66  H   UNL     1     146.994 165.494 190.021  0.00  0.00    +0.033 HD
BRANCH  64  67
ATOM     67  C   UNL     1     146.108 166.444 191.752  0.00  0.00    +0.064 C 
ATOM     68  H   UNL     1     146.111 165.776 192.624  0.00  0.00    +0.060 HD
BRANCH  67  69
ATOM     69  C   UNL     1     147.395 167.316 191.813  0.00  0.00    -0.017 C 
ATOM     70  H   UNL     1     148.239 166.696 191.488  0.00  0.00    +0.032 HD
BRANCH  69  71
ATOM     71  C   UNL     1     147.309 168.481 190.814  0.00  0.00    -0.060 C 
ATOM     72  H   UNL     1     147.919 169.327 191.148  0.00  0.00    +0.023 HD
ATOM     73  H   UNL     1     147.645 168.192 189.813  0.00  0.00    +0.023 HD
ATOM     74  H   UNL     1     146.276 168.836 190.725  0.00  0.00    +0.023 HD
ENDBRANCH  69  71
BRANCH  69  75
ATOM     75  C   UNL     1     147.764 167.871 193.208  0.00  0.00    -0.041 C 
ATOM     76  H   UNL     1     147.091 168.690 193.491  0.00  0.00    +0.027 HD
ATOM     77  H   UNL     1     148.763 168.320 193.141  0.00  0.00    +0.027 HD
BRANCH  75  78
ATOM     78  C   UNL     1     147.778 166.811 194.311  0.00  0.00    +0.007 C 
ATOM     79  H   UNL     1     147.945 167.285 195.282  0.00  0.00    +0.034 HD
ATOM     80  H   UNL     1     146.812 166.298 194.325  0.00  0.00    +0.034 HD
BRANCH  78  81
ATOM     81  C   UNL     1     148.874 165.771 194.110  0.00  0.00    +0.140 C 
ATOM     82  O   UNL     1     148.632 164.643 193.670  0.00  0.00    -0.297 OA
BRANCH  81  83
ATOM     83  C   UNL     1     150.319 166.154 194.426  0.00  0.00    +0.052 C 
ATOM     84  H   UNL     1     150.255 167.034 195.077  0.00  0.00    +0.041 HD
BRANCH  83  85
ATOM     85  C   UNL     1     150.991 165.065 195.265  0.00  0.00    -0.052 C 
ATOM     86  H   UNL     1     150.628 164.078 194.960  0.00  0.00    +0.024 HD
ATOM     87  H   UNL     1     152.079 165.066 195.158  0.00  0.00    +0.024 HD
ATOM     88  H   UNL     1     150.756 165.193 196.325  0.00  0.00    +0.024 HD
ENDBRANCH  83  85
BRANCH  83  89
ATOM     89  C   UNL     1     151.177 166.535 193.201  0.00  0.00    +0.118 C 
ATOM     90  H   UNL     1     150.696 166.033 192.349  0.00  0.00    +0.075 HD
BRANCH  89  91
ATOM     91  C   UNL     1     152.666 166.074 193.203  0.00  0.00    +0.014 C 
ATOM     92  H   UNL     1     152.717 165.211 193.884  0.00  0.00    +0.038 HD
BRANCH  91  93
ATOM     93  C   UNL     1     153.590 167.131 193.820  0.00  0.00    -0.056 C 
ATOM     94  H   UNL     1     153.039 167.895 194.378  0.00  0.00    +0.024 HD
ATOM     95  H   UNL     1     154.173 167.640 193.044  0.00  0.00    +0.024 HD
ATOM     96  H   UNL     1     154.303 166.664 194.508  0.00  0.00    +0.024 HD
ENDBRANCH  91  93
BRANCH  91  97
ATOM     97  C   UNL     1     153.129 165.510 191.872  0.00  0.00    -0.064 C 
ATOM     98  C   UNL     1     153.992 166.062 191.009  0.00  0.00    -0.010 C 
ATOM     99  H   UNL     1     152.714 164.533 191.632  0.00  0.00    +0.059 HD
ATOM    100  H   UNL     1     154.406 167.047 191.221  0.00  0.00    +0.078 HD
BRANCH  98 101
ATOM    101  N   UNL     1     154.448 165.555 189.802  0.00  0.00    -0.317 N 
BRANCH 101 102
ATOM    102  C   UNL     1     154.703 164.134 189.578  0.00  0.00    +0.002 C 
ATOM    103  H   UNL     1     154.236 163.801 188.645  0.00  0.00    +0.043 HD
ATOM    104  H   UNL     1     155.773 163.910 189.506  0.00  0.00    +0.043 HD
ATOM    105  H   UNL     1     154.300 163.540 190.409  0.00  0.00    +0.043 HD
ENDBRANCH 101 102
BRANCH 101 106
ATOM    106  C   UNL     1     154.724 166.425 188.672  0.00  0.00    +0.110 C 
ATOM    107  H   UNL     1     154.869 165.852 187.747  0.00  0.00    +0.077 HD
ATOM    108  H   UNL     1     155.620 167.038 188.822  0.00  0.00    +0.077 HD
BRANCH 106 109
ATOM    109  O   UNL     1     153.606 167.270 188.521  0.00  0.00    -0.377 OA
ATOM    110  H   UNL     1     153.717 167.584 187.605  0.00  0.00    +0.211 HD
ENDBRANCH 106 109
ENDBRANCH 101 106
ENDBRANCH  98 101
ENDBRANCH  91  97
ENDBRANCH  89  91
BRANCH  89 111
ATOM    111  O   UNL     1     151.092 167.963 192.982  0.00  0.00    -0.460 OA
BRANCH 111 112
ATOM    112  C   UNL     1     151.047 168.391 191.691  0.00  0.00    +0.304 C 
ATOM    113  O   UNL     1     150.753 167.707 190.720  0.00  0.00    -0.251 OA
BRANCH 112 114
ATOM    114  C   UNL     1     151.433 169.837 191.625  0.00  0.00    +0.033 C 
ATOM    115  H   UNL     1     151.553 170.140 190.583  0.00  0.00    +0.034 HD
ATOM    116  H   UNL     1     152.359 169.998 192.180  0.00  0.00    +0.034 HD
ATOM    117  H   UNL     1     150.645 170.445 192.079  0.00  0.00    +0.034 HD
ENDBRANCH 112 114
ENDBRANCH 111 112
ENDBRANCH  89 111
ENDBRANCH  83  89
ENDBRANCH  81  83
ENDBRANCH  78  81
ENDBRANCH  75  78
ENDBRANCH  69  75
ENDBRANCH  67  69
BRANCH  67 118
ATOM    118  O   UNL     1     144.938 167.270 191.805  0.00  0.00    -0.379 OA
BRANCH 118 119
ATOM    119  C   UNL     1     144.083 166.967 192.902  0.00  0.00    +0.037 C 
ATOM    120  H   UNL     1     143.511 166.070 192.648  0.00  0.00    +0.052 HD
ATOM    121  H   UNL     1     144.675 166.758 193.799  0.00  0.00    +0.052 HD
ATOM    122  H   UNL     1     143.379 167.782 193.095  0.00  0.00    +0.052 HD
ENDBRANCH 118 119
ENDBRANCH  67 118
ENDBRANCH  64  67
ENDBRANCH  13  64
BRANCH   8 123
ATOM    123  O   UNL     1     143.555 161.431 189.753  0.00  0.00    -0.391 OA
ATOM    124  H   UNL     1     144.254 160.753 189.719  0.00  0.00    +0.210 HD
ENDBRANCH   8 123
BRANCH  15 125
ATOM    125  O   UNL     1     146.072 167.314 185.980  0.00  0.00    -0.379 OA
BRANCH 125 126
ATOM    126  C   UNL     1     145.954 166.698 184.704  0.00  0.00    +0.037 C 
ATOM    127  H   UNL     1     144.934 166.788 184.318  0.00  0.00    +0.052 HD
ATOM    128  H   UNL     1     146.629 167.211 184.015  0.00  0.00    +0.052 HD
ATOM    129  H   UNL     1     146.252 165.647 184.745  0.00  0.00    +0.052 HD
ENDBRANCH 125 126
ENDBRANCH  15 125
TORSDOF 27
ENDMDL
MODEL 3
REMARK VINA RESULT:      -6.4      1.832      2.719
REMARK  Name = Ulapualide A_conf2
REMARK  27 active torsions:
REMARK  status: ('A' for Active; 'I' for Inactive)
REMARK    1  A    between atoms: C_1  and  C_2
REMARK    2  A    between atoms: C_9  and  O_63
REMARK    3  A    between atoms: C_14  and  C_38
REMARK    4  A    between atoms: C_15  and  C_37
REMARK    5  A    between atoms: C_16  and  O_35
REMARK    6  A    between atoms: O_35  and  C_36
REMARK    7  A    between atoms: C_38  and  C_39
REMARK    8  A    between atoms: C_39  and  C_40
REMARK    9  A    between atoms: C_39  and  O_61
REMARK   10  A    between atoms: C_40  and  C_41
REMARK   11  A    between atoms: C_40  and  C_42
REMARK   12  A    between atoms: C_42  and  C_43
REMARK   13  A    between atoms: C_43  and  C_44
REMARK   14  A    between atoms: C_44  and  C_46
REMARK   15  A    between atoms: C_46  and  C_47
REMARK   16  A    between atoms: C_46  and  C_48
REMARK   17  A    between atoms: C_48  and  C_49
REMARK   18  A    between atoms: C_48  and  O_57
REMARK   19  A    between atoms: C_49  and  C_50
REMARK   20  A    between atoms: C_49  and  C_51
REMARK   21  A    between atoms: C_52  and  N_53
REMARK   22  A    between atoms: N_53  and  C_54
REMARK   23  A    between atoms: N_53  and  C_55
REMARK   24  A    between atoms: C_55  and  O_56
REMARK   25  A    between atoms: O_57  and  C_58
REMARK   26  A    between atoms: C_58  and  C_60
REMARK   27  A    between atoms: O_61  and  C_62
REMARK                            x       y       z     vdW  Elec       q    Type
REMARK                         _______ _______ _______ _____ _____    ______ ____
ROOT
ATOM      1  C   UNL     1     156.579 174.115 183.452  0.00  0.00    +0.008 C 
ATOM      2  C   UNL     1     158.099 173.989 183.298  0.00  0.00    +0.014 C 
ATOM      3  C   UNL     1     158.622 172.666 182.764  0.00  0.00    +0.134 C 
ATOM      4  O   UNL     1     159.092 172.596 181.626  0.00  0.00    -0.297 OA
ATOM      5  C   UNL     1     158.592 171.473 183.702  0.00  0.00    +0.006 C 
ATOM      6  C   UNL     1     159.563 170.373 183.280  0.00  0.00    -0.044 C 
ATOM      7  C   UNL     1     159.846 169.324 184.365  0.00  0.00    -0.026 C 
ATOM      8  C   UNL     1     158.596 168.628 184.921  0.00  0.00    +0.065 C 
ATOM      9  C   UNL     1     158.976 167.366 185.695  0.00  0.00    +0.071 C 
ATOM     10  C   UNL     1     157.781 166.475 185.909  0.00  0.00    +0.310 C 
ATOM     11  O   UNL     1     157.315 166.205 187.009  0.00  0.00    -0.251 OA
ATOM     12  O   UNL     1     157.348 165.971 184.720  0.00  0.00    -0.461 OA
ATOM     13  C   UNL     1     156.255 165.024 184.773  0.00  0.00    +0.110 C 
ATOM     14  C   UNL     1     156.486 163.967 183.651  0.00  0.00    +0.020 C 
ATOM     15  C   UNL     1     156.999 164.536 182.284  0.00  0.00    +0.068 C 
ATOM     16  C   UNL     1     155.917 165.228 181.423  0.00  0.00    -0.008 C 
ATOM     17  C   UNL     1     154.879 164.283 180.856  0.00  0.00    -0.077 C 
ATOM     18  C   UNL     1     153.993 164.554 179.885  0.00  0.00    -0.003 C 
ATOM     19  C   UNL     1     153.822 165.839 179.296  0.00  0.00    +0.220 A 
ATOM     20  N   UNL     1     154.234 167.003 179.780  0.00  0.00    -0.205 NA
ATOM     21  C   UNL     1     153.768 167.948 178.904  0.00  0.00    +0.164 A 
ATOM     22  C   UNL     1     153.096 167.337 177.881  0.00  0.00    +0.125 A 
ATOM     23  O   UNL     1     153.111 165.998 178.115  0.00  0.00    -0.443 OA
ATOM     24  C   UNL     1     153.938 169.494 179.044  0.00  0.00    +0.250 A 
ATOM     25  N   UNL     1     154.543 170.092 180.060  0.00  0.00    -0.203 NA
ATOM     26  C   UNL     1     154.421 171.432 179.782  0.00  0.00    +0.164 A 
ATOM     27  C   UNL     1     153.754 171.603 178.596  0.00  0.00    +0.125 A 
ATOM     28  O   UNL     1     153.440 170.373 178.107  0.00  0.00    -0.442 OA
ATOM     29  C   UNL     1     154.941 172.622 180.651  0.00  0.00    +0.249 A 
ATOM     30  N   UNL     1     155.579 172.505 181.804  0.00  0.00    -0.212 NA
ATOM     31  C   UNL     1     155.846 173.798 182.192  0.00  0.00    +0.083 A 
ATOM     32  C   UNL     1     155.341 174.666 181.253  0.00  0.00    +0.116 A 
ATOM     33  O   UNL     1     154.765 173.934 180.264  0.00  0.00    -0.442 OA
ATOM     34  H   UNL     1     156.395 175.178 183.668  0.00  0.00    +0.037 HD
ATOM     35  H   UNL     1     158.607 174.203 184.245  0.00  0.00    +0.035 HD
ATOM     36  H   UNL     1     158.444 174.762 182.597  0.00  0.00    +0.035 HD
ATOM     37  H   UNL     1     158.856 171.831 184.703  0.00  0.00    +0.034 HD
ATOM     38  H   UNL     1     157.573 171.075 183.710  0.00  0.00    +0.034 HD
ATOM     39  H   UNL     1     159.173 169.872 182.384  0.00  0.00    +0.027 HD
ATOM     40  H   UNL     1     160.525 170.818 182.986  0.00  0.00    +0.027 HD
ATOM     41  H   UNL     1     160.519 168.577 183.926  0.00  0.00    +0.029 HD
ATOM     42  H   UNL     1     160.393 169.809 185.185  0.00  0.00    +0.029 HD
ATOM     43  H   UNL     1     157.911 168.389 184.100  0.00  0.00    +0.060 HD
ATOM     44  H   UNL     1     159.386 167.618 186.681  0.00  0.00    +0.040 HD
ATOM     45  H   UNL     1     159.730 166.770 185.168  0.00  0.00    +0.040 HD
ATOM     46  H   UNL     1     156.309 164.490 185.733  0.00  0.00    +0.074 HD
ATOM     47  H   UNL     1     155.565 163.393 183.491  0.00  0.00    +0.036 HD
ATOM     48  H   UNL     1     157.793 165.264 182.487  0.00  0.00    +0.060 HD
ATOM     49  H   UNL     1     156.419 165.718 180.580  0.00  0.00    +0.033 HD
ATOM     50  H   UNL     1     155.434 166.024 181.986  0.00  0.00    +0.033 HD
ATOM     51  H   UNL     1     154.889 163.267 181.249  0.00  0.00    +0.057 HD
ATOM     52  H   UNL     1     153.344 163.765 179.523  0.00  0.00    +0.067 HD
ATOM     53  H   UNL     1     152.579 167.670 176.993  0.00  0.00    +0.105 HD
ATOM     54  H   UNL     1     153.442 172.454 178.010  0.00  0.00    +0.105 HD
ATOM     55  H   UNL     1     155.323 175.736 181.130  0.00  0.00    +0.105 HD
ENDROOT
BRANCH   1  56
ATOM     56  C   UNL     1     156.019 173.362 184.660  0.00  0.00    -0.056 C 
ATOM     57  H   UNL     1     156.613 172.463 184.858  0.00  0.00    +0.024 HD
ATOM     58  H   UNL     1     156.038 173.955 185.578  0.00  0.00    +0.024 HD
ATOM     59  H   UNL     1     154.986 173.042 184.480  0.00  0.00    +0.024 HD
ENDBRANCH   1  56
BRANCH  14  60
ATOM     60  C   UNL     1     157.520 162.947 184.191  0.00  0.00    -0.057 C 
ATOM     61  H   UNL     1     158.468 163.009 183.647  0.00  0.00    +0.023 HD
ATOM     62  H   UNL     1     157.161 161.920 184.069  0.00  0.00    +0.023 HD
ATOM     63  H   UNL     1     157.721 163.114 185.256  0.00  0.00    +0.023 HD
ENDBRANCH  14  60
BRANCH  13  64
ATOM     64  C   UNL     1     154.923 165.807 184.780  0.00  0.00    +0.011 C 
ATOM     65  H   UNL     1     155.089 166.749 185.313  0.00  0.00    +0.033 HD
ATOM     66  H   UNL     1     154.632 166.088 183.770  0.00  0.00    +0.033 HD
BRANCH  64  67
ATOM     67  C   UNL     1     153.775 165.031 185.453  0.00  0.00    +0.064 C 
ATOM     68  H   UNL     1     154.121 164.009 185.658  0.00  0.00    +0.060 HD
BRANCH  67  69
ATOM     69  C   UNL     1     153.310 165.658 186.800  0.00  0.00    -0.017 C 
ATOM     70  H   UNL     1     153.618 164.986 187.609  0.00  0.00    +0.032 HD
BRANCH  69  71
ATOM     71  C   UNL     1     154.027 166.993 187.053  0.00  0.00    -0.060 C 
ATOM     72  H   UNL     1     153.311 167.771 187.340  0.00  0.00    +0.023 HD
ATOM     73  H   UNL     1     154.780 166.914 187.844  0.00  0.00    +0.023 HD
ATOM     74  H   UNL     1     154.537 167.335 186.145  0.00  0.00    +0.023 HD
ENDBRANCH  69  71
BRANCH  69  75
ATOM     75  C   UNL     1     151.785 165.863 186.952  0.00  0.00    -0.041 C 
ATOM     76  H   UNL     1     151.304 164.949 187.323  0.00  0.00    +0.027 HD
ATOM     77  H   UNL     1     151.364 166.032 185.952  0.00  0.00    +0.027 HD
BRANCH  75  78
ATOM     78  C   UNL     1     151.406 167.045 187.847  0.00  0.00    +0.007 C 
ATOM     79  H   UNL     1     152.289 167.656 188.053  0.00  0.00    +0.034 HD
ATOM     80  H   UNL     1     150.659 167.656 187.333  0.00  0.00    +0.034 HD
BRANCH  78  81
ATOM     81  C   UNL     1     150.828 166.602 189.187  0.00  0.00    +0.140 C 
ATOM     82  O   UNL     1     149.979 165.708 189.269  0.00  0.00    -0.297 OA
BRANCH  81  83
ATOM     83  C   UNL     1     151.346 167.258 190.465  0.00  0.00    +0.052 C 
ATOM     84  H   UNL     1     152.054 168.029 190.135  0.00  0.00    +0.041 HD
BRANCH  83  85
ATOM     85  C   UNL     1     150.219 168.009 191.177  0.00  0.00    -0.052 C 
ATOM     86  H   UNL     1     150.637 168.727 191.889  0.00  0.00    +0.024 HD
ATOM     87  H   UNL     1     149.582 168.564 190.482  0.00  0.00    +0.024 HD
ATOM     88  H   UNL     1     149.585 167.316 191.737  0.00  0.00    +0.024 HD
ENDBRANCH  83  85
BRANCH  83  89
ATOM     89  C   UNL     1     152.094 166.314 191.429  0.00  0.00    +0.118 C 
ATOM     90  H   UNL     1     151.538 165.366 191.386  0.00  0.00    +0.075 HD
BRANCH  89  91
ATOM     91  C   UNL     1     152.151 166.727 192.930  0.00  0.00    +0.014 C 
ATOM     92  H   UNL     1     151.688 167.724 192.991  0.00  0.00    +0.038 HD
BRANCH  91  93
ATOM     93  C   UNL     1     153.592 166.920 193.416  0.00  0.00    -0.056 C 
ATOM     94  H   UNL     1     153.806 166.356 194.329  0.00  0.00    +0.024 HD
ATOM     95  H   UNL     1     153.796 167.978 193.621  0.00  0.00    +0.024 HD
ATOM     96  H   UNL     1     154.304 166.596 192.648  0.00  0.00    +0.024 HD
ENDBRANCH  91  93
BRANCH  91  97
ATOM     97  C   UNL     1     151.276 165.871 193.830  0.00  0.00    -0.064 C 
ATOM     98  C   UNL     1     151.345 165.755 195.162  0.00  0.00    -0.010 C 
ATOM     99  H   UNL     1     150.499 165.319 193.304  0.00  0.00    +0.059 HD
ATOM    100  H   UNL     1     152.128 166.283 195.707  0.00  0.00    +0.078 HD
BRANCH  98 101
ATOM    101  N   UNL     1     150.544 165.000 196.005  0.00  0.00    -0.317 N 
BRANCH 101 102
ATOM    102  C   UNL     1     149.186 165.388 196.374  0.00  0.00    +0.002 C 
ATOM    103  H   UNL     1     148.622 164.522 196.737  0.00  0.00    +0.043 HD
ATOM    104  H   UNL     1     149.170 166.145 197.167  0.00  0.00    +0.043 HD
ATOM    105  H   UNL     1     148.663 165.813 195.507  0.00  0.00    +0.043 HD
ENDBRANCH 101 102
BRANCH 101 106
ATOM    106  C   UNL     1     151.024 163.765 196.601  0.00  0.00    +0.110 C 
ATOM    107  H   UNL     1     150.400 163.456 197.448  0.00  0.00    +0.077 HD
ATOM    108  H   UNL     1     152.055 163.845 196.963  0.00  0.00    +0.077 HD
BRANCH 106 109
ATOM    109  O   UNL     1     150.964 162.775 195.598  0.00  0.00    -0.377 OA
ATOM    110  H   UNL     1     150.196 163.069 195.076  0.00  0.00    +0.211 HD
ENDBRANCH 106 109
ENDBRANCH 101 106
ENDBRANCH  98 101
ENDBRANCH  91  97
ENDBRANCH  89  91
BRANCH  89 111
ATOM    111  O   UNL     1     153.428 166.071 190.923  0.00  0.00    -0.460 OA
BRANCH 111 112
ATOM    112  C   UNL     1     153.668 164.851 190.367  0.00  0.00    +0.304 C 
ATOM    113  O   UNL     1     152.842 163.963 190.208  0.00  0.00    -0.251 OA
BRANCH 112 114
ATOM    114  C   UNL     1     155.113 164.745 189.990  0.00  0.00    +0.033 C 
ATOM    115  H   UNL     1     155.738 164.931 190.866  0.00  0.00    +0.034 HD
ATOM    116  H   UNL     1     155.342 165.460 189.197  0.00  0.00    +0.034 HD
ATOM    117  H   UNL     1     155.320 163.737 189.620  0.00  0.00    +0.034 HD
ENDBRANCH 112 114
ENDBRANCH 111 112
ENDBRANCH  89 111
ENDBRANCH  83  89
ENDBRANCH  81  83
ENDBRANCH  78  81
ENDBRANCH  75  78
ENDBRANCH  69  75
ENDBRANCH  67  69
BRANCH  67 118
ATOM    118  O   UNL     1     152.686 164.975 184.523  0.00  0.00    -0.379 OA
BRANCH 118 119
ATOM    119  C   UNL     1     152.630 163.754 183.793  0.00  0.00    +0.037 C 
ATOM    120  H   UNL     1     153.437 163.107 184.151  0.00  0.00    +0.052 HD
ATOM    121  H   UNL     1     151.676 163.247 183.974  0.00  0.00    +0.052 HD
ATOM    122  H   UNL     1     152.773 163.923 182.722  0.00  0.00    +0.052 HD
ENDBRANCH 118 119
ENDBRANCH  67 118
ENDBRANCH  64  67
ENDBRANCH  13  64
BRANCH   8 123
ATOM    123  O   UNL     1     157.911 169.523 185.800  0.00  0.00    -0.391 OA
ATOM    124  H   UNL     1     157.771 169.075 186.654  0.00  0.00    +0.210 HD
ENDBRANCH   8 123
BRANCH  15 125
ATOM    125  O   UNL     1     157.594 163.457 181.525  0.00  0.00    -0.379 OA
BRANCH 125 126
ATOM    126  C   UNL     1     158.659 163.862 180.675  0.00  0.00    +0.037 C 
ATOM    127  H   UNL     1     159.444 164.370 181.245  0.00  0.00    +0.052 HD
ATOM    128  H   UNL     1     159.090 162.967 180.219  0.00  0.00    +0.052 HD
ATOM    129  H   UNL     1     158.297 164.507 179.870  0.00  0.00    +0.052 HD
ENDBRANCH 125 126
ENDBRANCH  15 125
TORSDOF 27
ENDMDL
MODEL 4
REMARK VINA RESULT:      -6.1      1.691      2.368
REMARK  Name = Ulapualide A_conf2
REMARK  27 active torsions:
REMARK  status: ('A' for Active; 'I' for Inactive)
REMARK    1  A    between atoms: C_1  and  C_2
REMARK    2  A    between atoms: C_9  and  O_63
REMARK    3  A    between atoms: C_14  and  C_38
REMARK    4  A    between atoms: C_15  and  C_37
REMARK    5  A    between atoms: C_16  and  O_35
REMARK    6  A    between atoms: O_35  and  C_36
REMARK    7  A    between atoms: C_38  and  C_39
REMARK    8  A    between atoms: C_39  and  C_40
REMARK    9  A    between atoms: C_39  and  O_61
REMARK   10  A    between atoms: C_40  and  C_41
REMARK   11  A    between atoms: C_40  and  C_42
REMARK   12  A    between atoms: C_42  and  C_43
REMARK   13  A    between atoms: C_43  and  C_44
REMARK   14  A    between atoms: C_44  and  C_46
REMARK   15  A    between atoms: C_46  and  C_47
REMARK   16  A    between atoms: C_46  and  C_48
REMARK   17  A    between atoms: C_48  and  C_49
REMARK   18  A    between atoms: C_48  and  O_57
REMARK   19  A    between atoms: C_49  and  C_50
REMARK   20  A    between atoms: C_49  and  C_51
REMARK   21  A    between atoms: C_52  and  N_53
REMARK   22  A    between atoms: N_53  and  C_54
REMARK   23  A    between atoms: N_53  and  C_55
REMARK   24  A    between atoms: C_55  and  O_56
REMARK   25  A    between atoms: O_57  and  C_58
REMARK   26  A    between atoms: C_58  and  C_60
REMARK   27  A    between atoms: O_61  and  C_62
REMARK                            x       y       z     vdW  Elec       q    Type
REMARK                         _______ _______ _______ _____ _____    ______ ____
ROOT
ATOM      1  C   UNL     1     156.547 173.981 183.371  0.00  0.00    +0.008 C 
ATOM      2  C   UNL     1     157.996 173.701 182.959  0.00  0.00    +0.014 C 
ATOM      3  C   UNL     1     158.294 172.313 182.416  0.00  0.00    +0.134 C 
ATOM      4  O   UNL     1     158.542 172.152 181.219  0.00  0.00    -0.297 OA
ATOM      5  C   UNL     1     158.326 171.166 183.410  0.00  0.00    +0.006 C 
ATOM      6  C   UNL     1     159.103 169.961 182.887  0.00  0.00    -0.044 C 
ATOM      7  C   UNL     1     159.482 168.933 183.962  0.00  0.00    -0.026 C 
ATOM      8  C   UNL     1     158.296 168.385 184.768  0.00  0.00    +0.065 C 
ATOM      9  C   UNL     1     158.695 167.123 185.533  0.00  0.00    +0.071 C 
ATOM     10  C   UNL     1     157.483 166.363 186.004  0.00  0.00    +0.310 C 
ATOM     11  O   UNL     1     157.202 166.185 187.183  0.00  0.00    -0.251 OA
ATOM     12  O   UNL     1     156.799 165.858 184.940  0.00  0.00    -0.461 OA
ATOM     13  C   UNL     1     155.653 165.026 185.239  0.00  0.00    +0.110 C 
ATOM     14  C   UNL     1     155.582 163.907 184.154  0.00  0.00    +0.020 C 
ATOM     15  C   UNL     1     155.888 164.370 182.689  0.00  0.00    +0.068 C 
ATOM     16  C   UNL     1     154.735 165.130 181.995  0.00  0.00    -0.008 C 
ATOM     17  C   UNL     1     153.530 164.270 181.673  0.00  0.00    -0.077 C 
ATOM     18  C   UNL     1     152.511 164.588 180.860  0.00  0.00    -0.003 C 
ATOM     19  C   UNL     1     152.353 165.860 180.239  0.00  0.00    +0.220 A 
ATOM     20  N   UNL     1     152.949 166.996 180.576  0.00  0.00    -0.205 NA
ATOM     21  C   UNL     1     152.419 167.947 179.745  0.00  0.00    +0.164 A 
ATOM     22  C   UNL     1     151.521 167.365 178.892  0.00  0.00    +0.125 A 
ATOM     23  O   UNL     1     151.457 166.041 179.195  0.00  0.00    -0.443 OA
ATOM     24  C   UNL     1     152.749 169.473 179.765  0.00  0.00    +0.250 A 
ATOM     25  N   UNL     1     153.579 170.048 180.623  0.00  0.00    -0.203 NA
ATOM     26  C   UNL     1     153.529 171.381 180.296  0.00  0.00    +0.164 A 
ATOM     27  C   UNL     1     152.677 171.570 179.238  0.00  0.00    +0.125 A 
ATOM     28  O   UNL     1     152.170 170.358 178.883  0.00  0.00    -0.442 OA
ATOM     29  C   UNL     1     154.302 172.548 180.991  0.00  0.00    +0.249 A 
ATOM     30  N   UNL     1     155.125 172.414 182.019  0.00  0.00    -0.212 NA
ATOM     31  C   UNL     1     155.572 173.689 182.280  0.00  0.00    +0.083 A 
ATOM     32  C   UNL     1     154.986 174.564 181.396  0.00  0.00    +0.116 A 
ATOM     33  O   UNL     1     154.177 173.855 180.568  0.00  0.00    -0.442 OA
ATOM     34  H   UNL     1     156.501 175.065 183.555  0.00  0.00    +0.037 HD
ATOM     35  H   UNL     1     158.684 173.901 183.788  0.00  0.00    +0.035 HD
ATOM     36  H   UNL     1     158.277 174.409 182.165  0.00  0.00    +0.035 HD
ATOM     37  H   UNL     1     158.799 171.536 184.327  0.00  0.00    +0.034 HD
ATOM     38  H   UNL     1     157.295 170.872 183.620  0.00  0.00    +0.034 HD
ATOM     39  H   UNL     1     158.514 169.465 182.103  0.00  0.00    +0.027 HD
ATOM     40  H   UNL     1     160.031 170.297 182.403  0.00  0.00    +0.027 HD
ATOM     41  H   UNL     1     159.995 168.107 183.454  0.00  0.00    +0.029 HD
ATOM     42  H   UNL     1     160.209 169.393 184.645  0.00  0.00    +0.029 HD
ATOM     43  H   UNL     1     157.455 168.183 184.095  0.00  0.00    +0.060 HD
ATOM     44  H   UNL     1     159.297 167.372 186.416  0.00  0.00    +0.040 HD
ATOM     45  H   UNL     1     159.285 166.436 184.915  0.00  0.00    +0.040 HD
ATOM     46  H   UNL     1     155.832 164.528 186.202  0.00  0.00    +0.074 HD
ATOM     47  H   UNL     1     154.600 163.422 184.192  0.00  0.00    +0.036 HD
ATOM     48  H   UNL     1     156.768 165.023 182.708  0.00  0.00    +0.060 HD
ATOM     49  H   UNL     1     155.119 165.535 181.050  0.00  0.00    +0.033 HD
ATOM     50  H   UNL     1     154.435 165.991 182.588  0.00  0.00    +0.033 HD
ATOM     51  H   UNL     1     153.521 163.274 182.115  0.00  0.00    +0.057 HD
ATOM     52  H   UNL     1     151.740 163.853 180.663  0.00  0.00    +0.067 HD
ATOM     53  H   UNL     1     150.883 167.712 178.092  0.00  0.00    +0.105 HD
ATOM     54  H   UNL     1     152.342 172.424 178.669  0.00  0.00    +0.105 HD
ATOM     55  H   UNL     1     155.042 175.626 181.219  0.00  0.00    +0.105 HD
ENDROOT
BRANCH   1  56
ATOM     56  C   UNL     1     156.149 173.336 184.699  0.00  0.00    -0.056 C 
ATOM     57  H   UNL     1     155.071 173.442 184.866  0.00  0.00    +0.024 HD
ATOM     58  H   UNL     1     156.365 172.266 184.735  0.00  0.00    +0.024 HD
ATOM     59  H   UNL     1     156.662 173.818 185.540  0.00  0.00    +0.024 HD
ENDBRANCH   1  56
BRANCH  14  60
ATOM     60  C   UNL     1     156.601 162.813 184.561  0.00  0.00    -0.057 C 
ATOM     61  H   UNL     1     157.127 163.078 185.484  0.00  0.00    +0.023 HD
ATOM     62  H   UNL     1     157.370 162.686 183.793  0.00  0.00    +0.023 HD
ATOM     63  H   UNL     1     156.105 161.847 184.712  0.00  0.00    +0.023 HD
ENDBRANCH  14  60
BRANCH  13  64
ATOM     64  C   UNL     1     154.421 165.936 185.436  0.00  0.00    +0.011 C 
ATOM     65  H   UNL     1     154.730 166.795 186.039  0.00  0.00    +0.033 HD
ATOM     66  H   UNL     1     154.085 166.347 184.487  0.00  0.00    +0.033 HD
BRANCH  64  67
ATOM     67  C   UNL     1     153.249 165.216 186.131  0.00  0.00    +0.064 C 
ATOM     68  H   UNL     1     153.545 164.175 186.320  0.00  0.00    +0.060 HD
BRANCH  67  69
ATOM     69  C   UNL     1     152.850 165.854 187.493  0.00  0.00    -0.017 C 
ATOM     70  H   UNL     1     152.993 165.098 188.275  0.00  0.00    +0.032 HD
BRANCH  69  71
ATOM     71  C   UNL     1     153.791 167.017 187.844  0.00  0.00    -0.060 C 
ATOM     72  H   UNL     1     154.613 166.674 188.482  0.00  0.00    +0.023 HD
ATOM     73  H   UNL     1     154.223 167.482 186.952  0.00  0.00    +0.023 HD
ATOM     74  H   UNL     1     153.252 167.796 188.394  0.00  0.00    +0.023 HD
ENDBRANCH  69  71
BRANCH  69  75
ATOM     75  C   UNL     1     151.385 166.335 187.605  0.00  0.00    -0.041 C 
ATOM     76  H   UNL     1     150.897 166.326 186.623  0.00  0.00    +0.027 HD
ATOM     77  H   UNL     1     151.397 167.387 187.919  0.00  0.00    +0.027 HD
BRANCH  75  78
ATOM     78  C   UNL     1     150.546 165.537 188.605  0.00  0.00    +0.007 C 
ATOM     79  H   UNL     1     149.595 165.249 188.149  0.00  0.00    +0.034 HD
ATOM     80  H   UNL     1     151.094 164.634 188.889  0.00  0.00    +0.034 HD
BRANCH  78  81
ATOM     81  C   UNL     1     150.232 166.328 189.869  0.00  0.00    +0.140 C 
ATOM     82  O   UNL     1     149.508 167.329 189.851  0.00  0.00    -0.297 OA
BRANCH  81  83
ATOM     83  C   UNL     1     150.799 165.842 191.202  0.00  0.00    +0.052 C 
ATOM     84  H   UNL     1     150.111 165.062 191.548  0.00  0.00    +0.041 HD
BRANCH  83  85
ATOM     85  C   UNL     1     152.144 165.144 190.988  0.00  0.00    -0.052 C 
ATOM     86  H   UNL     1     152.378 165.097 189.920  0.00  0.00    +0.024 HD
ATOM     87  H   UNL     1     152.968 165.663 191.486  0.00  0.00    +0.024 HD
ATOM     88  H   UNL     1     152.113 164.118 191.367  0.00  0.00    +0.024 HD
ENDBRANCH  83  85
BRANCH  83  89
ATOM     89  C   UNL     1     150.888 166.916 192.306  0.00  0.00    +0.118 C 
ATOM     90  H   UNL     1     149.917 167.433 192.279  0.00  0.00    +0.075 HD
BRANCH  89  91
ATOM     91  C   UNL     1     151.980 168.015 192.145  0.00  0.00    +0.014 C 
ATOM     92  H   UNL     1     152.390 167.893 191.130  0.00  0.00    +0.038 HD
BRANCH  91  93
ATOM     93  C   UNL     1     153.166 167.785 193.090  0.00  0.00    -0.056 C 
ATOM     94  H   UNL     1     153.376 168.656 193.719  0.00  0.00    +0.024 HD
ATOM     95  H   UNL     1     154.076 167.555 192.524  0.00  0.00    +0.024 HD
ATOM     96  H   UNL     1     152.971 166.935 193.752  0.00  0.00    +0.024 HD
ENDBRANCH  91  93
BRANCH  91  97
ATOM     97  C   UNL     1     151.425 169.429 192.139  0.00  0.00    -0.064 C 
ATOM     98  C   UNL     1     150.140 169.799 192.208  0.00  0.00    -0.010 C 
ATOM     99  H   UNL     1     152.184 170.207 192.097  0.00  0.00    +0.059 HD
ATOM    100  H   UNL     1     149.362 169.036 192.232  0.00  0.00    +0.078 HD
BRANCH  98 101
ATOM    101  N   UNL     1     149.611 171.080 192.229  0.00  0.00    -0.317 N 
BRANCH 101 102
ATOM    102  C   UNL     1     148.839 171.643 191.125  0.00  0.00    +0.002 C 
ATOM    103  H   UNL     1     149.273 172.593 190.794  0.00  0.00    +0.043 HD
ATOM    104  H   UNL     1     148.811 170.976 190.255  0.00  0.00    +0.043 HD
ATOM    105  H   UNL     1     147.801 171.817 191.436  0.00  0.00    +0.043 HD
ENDBRANCH 101 102
BRANCH 101 106
ATOM    106  C   UNL     1     149.816 171.966 193.362  0.00  0.00    +0.110 C 
ATOM    107  H   UNL     1     150.579 172.724 193.150  0.00  0.00    +0.077 HD
ATOM    108  H   UNL     1     150.128 171.429 194.265  0.00  0.00    +0.077 HD
BRANCH 106 109
ATOM    109  O   UNL     1     148.585 172.608 193.609  0.00  0.00    -0.377 OA
ATOM    110  H   UNL     1     147.949 171.891 193.432  0.00  0.00    +0.211 HD
ENDBRANCH 106 109
ENDBRANCH 101 106
ENDBRANCH  98 101
ENDBRANCH  91  97
ENDBRANCH  89  91
BRANCH  89 111
ATOM    111  O   UNL     1     151.011 166.269 193.595  0.00  0.00    -0.460 OA
BRANCH 111 112
ATOM    112  C   UNL     1     149.907 166.259 194.391  0.00  0.00    +0.304 C 
ATOM    113  O   UNL     1     148.787 166.631 194.067  0.00  0.00    -0.251 OA
BRANCH 112 114
ATOM    114  C   UNL     1     150.268 165.736 195.748  0.00  0.00    +0.033 C 
ATOM    115  H   UNL     1     150.988 164.920 195.648  0.00  0.00    +0.034 HD
ATOM    116  H   UNL     1     149.369 165.393 196.264  0.00  0.00    +0.034 HD
ATOM    117  H   UNL     1     150.724 166.536 196.337  0.00  0.00    +0.034 HD
ENDBRANCH 112 114
ENDBRANCH 111 112
ENDBRANCH  89 111
ENDBRANCH  83  89
ENDBRANCH  81  83
ENDBRANCH  78  81
ENDBRANCH  75  78
ENDBRANCH  69  75
ENDBRANCH  67  69
BRANCH  67 118
ATOM    118  O   UNL     1     152.137 165.225 185.228  0.00  0.00    -0.379 OA
BRANCH 118 119
ATOM    119  C   UNL     1     151.712 163.922 184.842  0.00  0.00    +0.037 C 
ATOM    120  H   UNL     1     152.197 163.198 185.503  0.00  0.00    +0.052 HD
ATOM    121  H   UNL     1     150.627 163.826 184.961  0.00  0.00    +0.052 HD
ATOM    122  H   UNL     1     152.001 163.697 183.812  0.00  0.00    +0.052 HD
ENDBRANCH 118 119
ENDBRANCH  67 118
ENDBRANCH  64  67
ENDBRANCH  13  64
BRANCH   8 123
ATOM    123  O   UNL     1     157.864 169.378 185.702  0.00  0.00    -0.391 OA
ATOM    124  H   UNL     1     158.564 169.503 186.368  0.00  0.00    +0.210 HD
ENDBRANCH   8 123
BRANCH  15 125
ATOM    125  O   UNL     1     156.237 163.208 181.899  0.00  0.00    -0.379 OA
BRANCH 125 126
ATOM    126  C   UNL     1     157.149 163.476 180.842  0.00  0.00    +0.037 C 
ATOM    127  H   UNL     1     157.925 162.706 180.788  0.00  0.00    +0.052 HD
ATOM    128  H   UNL     1     156.591 163.469 179.902  0.00  0.00    +0.052 HD
ATOM    129  H   UNL     1     157.602 164.464 180.954  0.00  0.00    +0.052 HD
ENDBRANCH 125 126
ENDBRANCH  15 125
TORSDOF 27
ENDMDL
MODEL 5
REMARK VINA RESULT:      -6.1      6.435     12.085
REMARK  Name = Ulapualide A_conf2
REMARK  27 active torsions:
REMARK  status: ('A' for Active; 'I' for Inactive)
REMARK    1  A    between atoms: C_1  and  C_2
REMARK    2  A    between atoms: C_9  and  O_63
REMARK    3  A    between atoms: C_14  and  C_38
REMARK    4  A    between atoms: C_15  and  C_37
REMARK    5  A    between atoms: C_16  and  O_35
REMARK    6  A    between atoms: O_35  and  C_36
REMARK    7  A    between atoms: C_38  and  C_39
REMARK    8  A    between atoms: C_39  and  C_40
REMARK    9  A    between atoms: C_39  and  O_61
REMARK   10  A    between atoms: C_40  and  C_41
REMARK   11  A    between atoms: C_40  and  C_42
REMARK   12  A    between atoms: C_42  and  C_43
REMARK   13  A    between atoms: C_43  and  C_44
REMARK   14  A    between atoms: C_44  and  C_46
REMARK   15  A    between atoms: C_46  and  C_47
REMARK   16  A    between atoms: C_46  and  C_48
REMARK   17  A    between atoms: C_48  and  C_49
REMARK   18  A    between atoms: C_48  and  O_57
REMARK   19  A    between atoms: C_49  and  C_50
REMARK   20  A    between atoms: C_49  and  C_51
REMARK   21  A    between atoms: C_52  and  N_53
REMARK   22  A    between atoms: N_53  and  C_54
REMARK   23  A    between atoms: N_53  and  C_55
REMARK   24  A    between atoms: C_55  and  O_56
REMARK   25  A    between atoms: O_57  and  C_58
REMARK   26  A    between atoms: C_58  and  C_60
REMARK   27  A    between atoms: O_61  and  C_62
REMARK                            x       y       z     vdW  Elec       q    Type
REMARK                         _______ _______ _______ _____ _____    ______ ____
ROOT
ATOM      1  C   UNL     1     146.769 157.435 189.691  0.00  0.00    +0.008 C 
ATOM      2  C   UNL     1     145.800 157.160 188.538  0.00  0.00    +0.014 C 
ATOM      3  C   UNL     1     145.586 158.289 187.543  0.00  0.00    +0.134 C 
ATOM      4  O   UNL     1     146.042 158.208 186.400  0.00  0.00    -0.297 OA
ATOM      5  C   UNL     1     144.750 159.472 187.998  0.00  0.00    +0.006 C 
ATOM      6  C   UNL     1     144.184 160.272 186.828  0.00  0.00    -0.044 C 
ATOM      7  C   UNL     1     143.052 161.238 187.207  0.00  0.00    -0.026 C 
ATOM      8  C   UNL     1     143.415 162.247 188.305  0.00  0.00    +0.065 C 
ATOM      9  C   UNL     1     142.397 163.387 188.355  0.00  0.00    +0.071 C 
ATOM     10  C   UNL     1     142.928 164.561 189.133  0.00  0.00    +0.310 C 
ATOM     11  O   UNL     1     142.437 164.968 190.179  0.00  0.00    -0.251 OA
ATOM     12  O   UNL     1     143.974 165.131 188.474  0.00  0.00    -0.461 OA
ATOM     13  C   UNL     1     144.538 166.330 189.059  0.00  0.00    +0.110 C 
ATOM     14  C   UNL     1     144.983 167.264 187.892  0.00  0.00    +0.020 C 
ATOM     15  C   UNL     1     145.677 166.548 186.683  0.00  0.00    +0.068 C 
ATOM     16  C   UNL     1     147.148 166.139 186.930  0.00  0.00    -0.008 C 
ATOM     17  C   UNL     1     148.107 167.306 187.034  0.00  0.00    -0.077 C 
ATOM     18  C   UNL     1     149.447 167.250 186.988  0.00  0.00    -0.003 C 
ATOM     19  C   UNL     1     150.193 166.039 186.935  0.00  0.00    +0.220 A 
ATOM     20  N   UNL     1     149.765 164.820 187.234  0.00  0.00    -0.205 NA
ATOM     21  C   UNL     1     150.860 164.007 187.107  0.00  0.00    +0.164 A 
ATOM     22  C   UNL     1     151.939 164.746 186.706  0.00  0.00    +0.125 A 
ATOM     23  O   UNL     1     151.540 166.042 186.599  0.00  0.00    -0.443 OA
ATOM     24  C   UNL     1     150.906 162.474 187.398  0.00  0.00    +0.250 A 
ATOM     25  N   UNL     1     149.876 161.765 187.837  0.00  0.00    -0.203 NA
ATOM     26  C   UNL     1     150.381 160.496 187.985  0.00  0.00    +0.164 A 
ATOM     27  C   UNL     1     151.703 160.474 187.618  0.00  0.00    +0.125 A 
ATOM     28  O   UNL     1     152.055 161.732 187.236  0.00  0.00    -0.442 OA
ATOM     29  C   UNL     1     149.614 159.233 188.492  0.00  0.00    +0.249 A 
ATOM     30  N   UNL     1     148.344 159.209 188.866  0.00  0.00    -0.212 NA
ATOM     31  C   UNL     1     148.107 157.900 189.220  0.00  0.00    +0.083 A 
ATOM     32  C   UNL     1     149.260 157.170 189.058  0.00  0.00    +0.116 A 
ATOM     33  O   UNL     1     150.228 158.002 188.593  0.00  0.00    -0.442 OA
ATOM     34  H   UNL     1     146.926 156.461 190.179  0.00  0.00    +0.037 HD
ATOM     35  H   UNL     1     144.821 156.845 188.916  0.00  0.00    +0.035 HD
ATOM     36  H   UNL     1     146.180 156.307 187.957  0.00  0.00    +0.035 HD
ATOM     37  H   UNL     1     143.927 159.082 188.607  0.00  0.00    +0.034 HD
ATOM     38  H   UNL     1     145.385 160.119 188.609  0.00  0.00    +0.034 HD
ATOM     39  H   UNL     1     144.996 160.836 186.350  0.00  0.00    +0.027 HD
ATOM     40  H   UNL     1     143.796 159.587 186.061  0.00  0.00    +0.027 HD
ATOM     41  H   UNL     1     142.765 161.775 186.294  0.00  0.00    +0.029 HD
ATOM     42  H   UNL     1     142.181 160.648 187.523  0.00  0.00    +0.029 HD
ATOM     43  H   UNL     1     144.425 162.635 188.130  0.00  0.00    +0.060 HD
ATOM     44  H   UNL     1     141.465 163.061 188.835  0.00  0.00    +0.040 HD
ATOM     45  H   UNL     1     142.141 163.754 187.355  0.00  0.00    +0.040 HD
ATOM     46  H   UNL     1     143.739 166.854 189.602  0.00  0.00    +0.074 HD
ATOM     47  H   UNL     1     145.638 168.051 188.282  0.00  0.00    +0.036 HD
ATOM     48  H   UNL     1     145.106 165.645 186.439  0.00  0.00    +0.060 HD
ATOM     49  H   UNL     1     147.470 165.515 186.087  0.00  0.00    +0.033 HD
ATOM     50  H   UNL     1     147.224 165.509 187.813  0.00  0.00    +0.033 HD
ATOM     51  H   UNL     1     147.652 168.295 187.107  0.00  0.00    +0.057 HD
ATOM     52  H   UNL     1     150.017 168.171 187.008  0.00  0.00    +0.067 HD
ATOM     53  H   UNL     1     152.976 164.537 186.483  0.00  0.00    +0.105 HD
ATOM     54  H   UNL     1     152.472 159.719 187.576  0.00  0.00    +0.105 HD
ATOM     55  H   UNL     1     149.539 156.138 189.194  0.00  0.00    +0.105 HD
ENDROOT
BRANCH   1  56
ATOM     56  C   UNL     1     146.188 158.335 190.782  0.00  0.00    -0.056 C 
ATOM     57  H   UNL     1     145.582 159.132 190.335  0.00  0.00    +0.024 HD
ATOM     58  H   UNL     1     145.535 157.799 191.475  0.00  0.00    +0.024 HD
ATOM     59  H   UNL     1     146.985 158.815 191.364  0.00  0.00    +0.024 HD
ENDBRANCH   1  56
BRANCH  14  60
ATOM     60  C   UNL     1     143.714 167.994 187.384  0.00  0.00    -0.057 C 
ATOM     61  H   UNL     1     143.917 168.561 186.469  0.00  0.00    +0.023 HD
ATOM     62  H   UNL     1     143.354 168.718 188.122  0.00  0.00    +0.023 HD
ATOM     63  H   UNL     1     142.904 167.284 187.178  0.00  0.00    +0.023 HD
ENDBRANCH  14  60
BRANCH  13  64
ATOM     64  C   UNL     1     145.591 165.918 190.111  0.00  0.00    +0.011 C 
ATOM     65  H   UNL     1     145.686 164.827 190.083  0.00  0.00    +0.033 HD
ATOM     66  H   UNL     1     146.573 166.305 189.851  0.00  0.00    +0.033 HD
BRANCH  64  67
ATOM     67  C   UNL     1     145.219 166.365 191.537  0.00  0.00    +0.064 C 
ATOM     68  H   UNL     1     144.862 165.487 192.093  0.00  0.00    +0.060 HD
BRANCH  67  69
ATOM     69  C   UNL     1     146.413 166.977 192.326  0.00  0.00    -0.017 C 
ATOM     70  H   UNL     1     146.004 167.650 193.089  0.00  0.00    +0.032 HD
BRANCH  69  71
ATOM     71  C   UNL     1     147.181 165.884 193.084  0.00  0.00    -0.060 C 
ATOM     72  H   UNL     1     147.213 166.103 194.156  0.00  0.00    +0.023 HD
ATOM     73  H   UNL     1     146.731 164.895 192.950  0.00  0.00    +0.023 HD
ATOM     74  H   UNL     1     148.216 165.825 192.730  0.00  0.00    +0.023 HD
ENDBRANCH  69  71
BRANCH  69  75
ATOM     75  C   UNL     1     147.410 167.812 191.490  0.00  0.00    -0.041 C 
ATOM     76  H   UNL     1     147.091 168.861 191.436  0.00  0.00    +0.027 HD
ATOM     77  H   UNL     1     147.380 167.441 190.456  0.00  0.00    +0.027 HD
BRANCH  75  78
ATOM     78  C   UNL     1     148.853 167.739 191.993  0.00  0.00    +0.007 C 
ATOM     79  H   UNL     1     149.253 168.747 192.131  0.00  0.00    +0.034 HD
ATOM     80  H   UNL     1     148.870 167.214 192.952  0.00  0.00    +0.034 HD
BRANCH  78  81
ATOM     81  C   UNL     1     149.774 167.004 191.025  0.00  0.00    +0.140 C 
ATOM     82  O   UNL     1     149.358 166.118 190.272  0.00  0.00    -0.297 OA
BRANCH  81  83
ATOM     83  C   UNL     1     151.246 167.409 190.959  0.00  0.00    +0.052 C 
ATOM     84  H   UNL     1     151.506 167.404 189.894  0.00  0.00    +0.041 HD
BRANCH  83  85
ATOM     85  C   UNL     1     151.425 168.856 191.423  0.00  0.00    -0.052 C 
ATOM     86  H   UNL     1     150.451 169.298 191.657  0.00  0.00    +0.024 HD
ATOM     87  H   UNL     1     152.049 168.934 192.318  0.00  0.00    +0.024 HD
ATOM     88  H   UNL     1     151.885 169.461 190.637  0.00  0.00    +0.024 HD
ENDBRANCH  83  85
BRANCH  83  89
ATOM     89  C   UNL     1     152.219 166.457 191.686  0.00  0.00    +0.118 C 
ATOM     90  H   UNL     1     151.719 165.477 191.676  0.00  0.00    +0.075 HD
BRANCH  89  91
ATOM     91  C   UNL     1     152.545 166.773 193.177  0.00  0.00    +0.014 C 
ATOM     92  H   UNL     1     152.023 167.714 193.411  0.00  0.00    +0.038 HD
BRANCH  91  93
ATOM     93  C   UNL     1     154.034 167.073 193.385  0.00  0.00    -0.056 C 
ATOM     94  H   UNL     1     154.573 166.231 193.832  0.00  0.00    +0.024 HD
ATOM     95  H   UNL     1     154.169 167.942 194.040  0.00  0.00    +0.024 HD
ATOM     96  H   UNL     1     154.516 167.309 192.431  0.00  0.00    +0.024 HD
ENDBRANCH  91  93
BRANCH  91  97
ATOM     97  C   UNL     1     151.944 165.778 194.154  0.00  0.00    -0.064 C 
ATOM     98  C   UNL     1     150.951 165.992 195.027  0.00  0.00    -0.010 C 
ATOM     99  H   UNL     1     152.374 164.780 194.098  0.00  0.00    +0.059 HD
ATOM    100  H   UNL     1     150.518 166.989 195.114  0.00  0.00    +0.078 HD
BRANCH  98 101
ATOM    101  N   UNL     1     150.371 165.095 195.911  0.00  0.00    -0.317 N 
BRANCH 101 102
ATOM    102  C   UNL     1     148.990 165.210 196.373  0.00  0.00    +0.002 C 
ATOM    103  H   UNL     1     148.605 164.232 196.684  0.00  0.00    +0.043 HD
ATOM    104  H   UNL     1     148.893 165.887 197.229  0.00  0.00    +0.043 HD
ATOM    105  H   UNL     1     148.353 165.603 195.571  0.00  0.00    +0.043 HD
ENDBRANCH 101 102
BRANCH 101 106
ATOM    106  C   UNL     1     151.122 163.978 196.458  0.00  0.00    +0.110 C 
ATOM    107  H   UNL     1     150.855 163.786 197.504  0.00  0.00    +0.077 HD
ATOM    108  H   UNL     1     152.205 164.139 196.418  0.00  0.00    +0.077 HD
BRANCH 106 109
ATOM    109  O   UNL     1     150.795 162.846 195.683  0.00  0.00    -0.377 OA
ATOM    110  H   UNL     1     150.374 162.268 196.346  0.00  0.00    +0.211 HD
ENDBRANCH 106 109
ENDBRANCH 101 106
ENDBRANCH  98 101
ENDBRANCH  91  97
ENDBRANCH  89  91
BRANCH  89 111
ATOM    111  O   UNL     1     153.440 166.342 190.918  0.00  0.00    -0.460 OA
BRANCH 111 112
ATOM    112  C   UNL     1     153.717 165.125 190.373  0.00  0.00    +0.304 C 
ATOM    113  O   UNL     1     152.907 164.234 190.163  0.00  0.00    -0.251 OA
BRANCH 112 114
ATOM    114  C   UNL     1     155.183 165.026 190.080  0.00  0.00    +0.033 C 
ATOM    115  H   UNL     1     155.756 165.296 190.969  0.00  0.00    +0.034 HD
ATOM    116  H   UNL     1     155.438 165.683 189.245  0.00  0.00    +0.034 HD
ATOM    117  H   UNL     1     155.430 163.998 189.802  0.00  0.00    +0.034 HD
ENDBRANCH 112 114
ENDBRANCH 111 112
ENDBRANCH  89 111
ENDBRANCH  83  89
ENDBRANCH  81  83
ENDBRANCH  78  81
ENDBRANCH  75  78
ENDBRANCH  69  75
ENDBRANCH  67  69
BRANCH  67 118
ATOM    118  O   UNL     1     144.149 167.313 191.430  0.00  0.00    -0.379 OA
BRANCH 118 119
ATOM    119  C   UNL     1     143.322 167.363 192.588  0.00  0.00    +0.037 C 
ATOM    120  H   UNL     1     143.926 167.732 193.421  0.00  0.00    +0.052 HD
ATOM    121  H   UNL     1     142.490 168.057 192.429  0.00  0.00    +0.052 HD
ATOM    122  H   UNL     1     142.943 166.371 192.850  0.00  0.00    +0.052 HD
ENDBRANCH 118 119
ENDBRANCH  67 118
ENDBRANCH  64  67
ENDBRANCH  13  64
BRANCH   8 123
ATOM    123  O   UNL     1     143.429 161.581 189.570  0.00  0.00    -0.391 OA
ATOM    124  H   UNL     1     143.701 162.219 190.255  0.00  0.00    +0.210 HD
ENDBRANCH   8 123
BRANCH  15 125
ATOM    125  O   UNL     1     145.611 167.418 185.528  0.00  0.00    -0.379 OA
BRANCH 125 126
ATOM    126  C   UNL     1     145.555 166.731 184.285  0.00  0.00    +0.037 C 
ATOM    127  H   UNL     1     145.100 165.742 184.404  0.00  0.00    +0.052 HD
ATOM    128  H   UNL     1     144.933 167.315 183.602  0.00  0.00    +0.052 HD
ATOM    129  H   UNL     1     146.548 166.640 183.839  0.00  0.00    +0.052 HD
ENDBRANCH 125 126
ENDBRANCH  15 125
TORSDOF 27
ENDMDL
MODEL 6
REMARK VINA RESULT:      -6.0      1.957      2.923
REMARK  Name = Ulapualide A_conf2
REMARK  27 active torsions:
REMARK  status: ('A' for Active; 'I' for Inactive)
REMARK    1  A    between atoms: C_1  and  C_2
REMARK    2  A    between atoms: C_9  and  O_63
REMARK    3  A    between atoms: C_14  and  C_38
REMARK    4  A    between atoms: C_15  and  C_37
REMARK    5  A    between atoms: C_16  and  O_35
REMARK    6  A    between atoms: O_35  and  C_36
REMARK    7  A    between atoms: C_38  and  C_39
REMARK    8  A    between atoms: C_39  and  C_40
REMARK    9  A    between atoms: C_39  and  O_61
REMARK   10  A    between atoms: C_40  and  C_41
REMARK   11  A    between atoms: C_40  and  C_42
REMARK   12  A    between atoms: C_42  and  C_43
REMARK   13  A    between atoms: C_43  and  C_44
REMARK   14  A    between atoms: C_44  and  C_46
REMARK   15  A    between atoms: C_46  and  C_47
REMARK   16  A    between atoms: C_46  and  C_48
REMARK   17  A    between atoms: C_48  and  C_49
REMARK   18  A    between atoms: C_48  and  O_57
REMARK   19  A    between atoms: C_49  and  C_50
REMARK   20  A    between atoms: C_49  and  C_51
REMARK   21  A    between atoms: C_52  and  N_53
REMARK   22  A    between atoms: N_53  and  C_54
REMARK   23  A    between atoms: N_53  and  C_55
REMARK   24  A    between atoms: C_55  and  O_56
REMARK   25  A    between atoms: O_57  and  C_58
REMARK   26  A    between atoms: C_58  and  C_60
REMARK   27  A    between atoms: O_61  and  C_62
REMARK                            x       y       z     vdW  Elec       q    Type
REMARK                         _______ _______ _______ _____ _____    ______ ____
ROOT
ATOM      1  C   UNL     1     156.296 173.878 183.334  0.00  0.00    +0.008 C 
ATOM      2  C   UNL     1     157.739 173.694 182.853  0.00  0.00    +0.014 C 
ATOM      3  C   UNL     1     158.102 172.328 182.293  0.00  0.00    +0.134 C 
ATOM      4  O   UNL     1     158.303 172.183 181.086  0.00  0.00    -0.297 OA
ATOM      5  C   UNL     1     158.258 171.187 183.283  0.00  0.00    +0.006 C 
ATOM      6  C   UNL     1     159.087 170.035 182.721  0.00  0.00    -0.044 C 
ATOM      7  C   UNL     1     159.584 169.036 183.775  0.00  0.00    -0.026 C 
ATOM      8  C   UNL     1     158.476 168.411 184.635  0.00  0.00    +0.065 C 
ATOM      9  C   UNL     1     158.993 167.179 185.378  0.00  0.00    +0.071 C 
ATOM     10  C   UNL     1     157.858 166.342 185.904  0.00  0.00    +0.310 C 
ATOM     11  O   UNL     1     157.646 166.146 187.094  0.00  0.00    -0.251 OA
ATOM     12  O   UNL     1     157.160 165.790 184.873  0.00  0.00    -0.461 OA
ATOM     13  C   UNL     1     156.087 164.885 185.224  0.00  0.00    +0.110 C 
ATOM     14  C   UNL     1     156.038 163.763 184.141  0.00  0.00    +0.020 C 
ATOM     15  C   UNL     1     156.244 164.243 182.664  0.00  0.00    +0.068 C 
ATOM     16  C   UNL     1     155.011 164.924 182.027  0.00  0.00    -0.008 C 
ATOM     17  C   UNL     1     153.852 163.986 181.761  0.00  0.00    -0.077 C 
ATOM     18  C   UNL     1     152.777 164.235 180.998  0.00  0.00    -0.003 C 
ATOM     19  C   UNL     1     152.506 165.493 180.388  0.00  0.00    +0.220 A 
ATOM     20  N   UNL     1     153.040 166.666 180.698  0.00  0.00    -0.205 NA
ATOM     21  C   UNL     1     152.409 167.579 179.895  0.00  0.00    +0.164 A 
ATOM     22  C   UNL     1     151.513 166.938 179.084  0.00  0.00    +0.125 A 
ATOM     23  O   UNL     1     151.551 165.613 179.388  0.00  0.00    -0.443 OA
ATOM     24  C   UNL     1     152.638 169.124 179.903  0.00  0.00    +0.250 A 
ATOM     25  N   UNL     1     153.468 169.753 180.722  0.00  0.00    -0.203 NA
ATOM     26  C   UNL     1     153.315 171.080 180.400  0.00  0.00    +0.164 A 
ATOM     27  C   UNL     1     152.402 171.211 179.384  0.00  0.00    +0.125 A 
ATOM     28  O   UNL     1     151.961 169.968 179.050  0.00  0.00    -0.442 OA
ATOM     29  C   UNL     1     154.040 172.296 181.060  0.00  0.00    +0.249 A 
ATOM     30  N   UNL     1     154.919 172.218 182.047  0.00  0.00    -0.212 NA
ATOM     31  C   UNL     1     155.292 173.521 182.289  0.00  0.00    +0.083 A 
ATOM     32  C   UNL     1     154.608 174.354 181.437  0.00  0.00    +0.116 A 
ATOM     33  O   UNL     1     153.809 173.591 180.646  0.00  0.00    -0.442 OA
ATOM     34  H   UNL     1     156.187 174.957 183.523  0.00  0.00    +0.037 HD
ATOM     35  H   UNL     1     158.451 173.940 183.649  0.00  0.00    +0.035 HD
ATOM     36  H   UNL     1     157.934 174.417 182.049  0.00  0.00    +0.035 HD
ATOM     37  H   UNL     1     158.747 171.588 184.177  0.00  0.00    +0.034 HD
ATOM     38  H   UNL     1     157.259 170.825 183.541  0.00  0.00    +0.034 HD
ATOM     39  H   UNL     1     158.495 169.501 181.965  0.00  0.00    +0.027 HD
ATOM     40  H   UNL     1     159.967 170.431 182.194  0.00  0.00    +0.027 HD
ATOM     41  H   UNL     1     160.126 168.245 183.241  0.00  0.00    +0.029 HD
ATOM     42  H   UNL     1     160.310 169.544 184.423  0.00  0.00    +0.029 HD
ATOM     43  H   UNL     1     157.620 168.153 184.002  0.00  0.00    +0.060 HD
ATOM     44  H   UNL     1     159.619 167.469 186.231  0.00  0.00    +0.040 HD
ATOM     45  H   UNL     1     159.597 166.533 184.731  0.00  0.00    +0.040 HD
ATOM     46  H   UNL     1     156.344 164.401 186.176  0.00  0.00    +0.074 HD
ATOM     47  H   UNL     1     155.094 163.213 184.224  0.00  0.00    +0.036 HD
ATOM     48  H   UNL     1     157.079 164.953 182.642  0.00  0.00    +0.060 HD
ATOM     49  H   UNL     1     155.322 165.353 181.066  0.00  0.00    +0.033 HD
ATOM     50  H   UNL     1     154.683 165.764 182.635  0.00  0.00    +0.033 HD
ATOM     51  H   UNL     1     153.930 162.992 182.201  0.00  0.00    +0.057 HD
ATOM     52  H   UNL     1     152.048 163.450 180.836  0.00  0.00    +0.067 HD
ATOM     53  H   UNL     1     150.816 167.241 178.316  0.00  0.00    +0.105 HD
ATOM     54  H   UNL     1     151.985 172.040 178.834  0.00  0.00    +0.105 HD
ATOM     55  H   UNL     1     154.585 175.416 181.259  0.00  0.00    +0.105 HD
ENDROOT
BRANCH   1  56
ATOM     56  C   UNL     1     156.005 173.209 184.678  0.00  0.00    -0.056 C 
ATOM     57  H   UNL     1     156.306 172.155 184.652  0.00  0.00    +0.024 HD
ATOM     58  H   UNL     1     156.548 173.666 185.509  0.00  0.00    +0.024 HD
ATOM     59  H   UNL     1     154.933 173.241 184.910  0.00  0.00    +0.024 HD
ENDBRANCH   1  56
BRANCH  14  60
ATOM     60  C   UNL     1     157.146 162.739 184.497  0.00  0.00    -0.057 C 
ATOM     61  H   UNL     1     156.776 161.971 185.185  0.00  0.00    +0.023 HD
ATOM     62  H   UNL     1     157.986 163.227 185.002  0.00  0.00    +0.023 HD
ATOM     63  H   UNL     1     157.529 162.242 183.598  0.00  0.00    +0.023 HD
ENDBRANCH  14  60
BRANCH  13  64
ATOM     64  C   UNL     1     154.808 165.711 185.481  0.00  0.00    +0.011 C 
ATOM     65  H   UNL     1     155.038 166.460 186.245  0.00  0.00    +0.033 HD
ATOM     66  H   UNL     1     154.523 166.274 184.595  0.00  0.00    +0.033 HD
BRANCH  64  67
ATOM     67  C   UNL     1     153.621 164.848 185.948  0.00  0.00    +0.064 C 
ATOM     68  H   UNL     1     153.752 163.832 185.551  0.00  0.00    +0.060 HD
BRANCH  67  69
ATOM     69  C   UNL     1     153.502 164.743 187.497  0.00  0.00    -0.017 C 
ATOM     70  H   UNL     1     152.496 165.072 187.782  0.00  0.00    +0.032 HD
BRANCH  69  71
ATOM     71  C   UNL     1     153.622 163.281 187.952  0.00  0.00    -0.060 C 
ATOM     72  H   UNL     1     154.653 163.043 188.233  0.00  0.00    +0.023 HD
ATOM     73  H   UNL     1     152.976 163.061 188.808  0.00  0.00    +0.023 HD
ATOM     74  H   UNL     1     153.337 162.600 187.141  0.00  0.00    +0.023 HD
ENDBRANCH  69  71
BRANCH  69  75
ATOM     75  C   UNL     1     154.496 165.609 188.305  0.00  0.00    -0.041 C 
ATOM     76  H   UNL     1     154.582 166.613 187.869  0.00  0.00    +0.027 HD
ATOM     77  H   UNL     1     155.494 165.160 188.209  0.00  0.00    +0.027 HD
BRANCH  75  78
ATOM     78  C   UNL     1     154.153 165.721 189.792  0.00  0.00    +0.007 C 
ATOM     79  H   UNL     1     153.828 164.749 190.174  0.00  0.00    +0.034 HD
ATOM     80  H   UNL     1     155.043 166.042 190.340  0.00  0.00    +0.034 HD
BRANCH  78  81
ATOM     81  C   UNL     1     153.034 166.721 190.061  0.00  0.00    +0.140 C 
ATOM     82  O   UNL     1     152.797 167.659 189.294  0.00  0.00    -0.297 OA
BRANCH  81  83
ATOM     83  C   UNL     1     152.156 166.528 191.296  0.00  0.00    +0.052 C 
ATOM     84  H   UNL     1     152.031 165.443 191.403  0.00  0.00    +0.041 HD
BRANCH  83  85
ATOM     85  C   UNL     1     152.895 166.986 192.555  0.00  0.00    -0.052 C 
ATOM     86  H   UNL     1     153.763 167.593 192.281  0.00  0.00    +0.024 HD
ATOM     87  H   UNL     1     152.264 167.588 193.215  0.00  0.00    +0.024 HD
ATOM     88  H   UNL     1     153.257 166.126 193.126  0.00  0.00    +0.024 HD
ENDBRANCH  83  85
BRANCH  83  89
ATOM     89  C   UNL     1     150.750 167.157 191.205  0.00  0.00    +0.118 C 
ATOM     90  H   UNL     1     150.854 167.982 190.484  0.00  0.00    +0.075 HD
BRANCH  89  91
ATOM     91  C   UNL     1     150.161 167.778 192.507  0.00  0.00    +0.014 C 
ATOM     92  H   UNL     1     151.021 167.987 193.162  0.00  0.00    +0.038 HD
BRANCH  91  93
ATOM     93  C   UNL     1     149.298 166.773 193.279  0.00  0.00    -0.056 C 
ATOM     94  H   UNL     1     149.345 165.766 192.853  0.00  0.00    +0.024 HD
ATOM     95  H   UNL     1     148.247 167.085 193.285  0.00  0.00    +0.024 HD
ATOM     96  H   UNL     1     149.623 166.710 194.323  0.00  0.00    +0.024 HD
ENDBRANCH  91  93
BRANCH  91  97
ATOM     97  C   UNL     1     149.531 169.144 192.298  0.00  0.00    -0.064 C 
ATOM     98  C   UNL     1     150.092 170.341 192.509  0.00  0.00    -0.010 C 
ATOM     99  H   UNL     1     148.515 169.113 191.909  0.00  0.00    +0.059 HD
ATOM    100  H   UNL     1     151.102 170.396 192.916  0.00  0.00    +0.078 HD
BRANCH  98 101
ATOM    101  N   UNL     1     149.546 171.598 192.303  0.00  0.00    -0.317 N 
BRANCH 101 102
ATOM    102  C   UNL     1     149.439 172.604 193.357  0.00  0.00    +0.002 C 
ATOM    103  H   UNL     1     148.840 173.456 193.017  0.00  0.00    +0.043 HD
ATOM    104  H   UNL     1     148.963 172.210 194.262  0.00  0.00    +0.043 HD
ATOM    105  H   UNL     1     150.436 172.963 193.643  0.00  0.00    +0.043 HD
ENDBRANCH 101 102
BRANCH 101 106
ATOM    106  C   UNL     1     149.017 171.992 191.008  0.00  0.00    +0.110 C 
ATOM    107  H   UNL     1     148.034 171.545 190.821  0.00  0.00    +0.077 HD
ATOM    108  H   UNL     1     149.674 171.702 190.180  0.00  0.00    +0.077 HD
BRANCH 106 109
ATOM    109  O   UNL     1     148.890 173.396 191.027  0.00  0.00    -0.377 OA
ATOM    110  H   UNL     1     149.796 173.680 190.806  0.00  0.00    +0.211 HD
ENDBRANCH 106 109
ENDBRANCH 101 106
ENDBRANCH  98 101
ENDBRANCH  91  97
ENDBRANCH  89  91
BRANCH  89 111
ATOM    111  O   UNL     1     149.828 166.192 190.645  0.00  0.00    -0.460 OA
BRANCH 111 112
ATOM    112  C   UNL     1     149.365 166.432 189.388  0.00  0.00    +0.304 C 
ATOM    113  O   UNL     1     148.584 167.319 189.071  0.00  0.00    -0.251 OA
BRANCH 112 114
ATOM    114  C   UNL     1     149.944 165.430 188.437  0.00  0.00    +0.033 C 
ATOM    115  H   UNL     1     150.989 165.241 188.692  0.00  0.00    +0.034 HD
ATOM    116  H   UNL     1     149.860 165.799 187.413  0.00  0.00    +0.034 HD
ATOM    117  H   UNL     1     149.389 164.491 188.516  0.00  0.00    +0.034 HD
ENDBRANCH 112 114
ENDBRANCH 111 112
ENDBRANCH  89 111
ENDBRANCH  83  89
ENDBRANCH  81  83
ENDBRANCH  78  81
ENDBRANCH  75  78
ENDBRANCH  69  75
ENDBRANCH  67  69
BRANCH  67 118
ATOM    118  O   UNL     1     152.427 165.413 185.391  0.00  0.00    -0.379 OA
BRANCH 118 119
ATOM    119  C   UNL     1     151.566 164.444 184.802  0.00  0.00    +0.037 C 
ATOM    120  H   UNL     1     152.013 163.457 184.951  0.00  0.00    +0.052 HD
ATOM    121  H   UNL     1     150.587 164.457 185.294  0.00  0.00    +0.052 HD
ATOM    122  H   UNL     1     151.452 164.613 183.728  0.00  0.00    +0.052 HD
ENDBRANCH 118 119
ENDBRANCH  67 118
ENDBRANCH  64  67
ENDBRANCH  13  64
BRANCH   8 123
ATOM    123  O   UNL     1     158.024 169.374 185.590  0.00  0.00    -0.391 OA
ATOM    124  H   UNL     1     158.195 170.266 185.237  0.00  0.00    +0.210 HD
ENDBRANCH   8 123
BRANCH  15 125
ATOM    125  O   UNL     1     156.631 163.106 181.856  0.00  0.00    -0.379 OA
BRANCH 125 126
ATOM    126  C   UNL     1     157.470 163.433 180.756  0.00  0.00    +0.037 C 
ATOM    127  H   UNL     1     157.867 162.529 180.283  0.00  0.00    +0.052 HD
ATOM    128  H   UNL     1     156.868 163.971 180.018  0.00  0.00    +0.052 HD
ATOM    129  H   UNL     1     158.287 164.090 181.065  0.00  0.00    +0.052 HD
ENDBRANCH 125 126
ENDBRANCH  15 125
TORSDOF 27
ENDMDL
MODEL 7
REMARK VINA RESULT:      -6.0      1.468      1.809
REMARK  Name = Ulapualide A_conf2
REMARK  27 active torsions:
REMARK  status: ('A' for Active; 'I' for Inactive)
REMARK    1  A    between atoms: C_1  and  C_2
REMARK    2  A    between atoms: C_9  and  O_63
REMARK    3  A    between atoms: C_14  and  C_38
REMARK    4  A    between atoms: C_15  and  C_37
REMARK    5  A    between atoms: C_16  and  O_35
REMARK    6  A    between atoms: O_35  and  C_36
REMARK    7  A    between atoms: C_38  and  C_39
REMARK    8  A    between atoms: C_39  and  C_40
REMARK    9  A    between atoms: C_39  and  O_61
REMARK   10  A    between atoms: C_40  and  C_41
REMARK   11  A    between atoms: C_40  and  C_42
REMARK   12  A    between atoms: C_42  and  C_43
REMARK   13  A    between atoms: C_43  and  C_44
REMARK   14  A    between atoms: C_44  and  C_46
REMARK   15  A    between atoms: C_46  and  C_47
REMARK   16  A    between atoms: C_46  and  C_48
REMARK   17  A    between atoms: C_48  and  C_49
REMARK   18  A    between atoms: C_48  and  O_57
REMARK   19  A    between atoms: C_49  and  C_50
REMARK   20  A    between atoms: C_49  and  C_51
REMARK   21  A    between atoms: C_52  and  N_53
REMARK   22  A    between atoms: N_53  and  C_54
REMARK   23  A    between atoms: N_53  and  C_55
REMARK   24  A    between atoms: C_55  and  O_56
REMARK   25  A    between atoms: O_57  and  C_58
REMARK   26  A    between atoms: C_58  and  C_60
REMARK   27  A    between atoms: O_61  and  C_62
REMARK                            x       y       z     vdW  Elec       q    Type
REMARK                         _______ _______ _______ _____ _____    ______ ____
ROOT
ATOM      1  C   UNL     1     156.502 174.002 183.294  0.00  0.00    +0.008 C 
ATOM      2  C   UNL     1     157.947 173.723 182.871  0.00  0.00    +0.014 C 
ATOM      3  C   UNL     1     158.245 172.330 182.340  0.00  0.00    +0.134 C 
ATOM      4  O   UNL     1     158.481 172.156 181.143  0.00  0.00    -0.297 OA
ATOM      5  C   UNL     1     158.292 171.194 183.347  0.00  0.00    +0.006 C 
ATOM      6  C   UNL     1     159.068 169.986 182.829  0.00  0.00    -0.044 C 
ATOM      7  C   UNL     1     159.462 168.972 183.912  0.00  0.00    -0.026 C 
ATOM      8  C   UNL     1     158.286 168.429 184.737  0.00  0.00    +0.065 C 
ATOM      9  C   UNL     1     158.697 167.177 185.512  0.00  0.00    +0.071 C 
ATOM     10  C   UNL     1     157.494 166.418 186.003  0.00  0.00    +0.310 C 
ATOM     11  O   UNL     1     157.226 166.252 187.187  0.00  0.00    -0.251 OA
ATOM     12  O   UNL     1     156.801 165.898 184.953  0.00  0.00    -0.461 OA
ATOM     13  C   UNL     1     155.661 165.065 185.272  0.00  0.00    +0.110 C 
ATOM     14  C   UNL     1     155.583 163.934 184.201  0.00  0.00    +0.020 C 
ATOM     15  C   UNL     1     155.872 164.381 182.728  0.00  0.00    +0.068 C 
ATOM     16  C   UNL     1     154.709 165.129 182.037  0.00  0.00    -0.008 C 
ATOM     17  C   UNL     1     153.505 164.261 181.738  0.00  0.00    -0.077 C 
ATOM     18  C   UNL     1     152.476 164.567 180.931  0.00  0.00    -0.003 C 
ATOM     19  C   UNL     1     152.307 165.830 180.298  0.00  0.00    +0.220 A 
ATOM     20  N   UNL     1     152.901 166.972 180.616  0.00  0.00    -0.205 NA
ATOM     21  C   UNL     1     152.359 167.912 179.779  0.00  0.00    +0.164 A 
ATOM     22  C   UNL     1     151.455 167.317 178.943  0.00  0.00    +0.125 A 
ATOM     23  O   UNL     1     151.399 165.996 179.261  0.00  0.00    -0.443 OA
ATOM     24  C   UNL     1     152.684 169.439 179.779  0.00  0.00    +0.250 A 
ATOM     25  N   UNL     1     153.520 170.027 180.622  0.00  0.00    -0.203 NA
ATOM     26  C   UNL     1     153.462 171.356 180.280  0.00  0.00    +0.164 A 
ATOM     27  C   UNL     1     152.598 171.530 179.230  0.00  0.00    +0.125 A 
ATOM     28  O   UNL     1     152.092 170.313 178.893  0.00  0.00    -0.442 OA
ATOM     29  C   UNL     1     154.238 172.534 180.954  0.00  0.00    +0.249 A 
ATOM     30  N   UNL     1     155.072 172.414 181.975  0.00  0.00    -0.212 NA
ATOM     31  C   UNL     1     155.517 173.694 182.217  0.00  0.00    +0.083 A 
ATOM     32  C   UNL     1     154.918 174.557 181.330  0.00  0.00    +0.116 A 
ATOM     33  O   UNL     1     154.103 173.835 180.518  0.00  0.00    -0.442 OA
ATOM     34  H   UNL     1     156.453 175.088 183.467  0.00  0.00    +0.037 HD
ATOM     35  H   UNL     1     158.643 173.934 183.690  0.00  0.00    +0.035 HD
ATOM     36  H   UNL     1     158.217 174.422 182.066  0.00  0.00    +0.035 HD
ATOM     37  H   UNL     1     158.772 171.576 184.255  0.00  0.00    +0.034 HD
ATOM     38  H   UNL     1     157.264 170.898 183.571  0.00  0.00    +0.034 HD
ATOM     39  H   UNL     1     158.473 169.479 182.058  0.00  0.00    +0.027 HD
ATOM     40  H   UNL     1     159.990 170.320 182.332  0.00  0.00    +0.027 HD
ATOM     41  H   UNL     1     159.973 168.142 183.408  0.00  0.00    +0.029 HD
ATOM     42  H   UNL     1     160.194 169.442 184.582  0.00  0.00    +0.029 HD
ATOM     43  H   UNL     1     157.439 168.216 184.074  0.00  0.00    +0.060 HD
ATOM     44  H   UNL     1     159.308 167.438 186.385  0.00  0.00    +0.040 HD
ATOM     45  H   UNL     1     159.284 166.485 184.896  0.00  0.00    +0.040 HD
ATOM     46  H   UNL     1     155.852 164.579 186.239  0.00  0.00    +0.074 HD
ATOM     47  H   UNL     1     154.603 163.445 184.255  0.00  0.00    +0.036 HD
ATOM     48  H   UNL     1     156.750 165.038 182.730  0.00  0.00    +0.060 HD
ATOM     49  H   UNL     1     155.081 165.525 181.084  0.00  0.00    +0.033 HD
ATOM     50  H   UNL     1     154.412 165.995 182.624  0.00  0.00    +0.033 HD
ATOM     51  H   UNL     1     153.504 163.270 182.191  0.00  0.00    +0.057 HD
ATOM     52  H   UNL     1     151.706 163.826 180.751  0.00  0.00    +0.067 HD
ATOM     53  H   UNL     1     150.808 167.653 178.145  0.00  0.00    +0.105 HD
ATOM     54  H   UNL     1     152.254 172.376 178.655  0.00  0.00    +0.105 HD
ATOM     55  H   UNL     1     154.968 175.617 181.140  0.00  0.00    +0.105 HD
ENDROOT
BRANCH   1  56
ATOM     56  C   UNL     1     156.120 173.371 184.634  0.00  0.00    -0.056 C 
ATOM     57  H   UNL     1     155.638 172.399 184.473  0.00  0.00    +0.024 HD
ATOM     58  H   UNL     1     156.982 173.186 185.280  0.00  0.00    +0.024 HD
ATOM     59  H   UNL     1     155.411 174.004 185.180  0.00  0.00    +0.024 HD
ENDBRANCH   1  56
BRANCH  14  60
ATOM     60  C   UNL     1     156.610 162.848 184.610  0.00  0.00    -0.057 C 
ATOM     61  H   UNL     1     156.953 162.274 183.743  0.00  0.00    +0.023 HD
ATOM     62  H   UNL     1     156.165 162.126 185.302  0.00  0.00    +0.023 HD
ATOM     63  H   UNL     1     157.485 163.294 185.097  0.00  0.00    +0.023 HD
ENDBRANCH  14  60
BRANCH  13  64
ATOM     64  C   UNL     1     154.427 165.973 185.472  0.00  0.00    +0.011 C 
ATOM     65  H   UNL     1     154.778 167.008 185.538  0.00  0.00    +0.033 HD
ATOM     66  H   UNL     1     153.774 165.939 184.603  0.00  0.00    +0.033 HD
BRANCH  64  67
ATOM     67  C   UNL     1     153.623 165.621 186.737  0.00  0.00    +0.064 C 
ATOM     68  H   UNL     1     153.784 166.412 187.482  0.00  0.00    +0.060 HD
BRANCH  67  69
ATOM     69  C   UNL     1     152.091 165.506 186.487  0.00  0.00    -0.017 C 
ATOM     70  H   UNL     1     151.753 166.442 186.026  0.00  0.00    +0.032 HD
BRANCH  69  71
ATOM     71  C   UNL     1     151.789 164.394 185.470  0.00  0.00    -0.060 C 
ATOM     72  H   UNL     1     151.696 164.805 184.459  0.00  0.00    +0.023 HD
ATOM     73  H   UNL     1     152.569 163.626 185.456  0.00  0.00    +0.023 HD
ATOM     74  H   UNL     1     150.842 163.898 185.712  0.00  0.00    +0.023 HD
ENDBRANCH  69  71
BRANCH  69  75
ATOM     75  C   UNL     1     151.219 165.293 187.746  0.00  0.00    -0.041 C 
ATOM     76  H   UNL     1     151.714 164.613 188.451  0.00  0.00    +0.027 HD
ATOM     77  H   UNL     1     150.299 164.779 187.438  0.00  0.00    +0.027 HD
BRANCH  75  78
ATOM     78  C   UNL     1     150.838 166.590 188.462  0.00  0.00    +0.007 C 
ATOM     79  H   UNL     1     150.793 167.414 187.744  0.00  0.00    +0.034 HD
ATOM     80  H   UNL     1     149.856 166.466 188.926  0.00  0.00    +0.034 HD
BRANCH  78  81
ATOM     81  C   UNL     1     151.839 166.976 189.546  0.00  0.00    +0.140 C 
ATOM     82  O   UNL     1     152.760 167.770 189.332  0.00  0.00    -0.297 OA
BRANCH  81  83
ATOM     83  C   UNL     1     151.667 166.392 190.947  0.00  0.00    +0.052 C 
ATOM     84  H   UNL     1     151.365 165.349 190.797  0.00  0.00    +0.041 HD
BRANCH  83  85
ATOM     85  C   UNL     1     153.013 166.334 191.672  0.00  0.00    -0.052 C 
ATOM     86  H   UNL     1     152.955 165.643 192.519  0.00  0.00    +0.024 HD
ATOM     87  H   UNL     1     153.824 165.993 191.021  0.00  0.00    +0.024 HD
ATOM     88  H   UNL     1     153.286 167.318 192.063  0.00  0.00    +0.024 HD
ENDBRANCH  83  85
BRANCH  83  89
ATOM     89  C   UNL     1     150.587 167.075 191.813  0.00  0.00    +0.118 C 
ATOM     90  H   UNL     1     149.668 166.501 191.627  0.00  0.00    +0.075 HD
BRANCH  89  91
ATOM     91  C   UNL     1     150.253 168.563 191.492  0.00  0.00    +0.014 C 
ATOM     92  H   UNL     1     150.592 168.737 190.460  0.00  0.00    +0.038 HD
BRANCH  91  93
ATOM     93  C   UNL     1     151.070 169.531 192.356  0.00  0.00    -0.056 C 
ATOM     94  H   UNL     1     150.573 170.498 192.487  0.00  0.00    +0.024 HD
ATOM     95  H   UNL     1     152.053 169.719 191.907  0.00  0.00    +0.024 HD
ATOM     96  H   UNL     1     151.244 169.107 193.350  0.00  0.00    +0.024 HD
ENDBRANCH  91  93
BRANCH  91  97
ATOM     97  C   UNL     1     148.763 168.852 191.432  0.00  0.00    -0.064 C 
ATOM     98  C   UNL     1     147.976 168.852 190.349  0.00  0.00    -0.010 C 
ATOM     99  H   UNL     1     148.308 169.055 192.400  0.00  0.00    +0.059 HD
ATOM    100  H   UNL     1     148.414 168.669 189.368  0.00  0.00    +0.078 HD
BRANCH  98 101
ATOM    101  N   UNL     1     146.612 169.088 190.273  0.00  0.00    -0.317 N 
BRANCH 101 102
ATOM    102  C   UNL     1     146.039 170.427 190.172  0.00  0.00    +0.002 C 
ATOM    103  H   UNL     1     146.543 171.004 189.388  0.00  0.00    +0.043 HD
ATOM    104  H   UNL     1     144.971 170.405 189.925  0.00  0.00    +0.043 HD
ATOM    105  H   UNL     1     146.143 170.959 191.126  0.00  0.00    +0.043 HD
ENDBRANCH 101 102
BRANCH 101 106
ATOM    106  C   UNL     1     145.651 167.999 190.313  0.00  0.00    +0.110 C 
ATOM    107  H   UNL     1     146.027 167.110 189.793  0.00  0.00    +0.077 HD
ATOM    108  H   UNL     1     144.692 168.267 189.856  0.00  0.00    +0.077 HD
BRANCH 106 109
ATOM    109  O   UNL     1     145.443 167.685 191.672  0.00  0.00    -0.377 OA
ATOM    110  H   UNL     1     146.350 167.727 192.026  0.00  0.00    +0.211 HD
ENDBRANCH 106 109
ENDBRANCH 101 106
ENDBRANCH  98 101
ENDBRANCH  91  97
ENDBRANCH  89  91
BRANCH  89 111
ATOM    111  O   UNL     1     150.930 166.926 193.211  0.00  0.00    -0.460 OA
BRANCH 111 112
ATOM    112  C   UNL     1     150.178 166.059 193.944  0.00  0.00    +0.304 C 
ATOM    113  O   UNL     1     149.038 165.702 193.682  0.00  0.00    -0.251 OA
BRANCH 112 114
ATOM    114  C   UNL     1     150.953 165.613 195.146  0.00  0.00    +0.033 C 
ATOM    115  H   UNL     1     150.409 164.817 195.661  0.00  0.00    +0.034 HD
ATOM    116  H   UNL     1     151.117 166.459 195.816  0.00  0.00    +0.034 HD
ATOM    117  H   UNL     1     151.925 165.225 194.829  0.00  0.00    +0.034 HD
ENDBRANCH 112 114
ENDBRANCH 111 112
ENDBRANCH  89 111
ENDBRANCH  83  89
ENDBRANCH  81  83
ENDBRANCH  78  81
ENDBRANCH  75  78
ENDBRANCH  69  75
ENDBRANCH  67  69
BRANCH  67 118
ATOM    118  O   UNL     1     154.141 164.387 187.251  0.00  0.00    -0.379 OA
BRANCH 118 119
ATOM    119  C   UNL     1     154.499 164.455 188.628  0.00  0.00    +0.037 C 
ATOM    120  H   UNL     1     153.850 165.191 189.111  0.00  0.00    +0.052 HD
ATOM    121  H   UNL     1     154.340 163.485 189.110  0.00  0.00    +0.052 HD
ATOM    122  H   UNL     1     155.537 164.775 188.754  0.00  0.00    +0.052 HD
ENDBRANCH 118 119
ENDBRANCH  67 118
ENDBRANCH  64  67
ENDBRANCH  13  64
BRANCH   8 123
ATOM    123  O   UNL     1     157.860 169.430 185.663  0.00  0.00    -0.391 OA
ATOM    124  H   UNL     1     158.350 170.252 185.479  0.00  0.00    +0.210 HD
ENDBRANCH   8 123
BRANCH  15 125
ATOM    125  O   UNL     1     156.217 163.211 181.948  0.00  0.00    -0.379 OA
BRANCH 125 126
ATOM    126  C   UNL     1     157.117 163.471 180.878  0.00  0.00    +0.037 C 
ATOM    127  H   UNL     1     157.615 164.437 181.010  0.00  0.00    +0.052 HD
ATOM    128  H   UNL     1     157.880 162.689 180.877  0.00  0.00    +0.052 HD
ATOM    129  H   UNL     1     156.603 163.438 179.914  0.00  0.00    +0.052 HD
ENDBRANCH 125 126
ENDBRANCH  15 125
TORSDOF 27
ENDMDL
MODEL 8
REMARK VINA RESULT:      -5.9      5.740     10.603
REMARK  Name = Ulapualide A_conf2
REMARK  27 active torsions:
REMARK  status: ('A' for Active; 'I' for Inactive)
REMARK    1  A    between atoms: C_1  and  C_2
REMARK    2  A    between atoms: C_9  and  O_63
REMARK    3  A    between atoms: C_14  and  C_38
REMARK    4  A    between atoms: C_15  and  C_37
REMARK    5  A    between atoms: C_16  and  O_35
REMARK    6  A    between atoms: O_35  and  C_36
REMARK    7  A    between atoms: C_38  and  C_39
REMARK    8  A    between atoms: C_39  and  C_40
REMARK    9  A    between atoms: C_39  and  O_61
REMARK   10  A    between atoms: C_40  and  C_41
REMARK   11  A    between atoms: C_40  and  C_42
REMARK   12  A    between atoms: C_42  and  C_43
REMARK   13  A    between atoms: C_43  and  C_44
REMARK   14  A    between atoms: C_44  and  C_46
REMARK   15  A    between atoms: C_46  and  C_47
REMARK   16  A    between atoms: C_46  and  C_48
REMARK   17  A    between atoms: C_48  and  C_49
REMARK   18  A    between atoms: C_48  and  O_57
REMARK   19  A    between atoms: C_49  and  C_50
REMARK   20  A    between atoms: C_49  and  C_51
REMARK   21  A    between atoms: C_52  and  N_53
REMARK   22  A    between atoms: N_53  and  C_54
REMARK   23  A    between atoms: N_53  and  C_55
REMARK   24  A    between atoms: C_55  and  O_56
REMARK   25  A    between atoms: O_57  and  C_58
REMARK   26  A    between atoms: C_58  and  C_60
REMARK   27  A    between atoms: O_61  and  C_62
REMARK                            x       y       z     vdW  Elec       q    Type
REMARK                         _______ _______ _______ _____ _____    ______ ____
ROOT
ATOM      1  C   UNL     1     158.991 157.626 193.059  0.00  0.00    +0.008 C 
ATOM      2  C   UNL     1     158.708 156.392 192.196  0.00  0.00    +0.014 C 
ATOM      3  C   UNL     1     158.444 156.639 190.720  0.00  0.00    +0.134 C 
ATOM      4  O   UNL     1     159.279 156.311 189.874  0.00  0.00    -0.297 OA
ATOM      5  C   UNL     1     157.104 157.244 190.341  0.00  0.00    +0.006 C 
ATOM      6  C   UNL     1     156.738 156.989 188.881  0.00  0.00    -0.044 C 
ATOM      7  C   UNL     1     155.264 157.246 188.541  0.00  0.00    -0.026 C 
ATOM      8  C   UNL     1     154.765 158.656 188.886  0.00  0.00    +0.065 C 
ATOM      9  C   UNL     1     153.438 158.951 188.187  0.00  0.00    +0.071 C 
ATOM     10  C   UNL     1     153.133 160.425 188.192  0.00  0.00    +0.310 C 
ATOM     11  O   UNL     1     152.175 160.924 188.768  0.00  0.00    -0.251 OA
ATOM     12  O   UNL     1     154.028 161.095 187.415  0.00  0.00    -0.461 OA
ATOM     13  C   UNL     1     153.811 162.517 187.250  0.00  0.00    +0.110 C 
ATOM     14  C   UNL     1     154.242 162.899 185.801  0.00  0.00    +0.020 C 
ATOM     15  C   UNL     1     155.554 162.215 185.286  0.00  0.00    +0.068 C 
ATOM     16  C   UNL     1     156.863 162.819 185.845  0.00  0.00    -0.008 C 
ATOM     17  C   UNL     1     157.168 164.213 185.341  0.00  0.00    -0.077 C 
ATOM     18  C   UNL     1     158.334 164.868 185.447  0.00  0.00    -0.003 C 
ATOM     19  C   UNL     1     159.463 164.376 186.162  0.00  0.00    +0.220 A 
ATOM     20  N   UNL     1     159.478 163.409 187.070  0.00  0.00    -0.205 NA
ATOM     21  C   UNL     1     160.768 163.355 187.525  0.00  0.00    +0.164 A 
ATOM     22  C   UNL     1     161.530 164.280 186.864  0.00  0.00    +0.125 A 
ATOM     23  O   UNL     1     160.718 164.947 186.000  0.00  0.00    -0.443 OA
ATOM     24  C   UNL     1     161.309 162.413 188.646  0.00  0.00    +0.250 A 
ATOM     25  N   UNL     1     160.564 161.552 189.325  0.00  0.00    -0.203 NA
ATOM     26  C   UNL     1     161.439 160.980 190.216  0.00  0.00    +0.164 A 
ATOM     27  C   UNL     1     162.693 161.506 190.040  0.00  0.00    +0.125 A 
ATOM     28  O   UNL     1     162.630 162.423 189.037  0.00  0.00    -0.442 OA
ATOM     29  C   UNL     1     161.109 159.894 191.290  0.00  0.00    +0.249 A 
ATOM     30  N   UNL     1     159.913 159.366 191.501  0.00  0.00    -0.212 NA
ATOM     31  C   UNL     1     160.104 158.461 192.521  0.00  0.00    +0.083 A 
ATOM     32  C   UNL     1     161.424 158.482 192.905  0.00  0.00    +0.116 A 
ATOM     33  O   UNL     1     162.078 159.386 192.130  0.00  0.00    -0.442 OA
ATOM     34  H   UNL     1     159.331 157.232 194.029  0.00  0.00    +0.037 HD
ATOM     35  H   UNL     1     157.871 155.814 192.603  0.00  0.00    +0.035 HD
ATOM     36  H   UNL     1     159.579 155.724 192.245  0.00  0.00    +0.035 HD
ATOM     37  H   UNL     1     156.343 156.799 190.993  0.00  0.00    +0.034 HD
ATOM     38  H   UNL     1     157.157 158.322 190.520  0.00  0.00    +0.034 HD
ATOM     39  H   UNL     1     157.373 157.612 188.237  0.00  0.00    +0.027 HD
ATOM     40  H   UNL     1     156.966 155.946 188.617  0.00  0.00    +0.027 HD
ATOM     41  H   UNL     1     155.144 157.067 187.465  0.00  0.00    +0.029 HD
ATOM     42  H   UNL     1     154.650 156.501 189.063  0.00  0.00    +0.029 HD
ATOM     43  H   UNL     1     155.525 159.395 188.606  0.00  0.00    +0.060 HD
ATOM     44  H   UNL     1     152.608 158.435 188.687  0.00  0.00    +0.040 HD
ATOM     45  H   UNL     1     153.444 158.627 187.140  0.00  0.00    +0.040 HD
ATOM     46  H   UNL     1     152.732 162.711 187.325  0.00  0.00    +0.074 HD
ATOM     47  H   UNL     1     154.337 163.988 185.722  0.00  0.00    +0.036 HD
ATOM     48  H   UNL     1     155.522 161.153 185.558  0.00  0.00    +0.060 HD
ATOM     49  H   UNL     1     157.691 162.165 185.544  0.00  0.00    +0.033 HD
ATOM     50  H   UNL     1     156.854 162.806 186.933  0.00  0.00    +0.033 HD
ATOM     51  H   UNL     1     156.366 164.711 184.795  0.00  0.00    +0.057 HD
ATOM     52  H   UNL     1     158.441 165.841 184.983  0.00  0.00    +0.067 HD
ATOM     53  H   UNL     1     162.566 164.584 186.891  0.00  0.00    +0.105 HD
ATOM     54  H   UNL     1     163.656 161.358 190.504  0.00  0.00    +0.105 HD
ATOM     55  H   UNL     1     162.018 157.954 193.631  0.00  0.00    +0.105 HD
ENDROOT
BRANCH   1  56
ATOM     56  C   UNL     1     157.744 158.451 193.382  0.00  0.00    -0.056 C 
ATOM     57  H   UNL     1     157.746 158.747 194.438  0.00  0.00    +0.024 HD
ATOM     58  H   UNL     1     157.680 159.374 192.801  0.00  0.00    +0.024 HD
ATOM     59  H   UNL     1     156.831 157.869 193.204  0.00  0.00    +0.024 HD
ENDBRANCH   1  56
BRANCH  14  60
ATOM     60  C   UNL     1     153.071 162.516 184.862  0.00  0.00    -0.057 C 
ATOM     61  H   UNL     1     153.153 161.478 184.522  0.00  0.00    +0.023 HD
ATOM     62  H   UNL     1     153.070 163.138 183.960  0.00  0.00    +0.023 HD
ATOM     63  H   UNL     1     152.104 162.640 185.364  0.00  0.00    +0.023 HD
ENDBRANCH  14  60
BRANCH  13  64
ATOM     64  C   UNL     1     154.475 163.258 188.432  0.00  0.00    +0.011 C 
ATOM     65  H   UNL     1     154.610 162.539 189.247  0.00  0.00    +0.033 HD
ATOM     66  H   UNL     1     155.474 163.596 188.168  0.00  0.00    +0.033 HD
BRANCH  64  67
ATOM     67  C   UNL     1     153.641 164.452 188.935  0.00  0.00    +0.064 C 
ATOM     68  H   UNL     1     152.577 164.199 188.835  0.00  0.00    +0.060 HD
BRANCH  67  69
ATOM     69  C   UNL     1     153.909 164.811 190.425  0.00  0.00    -0.017 C 
ATOM     70  H   UNL     1     154.246 163.902 190.937  0.00  0.00    +0.032 HD
BRANCH  69  71
ATOM     71  C   UNL     1     155.062 165.820 190.541  0.00  0.00    -0.060 C 
ATOM     72  H   UNL     1     155.632 165.657 191.462  0.00  0.00    +0.023 HD
ATOM     73  H   UNL     1     155.754 165.756 189.696  0.00  0.00    +0.023 HD
ATOM     74  H   UNL     1     154.675 166.845 190.573  0.00  0.00    +0.023 HD
ENDBRANCH  69  71
BRANCH  69  75
ATOM     75  C   UNL     1     152.691 165.339 191.217  0.00  0.00    -0.041 C 
ATOM     76  H   UNL     1     152.355 164.599 191.955  0.00  0.00    +0.027 HD
ATOM     77  H   UNL     1     151.854 165.455 190.515  0.00  0.00    +0.027 HD
BRANCH  75  78
ATOM     78  C   UNL     1     152.936 166.681 191.910  0.00  0.00    +0.007 C 
ATOM     79  H   UNL     1     152.628 166.623 192.957  0.00  0.00    +0.034 HD
ATOM     80  H   UNL     1     154.004 166.916 191.864  0.00  0.00    +0.034 HD
BRANCH  78  81
ATOM     81  C   UNL     1     152.163 167.825 191.262  0.00  0.00    +0.140 C 
ATOM     82  O   UNL     1     152.164 168.005 190.040  0.00  0.00    -0.297 OA
BRANCH  81  83
ATOM     83  C   UNL     1     151.330 168.746 192.151  0.00  0.00    +0.052 C 
ATOM     84  H   UNL     1     151.733 168.622 193.164  0.00  0.00    +0.041 HD
BRANCH  83  85
ATOM     85  C   UNL     1     151.576 170.211 191.784  0.00  0.00    -0.052 C 
ATOM     86  H   UNL     1     151.749 170.802 192.689  0.00  0.00    +0.024 HD
ATOM     87  H   UNL     1     152.447 170.338 191.134  0.00  0.00    +0.024 HD
ATOM     88  H   UNL     1     150.707 170.633 191.272  0.00  0.00    +0.024 HD
ENDBRANCH  83  85
BRANCH  83  89
ATOM     89  C   UNL     1     149.822 168.421 192.201  0.00  0.00    +0.118 C 
ATOM     90  H   UNL     1     149.467 168.864 193.143  0.00  0.00    +0.075 HD
BRANCH  89  91
ATOM     91  C   UNL     1     149.419 166.916 192.240  0.00  0.00    +0.014 C 
ATOM     92  H   UNL     1     150.313 166.352 191.931  0.00  0.00    +0.038 HD
BRANCH  91  93
ATOM     93  C   UNL     1     148.349 166.584 191.193  0.00  0.00    -0.056 C 
ATOM     94  H   UNL     1     148.288 165.512 190.982  0.00  0.00    +0.024 HD
ATOM     95  H   UNL     1     148.555 167.100 190.248  0.00  0.00    +0.024 HD
ATOM     96  H   UNL     1     147.362 166.915 191.535  0.00  0.00    +0.024 HD
ENDBRANCH  91  93
BRANCH  91  97
ATOM     97  C   UNL     1     149.136 166.399 193.639  0.00  0.00    -0.064 C 
ATOM     98  C   UNL     1     149.986 165.775 194.465  0.00  0.00    -0.010 C 
ATOM     99  H   UNL     1     148.125 166.594 193.992  0.00  0.00    +0.059 HD
ATOM    100  H   UNL     1     150.998 165.553 194.126  0.00  0.00    +0.078 HD
BRANCH  98 101
ATOM    101  N   UNL     1     149.757 165.316 195.753  0.00  0.00    -0.317 N 
BRANCH 101 102
ATOM    102  C   UNL     1     148.564 165.659 196.522  0.00  0.00    +0.002 C 
ATOM    103  H   UNL     1     147.817 166.140 195.881  0.00  0.00    +0.043 HD
ATOM    104  H   UNL     1     148.091 164.778 196.970  0.00  0.00    +0.043 HD
ATOM    105  H   UNL     1     148.822 166.342 197.340  0.00  0.00    +0.043 HD
ENDBRANCH 101 102
BRANCH 101 106
ATOM    106  C   UNL     1     150.718 164.468 196.437  0.00  0.00    +0.110 C 
ATOM    107  H   UNL     1     150.290 164.019 197.341  0.00  0.00    +0.077 HD
ATOM    108  H   UNL     1     151.622 165.011 196.735  0.00  0.00    +0.077 HD
BRANCH 106 109
ATOM    109  O   UNL     1     151.074 163.442 195.537  0.00  0.00    -0.377 OA
ATOM    110  H   UNL     1     150.785 162.647 196.020  0.00  0.00    +0.211 HD
ENDBRANCH 106 109
ENDBRANCH 101 106
ENDBRANCH  98 101
ENDBRANCH  91  97
ENDBRANCH  89  91
BRANCH  89 111
ATOM    111  O   UNL     1     149.151 169.094 191.111  0.00  0.00    -0.460 OA
BRANCH 111 112
ATOM    112  C   UNL     1     148.183 169.993 191.440  0.00  0.00    +0.304 C 
ATOM    113  O   UNL     1     147.998 170.471 192.550  0.00  0.00    -0.251 OA
BRANCH 112 114
ATOM    114  C   UNL     1     147.353 170.305 190.232  0.00  0.00    +0.033 C 
ATOM    115  H   UNL     1     147.979 170.758 189.461  0.00  0.00    +0.034 HD
ATOM    116  H   UNL     1     146.537 170.977 190.507  0.00  0.00    +0.034 HD
ATOM    117  H   UNL     1     146.924 169.380 189.837  0.00  0.00    +0.034 HD
ENDBRANCH 112 114
ENDBRANCH 111 112
ENDBRANCH  89 111
ENDBRANCH  83  89
ENDBRANCH  81  83
ENDBRANCH  78  81
ENDBRANCH  75  78
ENDBRANCH  69  75
ENDBRANCH  67  69
BRANCH  67 118
ATOM    118  O   UNL     1     153.933 165.571 188.089  0.00  0.00    -0.379 OA
BRANCH 118 119
ATOM    119  C   UNL     1     152.807 166.024 187.344  0.00  0.00    +0.037 C 
ATOM    120  H   UNL     1     152.311 165.150 186.913  0.00  0.00    +0.052 HD
ATOM    121  H   UNL     1     152.096 166.534 188.004  0.00  0.00    +0.052 HD
ATOM    122  H   UNL     1     153.109 166.688 186.529  0.00  0.00    +0.052 HD
ENDBRANCH 118 119
ENDBRANCH  67 118
ENDBRANCH  64  67
ENDBRANCH  13  64
BRANCH   8 123
ATOM    123  O   UNL     1     154.578 158.755 190.300  0.00  0.00    -0.391 OA
ATOM    124  H   UNL     1     153.674 159.078 190.472  0.00  0.00    +0.210 HD
ENDBRANCH   8 123
BRANCH  15 125
ATOM    125  O   UNL     1     155.577 162.284 183.840  0.00  0.00    -0.379 OA
BRANCH 125 126
ATOM    126  C   UNL     1     156.263 161.205 183.218  0.00  0.00    +0.037 C 
ATOM    127  H   UNL     1     157.296 161.140 183.574  0.00  0.00    +0.052 HD
ATOM    128  H   UNL     1     155.749 160.277 183.482  0.00  0.00    +0.052 HD
ATOM    129  H   UNL     1     156.242 161.300 182.129  0.00  0.00    +0.052 HD
ENDBRANCH 125 126
ENDBRANCH  15 125
TORSDOF 27
ENDMDL
MODEL 9
REMARK VINA RESULT:      -5.9      3.723     11.991
REMARK  Name = Ulapualide A_conf2
REMARK  27 active torsions:
REMARK  status: ('A' for Active; 'I' for Inactive)
REMARK    1  A    between atoms: C_1  and  C_2
REMARK    2  A    between atoms: C_9  and  O_63
REMARK    3  A    between atoms: C_14  and  C_38
REMARK    4  A    between atoms: C_15  and  C_37
REMARK    5  A    between atoms: C_16  and  O_35
REMARK    6  A    between atoms: O_35  and  C_36
REMARK    7  A    between atoms: C_38  and  C_39
REMARK    8  A    between atoms: C_39  and  C_40
REMARK    9  A    between atoms: C_39  and  O_61
REMARK   10  A    between atoms: C_40  and  C_41
REMARK   11  A    between atoms: C_40  and  C_42
REMARK   12  A    between atoms: C_42  and  C_43
REMARK   13  A    between atoms: C_43  and  C_44
REMARK   14  A    between atoms: C_44  and  C_46
REMARK   15  A    between atoms: C_46  and  C_47
REMARK   16  A    between atoms: C_46  and  C_48
REMARK   17  A    between atoms: C_48  and  C_49
REMARK   18  A    between atoms: C_48  and  O_57
REMARK   19  A    between atoms: C_49  and  C_50
REMARK   20  A    between atoms: C_49  and  C_51
REMARK   21  A    between atoms: C_52  and  N_53
REMARK   22  A    between atoms: N_53  and  C_54
REMARK   23  A    between atoms: N_53  and  C_55
REMARK   24  A    between atoms: C_55  and  O_56
REMARK   25  A    between atoms: O_57  and  C_58
REMARK   26  A    between atoms: C_58  and  C_60
REMARK   27  A    between atoms: O_61  and  C_62
REMARK                            x       y       z     vdW  Elec       q    Type
REMARK                         _______ _______ _______ _____ _____    ______ ____
ROOT
ATOM      1  C   UNL     1     145.742 169.857 186.555  0.00  0.00    +0.008 C 
ATOM      2  C   UNL     1     144.799 168.681 186.281  0.00  0.00    +0.014 C 
ATOM      3  C   UNL     1     145.317 167.296 186.633  0.00  0.00    +0.134 C 
ATOM      4  O   UNL     1     144.851 166.682 187.594  0.00  0.00    -0.297 OA
ATOM      5  C   UNL     1     146.375 166.694 185.724  0.00  0.00    +0.006 C 
ATOM      6  C   UNL     1     146.454 165.175 185.846  0.00  0.00    -0.044 C 
ATOM      7  C   UNL     1     147.226 164.486 184.711  0.00  0.00    -0.026 C 
ATOM      8  C   UNL     1     148.661 164.994 184.514  0.00  0.00    +0.065 C 
ATOM      9  C   UNL     1     149.467 164.026 183.648  0.00  0.00    +0.071 C 
ATOM     10  C   UNL     1     150.944 164.291 183.762  0.00  0.00    +0.310 C 
ATOM     11  O   UNL     1     151.648 164.661 182.830  0.00  0.00    -0.251 OA
ATOM     12  O   UNL     1     151.382 163.996 185.018  0.00  0.00    -0.461 OA
ATOM     13  C   UNL     1     152.805 164.119 185.257  0.00  0.00    +0.110 C 
ATOM     14  C   UNL     1     153.217 162.996 186.258  0.00  0.00    +0.020 C 
ATOM     15  C   UNL     1     152.216 162.743 187.436  0.00  0.00    +0.068 C 
ATOM     16  C   UNL     1     152.274 163.791 188.572  0.00  0.00    -0.008 C 
ATOM     17  C   UNL     1     153.546 163.746 189.392  0.00  0.00    -0.077 C 
ATOM     18  C   UNL     1     153.760 164.345 190.574  0.00  0.00    -0.003 C 
ATOM     19  C   UNL     1     152.832 165.222 191.203  0.00  0.00    +0.220 A 
ATOM     20  N   UNL     1     151.800 165.836 190.640  0.00  0.00    -0.205 NA
ATOM     21  C   UNL     1     151.264 166.626 191.622  0.00  0.00    +0.164 A 
ATOM     22  C   UNL     1     151.968 166.459 192.784  0.00  0.00    +0.125 A 
ATOM     23  O   UNL     1     152.975 165.578 192.537  0.00  0.00    -0.443 OA
ATOM     24  C   UNL     1     150.053 167.598 191.461  0.00  0.00    +0.250 A 
ATOM     25  N   UNL     1     149.402 167.801 190.326  0.00  0.00    -0.203 NA
ATOM     26  C   UNL     1     148.458 168.747 190.644  0.00  0.00    +0.164 A 
ATOM     27  C   UNL     1     148.561 169.080 191.970  0.00  0.00    +0.125 A 
ATOM     28  O   UNL     1     149.575 168.351 192.511  0.00  0.00    -0.442 OA
ATOM     29  C   UNL     1     147.406 169.385 189.681  0.00  0.00    +0.249 A 
ATOM     30  N   UNL     1     147.277 169.102 188.394  0.00  0.00    -0.212 NA
ATOM     31  C   UNL     1     146.230 169.886 187.965  0.00  0.00    +0.083 A 
ATOM     32  C   UNL     1     145.764 170.636 189.019  0.00  0.00    +0.116 A 
ATOM     33  O   UNL     1     146.499 170.327 190.118  0.00  0.00    -0.442 OA
ATOM     34  H   UNL     1     145.130 170.761 186.413  0.00  0.00    +0.037 HD
ATOM     35  H   UNL     1     144.479 168.673 185.234  0.00  0.00    +0.035 HD
ATOM     36  H   UNL     1     143.881 168.824 186.869  0.00  0.00    +0.035 HD
ATOM     37  H   UNL     1     146.120 166.967 184.693  0.00  0.00    +0.034 HD
ATOM     38  H   UNL     1     147.340 167.133 185.993  0.00  0.00    +0.034 HD
ATOM     39  H   UNL     1     146.915 164.914 186.808  0.00  0.00    +0.027 HD
ATOM     40  H   UNL     1     145.441 164.749 185.868  0.00  0.00    +0.027 HD
ATOM     41  H   UNL     1     147.243 163.412 184.937  0.00  0.00    +0.029 HD
ATOM     42  H   UNL     1     146.660 164.610 183.778  0.00  0.00    +0.029 HD
ATOM     43  H   UNL     1     149.139 165.135 185.490  0.00  0.00    +0.060 HD
ATOM     44  H   UNL     1     149.190 164.121 182.591  0.00  0.00    +0.040 HD
ATOM     45  H   UNL     1     149.304 162.982 183.939  0.00  0.00    +0.040 HD
ATOM     46  H   UNL     1     153.330 163.916 184.313  0.00  0.00    +0.074 HD
ATOM     47  H   UNL     1     154.214 163.210 186.659  0.00  0.00    +0.036 HD
ATOM     48  H   UNL     1     151.197 162.732 187.030  0.00  0.00    +0.060 HD
ATOM     49  H   UNL     1     151.432 163.601 189.249  0.00  0.00    +0.033 HD
ATOM     50  H   UNL     1     152.117 164.791 188.175  0.00  0.00    +0.033 HD
ATOM     51  H   UNL     1     154.349 163.123 188.998  0.00  0.00    +0.057 HD
ATOM     52  H   UNL     1     154.698 164.178 191.091  0.00  0.00    +0.067 HD
ATOM     53  H   UNL     1     151.908 166.861 193.784  0.00  0.00    +0.105 HD
ATOM     54  H   UNL     1     148.043 169.758 192.631  0.00  0.00    +0.105 HD
ATOM     55  H   UNL     1     144.976 171.357 189.156  0.00  0.00    +0.105 HD
ENDROOT
BRANCH   1  56
ATOM     56  C   UNL     1     146.879 169.984 185.540  0.00  0.00    -0.056 C 
ATOM     57  H   UNL     1     146.518 170.462 184.622  0.00  0.00    +0.024 HD
ATOM     58  H   UNL     1     147.709 170.596 185.903  0.00  0.00    +0.024 HD
ATOM     59  H   UNL     1     147.273 168.998 185.265  0.00  0.00    +0.024 HD
ENDBRANCH   1  56
BRANCH  14  60
ATOM     60  C   UNL     1     153.371 161.690 185.439  0.00  0.00    -0.057 C 
ATOM     61  H   UNL     1     154.232 161.739 184.764  0.00  0.00    +0.023 HD
ATOM     62  H   UNL     1     152.494 161.514 184.808  0.00  0.00    +0.023 HD
ATOM     63  H   UNL     1     153.498 160.822 186.097  0.00  0.00    +0.023 HD
ENDBRANCH  14  60
BRANCH  13  64
ATOM     64  C   UNL     1     153.118 165.584 185.629  0.00  0.00    +0.011 C 
ATOM     65  H   UNL     1     152.948 166.201 184.741  0.00  0.00    +0.033 HD
ATOM     66  H   UNL     1     152.424 165.952 186.381  0.00  0.00    +0.033 HD
BRANCH  64  67
ATOM     67  C   UNL     1     154.565 165.781 186.121  0.00  0.00    +0.064 C 
ATOM     68  H   UNL     1     154.973 164.800 186.398  0.00  0.00    +0.060 HD
BRANCH  67  69
ATOM     69  C   UNL     1     155.505 166.404 185.048  0.00  0.00    -0.017 C 
ATOM     70  H   UNL     1     156.451 165.849 185.065  0.00  0.00    +0.032 HD
BRANCH  69  71
ATOM     71  C   UNL     1     154.921 166.214 183.639  0.00  0.00    -0.060 C 
ATOM     72  H   UNL     1     155.640 166.527 182.874  0.00  0.00    +0.023 HD
ATOM     73  H   UNL     1     154.647 165.172 183.443  0.00  0.00    +0.023 HD
ATOM     74  H   UNL     1     154.019 166.823 183.511  0.00  0.00    +0.023 HD
ENDBRANCH  69  71
BRANCH  69  75
ATOM     75  C   UNL     1     155.862 167.894 185.253  0.00  0.00    -0.041 C 
ATOM     76  H   UNL     1     156.710 168.000 185.941  0.00  0.00    +0.027 HD
ATOM     77  H   UNL     1     155.014 168.380 185.754  0.00  0.00    +0.027 HD
BRANCH  75  78
ATOM     78  C   UNL     1     156.156 168.645 183.953  0.00  0.00    +0.007 C 
ATOM     79  H   UNL     1     156.775 168.027 183.296  0.00  0.00    +0.034 HD
ATOM     80  H   UNL     1     155.211 168.867 183.448  0.00  0.00    +0.034 HD
BRANCH  78  81
ATOM     81  C   UNL     1     156.897 169.956 184.188  0.00  0.00    +0.140 C 
ATOM     82  O   UNL     1     157.021 170.443 185.317  0.00  0.00    -0.297 OA
BRANCH  81  83
ATOM     83  C   UNL     1     157.539 170.663 182.996  0.00  0.00    +0.052 C 
ATOM     84  H   UNL     1     158.555 170.923 183.318  0.00  0.00    +0.041 HD
BRANCH  83  85
ATOM     85  C   UNL     1     157.711 169.692 181.826  0.00  0.00    -0.052 C 
ATOM     86  H   UNL     1     158.723 169.275 181.830  0.00  0.00    +0.024 HD
ATOM     87  H   UNL     1     157.007 168.855 181.870  0.00  0.00    +0.024 HD
ATOM     88  H   UNL     1     157.566 170.205 180.871  0.00  0.00    +0.024 HD
ENDBRANCH  83  85
BRANCH  83  89
ATOM     89  C   UNL     1     156.839 171.965 182.552  0.00  0.00    +0.118 C 
ATOM     90  H   UNL     1     156.903 171.962 181.454  0.00  0.00    +0.075 HD
BRANCH  89  91
ATOM     91  C   UNL     1     157.466 173.309 183.030  0.00  0.00    +0.014 C 
ATOM     92  H   UNL     1     158.380 173.042 183.581  0.00  0.00    +0.038 HD
BRANCH  91  93
ATOM     93  C   UNL     1     156.573 174.025 184.051  0.00  0.00    -0.056 C 
ATOM     94  H   UNL     1     156.996 174.979 184.382  0.00  0.00    +0.024 HD
ATOM     95  H   UNL     1     156.420 173.401 184.940  0.00  0.00    +0.024 HD
ATOM     96  H   UNL     1     155.585 174.227 183.624  0.00  0.00    +0.024 HD
ENDBRANCH  91  93
BRANCH  91  97
ATOM     97  C   UNL     1     157.974 174.180 181.895  0.00  0.00    -0.064 C 
ATOM     98  C   UNL     1     157.811 173.982 180.580  0.00  0.00    -0.010 C 
ATOM     99  H   UNL     1     158.506 175.072 182.219  0.00  0.00    +0.059 HD
ATOM    100  H   UNL     1     157.298 173.086 180.232  0.00  0.00    +0.078 HD
BRANCH  98 101
ATOM    101  N   UNL     1     158.244 174.775 179.529  0.00  0.00    -0.317 N 
BRANCH 101 102
ATOM    102  C   UNL     1     158.635 174.233 178.230  0.00  0.00    +0.002 C 
ATOM    103  H   UNL     1     159.292 173.365 178.356  0.00  0.00    +0.043 HD
ATOM    104  H   UNL     1     157.772 173.907 177.638  0.00  0.00    +0.043 HD
ATOM    105  H   UNL     1     159.163 174.996 177.644  0.00  0.00    +0.043 HD
ENDBRANCH 101 102
BRANCH 101 106
ATOM    106  C   UNL     1     158.357 176.217 179.664  0.00  0.00    +0.110 C 
ATOM    107  H   UNL     1     158.723 176.502 180.657  0.00  0.00    +0.077 HD
ATOM    108  H   UNL     1     157.403 176.731 179.504  0.00  0.00    +0.077 HD
BRANCH 106 109
ATOM    109  O   UNL     1     159.282 176.649 178.691  0.00  0.00    -0.377 OA
ATOM    110  H   UNL     1     159.783 175.831 178.517  0.00  0.00    +0.211 HD
ENDBRANCH 106 109
ENDBRANCH 101 106
ENDBRANCH  98 101
ENDBRANCH  91  97
ENDBRANCH  89  91
BRANCH  89 111
ATOM    111  O   UNL     1     155.440 171.904 182.916  0.00  0.00    -0.460 OA
BRANCH 111 112
ATOM    112  C   UNL     1     154.546 171.697 181.910  0.00  0.00    +0.304 C 
ATOM    113  O   UNL     1     154.202 170.608 181.472  0.00  0.00    -0.251 OA
BRANCH 112 114
ATOM    114  C   UNL     1     154.051 173.014 181.396  0.00  0.00    +0.033 C 
ATOM    115  H   UNL     1     154.192 173.065 180.315  0.00  0.00    +0.034 HD
ATOM    116  H   UNL     1     154.584 173.828 181.891  0.00  0.00    +0.034 HD
ATOM    117  H   UNL     1     152.984 173.112 181.616  0.00  0.00    +0.034 HD
ENDBRANCH 112 114
ENDBRANCH 111 112
ENDBRANCH  89 111
ENDBRANCH  83  89
ENDBRANCH  81  83
ENDBRANCH  78  81
ENDBRANCH  75  78
ENDBRANCH  69  75
ENDBRANCH  67  69
BRANCH  67 118
ATOM    118  O   UNL     1     154.518 166.611 187.289  0.00  0.00    -0.379 OA
BRANCH 118 119
ATOM    119  C   UNL     1     153.207 167.074 187.598  0.00  0.00    +0.037 C 
ATOM    120  H   UNL     1     152.501 166.562 186.938  0.00  0.00    +0.052 HD
ATOM    121  H   UNL     1     152.953 166.827 188.635  0.00  0.00    +0.052 HD
ATOM    122  H   UNL     1     153.116 168.151 187.432  0.00  0.00    +0.052 HD
ENDBRANCH 118 119
ENDBRANCH  67 118
ENDBRANCH  64  67
ENDBRANCH  13  64
BRANCH   8 123
ATOM    123  O   UNL     1     148.622 166.271 183.871  0.00  0.00    -0.391 OA
ATOM    124  H   UNL     1     149.449 166.390 183.368  0.00  0.00    +0.210 HD
ENDBRANCH   8 123
BRANCH  15 125
ATOM    125  O   UNL     1     152.469 161.428 187.986  0.00  0.00    -0.379 OA
BRANCH 125 126
ATOM    126  C   UNL     1     151.293 160.704 188.325  0.00  0.00    +0.037 C 
ATOM    127  H   UNL     1     150.944 160.105 187.477  0.00  0.00    +0.052 HD
ATOM    128  H   UNL     1     151.536 160.026 189.147  0.00  0.00    +0.052 HD
ATOM    129  H   UNL     1     150.501 161.375 188.667  0.00  0.00    +0.052 HD
ENDBRANCH 125 126
ENDBRANCH  15 125
TORSDOF 27
ENDMDL
MODEL 10
REMARK VINA RESULT:      -5.8      1.977      3.335
REMARK  Name = Ulapualide A_conf2
REMARK  27 active torsions:
REMARK  status: ('A' for Active; 'I' for Inactive)
REMARK    1  A    between atoms: C_1  and  C_2
REMARK    2  A    between atoms: C_9  and  O_63
REMARK    3  A    between atoms: C_14  and  C_38
REMARK    4  A    between atoms: C_15  and  C_37
REMARK    5  A    between atoms: C_16  and  O_35
REMARK    6  A    between atoms: O_35  and  C_36
REMARK    7  A    between atoms: C_38  and  C_39
REMARK    8  A    between atoms: C_39  and  C_40
REMARK    9  A    between atoms: C_39  and  O_61
REMARK   10  A    between atoms: C_40  and  C_41
REMARK   11  A    between atoms: C_40  and  C_42
REMARK   12  A    between atoms: C_42  and  C_43
REMARK   13  A    between atoms: C_43  and  C_44
REMARK   14  A    between atoms: C_44  and  C_46
REMARK   15  A    between atoms: C_46  and  C_47
REMARK   16  A    between atoms: C_46  and  C_48
REMARK   17  A    between atoms: C_48  and  C_49
REMARK   18  A    between atoms: C_48  and  O_57
REMARK   19  A    between atoms: C_49  and  C_50
REMARK   20  A    between atoms: C_49  and  C_51
REMARK   21  A    between atoms: C_52  and  N_53
REMARK   22  A    between atoms: N_53  and  C_54
REMARK   23  A    between atoms: N_53  and  C_55
REMARK   24  A    between atoms: C_55  and  O_56
REMARK   25  A    between atoms: O_57  and  C_58
REMARK   26  A    between atoms: C_58  and  C_60
REMARK   27  A    between atoms: O_61  and  C_62
REMARK                            x       y       z     vdW  Elec       q    Type
REMARK                         _______ _______ _______ _____ _____    ______ ____
ROOT
ATOM      1  C   UNL     1     156.615 173.906 183.442  0.00  0.00    +0.008 C 
ATOM      2  C   UNL     1     158.059 173.603 183.028  0.00  0.00    +0.014 C 
ATOM      3  C   UNL     1     158.338 172.206 182.498  0.00  0.00    +0.134 C 
ATOM      4  O   UNL     1     158.580 172.030 181.302  0.00  0.00    -0.297 OA
ATOM      5  C   UNL     1     158.360 171.070 183.504  0.00  0.00    +0.006 C 
ATOM      6  C   UNL     1     159.121 169.849 182.991  0.00  0.00    -0.044 C 
ATOM      7  C   UNL     1     159.491 168.828 184.076  0.00  0.00    -0.026 C 
ATOM      8  C   UNL     1     158.301 168.303 184.891  0.00  0.00    +0.065 C 
ATOM      9  C   UNL     1     158.687 167.044 185.668  0.00  0.00    +0.071 C 
ATOM     10  C   UNL     1     157.468 166.304 186.151  0.00  0.00    +0.310 C 
ATOM     11  O   UNL     1     157.189 166.141 187.332  0.00  0.00    -0.251 OA
ATOM     12  O   UNL     1     156.774 165.796 185.095  0.00  0.00    -0.461 OA
ATOM     13  C   UNL     1     155.619 164.981 185.406  0.00  0.00    +0.110 C 
ATOM     14  C   UNL     1     155.531 163.853 184.333  0.00  0.00    +0.020 C 
ATOM     15  C   UNL     1     155.837 164.296 182.862  0.00  0.00    +0.068 C 
ATOM     16  C   UNL     1     154.691 165.063 182.164  0.00  0.00    -0.008 C 
ATOM     17  C   UNL     1     153.475 164.215 181.855  0.00  0.00    -0.077 C 
ATOM     18  C   UNL     1     152.457 164.537 181.042  0.00  0.00    -0.003 C 
ATOM     19  C   UNL     1     152.312 165.804 180.409  0.00  0.00    +0.220 A 
ATOM     20  N   UNL     1     152.923 166.936 180.732  0.00  0.00    -0.205 NA
ATOM     21  C   UNL     1     152.401 167.885 179.893  0.00  0.00    +0.164 A 
ATOM     22  C   UNL     1     151.493 167.305 179.049  0.00  0.00    +0.125 A 
ATOM     23  O   UNL     1     151.415 165.985 179.366  0.00  0.00    -0.443 OA
ATOM     24  C   UNL     1     152.750 169.406 179.896  0.00  0.00    +0.250 A 
ATOM     25  N   UNL     1     153.590 169.980 180.745  0.00  0.00    -0.203 NA
ATOM     26  C   UNL     1     153.555 171.310 180.404  0.00  0.00    +0.164 A 
ATOM     27  C   UNL     1     152.701 171.499 179.348  0.00  0.00    +0.125 A 
ATOM     28  O   UNL     1     152.179 170.290 179.006  0.00  0.00    -0.442 OA
ATOM     29  C   UNL     1     154.344 172.475 181.084  0.00  0.00    +0.249 A 
ATOM     30  N   UNL     1     155.170 172.341 182.111  0.00  0.00    -0.212 NA
ATOM     31  C   UNL     1     155.633 173.614 182.357  0.00  0.00    +0.083 A 
ATOM     32  C   UNL     1     155.054 174.487 181.467  0.00  0.00    +0.116 A 
ATOM     33  O   UNL     1     154.234 173.779 180.649  0.00  0.00    -0.442 OA
ATOM     34  H   UNL     1     156.583 174.992 183.615  0.00  0.00    +0.037 HD
ATOM     35  H   UNL     1     158.752 173.803 183.852  0.00  0.00    +0.035 HD
ATOM     36  H   UNL     1     158.346 174.299 182.226  0.00  0.00    +0.035 HD
ATOM     37  H   UNL     1     158.840 171.443 184.416  0.00  0.00    +0.034 HD
ATOM     38  H   UNL     1     157.326 170.790 183.721  0.00  0.00    +0.034 HD
ATOM     39  H   UNL     1     158.523 169.353 182.215  0.00  0.00    +0.027 HD
ATOM     40  H   UNL     1     160.051 170.169 182.501  0.00  0.00    +0.027 HD
ATOM     41  H   UNL     1     159.992 167.990 183.574  0.00  0.00    +0.029 HD
ATOM     42  H   UNL     1     160.226 169.287 184.751  0.00  0.00    +0.029 HD
ATOM     43  H   UNL     1     157.455 168.104 184.223  0.00  0.00    +0.060 HD
ATOM     44  H   UNL     1     159.296 167.295 186.546  0.00  0.00    +0.040 HD
ATOM     45  H   UNL     1     159.266 166.344 185.055  0.00  0.00    +0.040 HD
ATOM     46  H   UNL     1     155.796 164.491 186.373  0.00  0.00    +0.074 HD
ATOM     47  H   UNL     1     154.543 163.379 184.379  0.00  0.00    +0.036 HD
ATOM     48  H   UNL     1     156.725 164.939 182.871  0.00  0.00    +0.060 HD
ATOM     49  H   UNL     1     155.076 165.454 181.213  0.00  0.00    +0.033 HD
ATOM     50  H   UNL     1     154.404 165.933 182.749  0.00  0.00    +0.033 HD
ATOM     51  H   UNL     1     153.455 163.223 182.308  0.00  0.00    +0.057 HD
ATOM     52  H   UNL     1     151.676 163.809 180.855  0.00  0.00    +0.067 HD
ATOM     53  H   UNL     1     150.857 167.651 178.247  0.00  0.00    +0.105 HD
ATOM     54  H   UNL     1     152.375 172.351 178.771  0.00  0.00    +0.105 HD
ATOM     55  H   UNL     1     155.123 175.546 181.278  0.00  0.00    +0.105 HD
ENDROOT
BRANCH   1  56
ATOM     56  C   UNL     1     156.214 173.279 184.778  0.00  0.00    -0.056 C 
ATOM     57  H   UNL     1     157.104 172.941 185.322  0.00  0.00    +0.024 HD
ATOM     58  H   UNL     1     155.693 173.977 185.438  0.00  0.00    +0.024 HD
ATOM     59  H   UNL     1     155.569 172.405 184.625  0.00  0.00    +0.024 HD
ENDBRANCH   1  56
BRANCH  14  60
ATOM     60  C   UNL     1     156.537 162.750 184.748  0.00  0.00    -0.057 C 
ATOM     61  H   UNL     1     156.772 162.802 185.816  0.00  0.00    +0.023 HD
ATOM     62  H   UNL     1     157.488 162.865 184.217  0.00  0.00    +0.023 HD
ATOM     63  H   UNL     1     156.142 161.751 184.529  0.00  0.00    +0.023 HD
ENDBRANCH  14  60
BRANCH  13  64
ATOM     64  C   UNL     1     154.399 165.908 185.597  0.00  0.00    +0.011 C 
ATOM     65  H   UNL     1     154.720 166.934 185.393  0.00  0.00    +0.033 HD
ATOM     66  H   UNL     1     153.625 165.690 184.864  0.00  0.00    +0.033 HD
BRANCH  64  67
ATOM     67  C   UNL     1     153.803 165.829 187.016  0.00  0.00    +0.064 C 
ATOM     68  H   UNL     1     154.580 166.120 187.735  0.00  0.00    +0.060 HD
BRANCH  67  69
ATOM     69  C   UNL     1     152.580 166.767 187.228  0.00  0.00    -0.017 C 
ATOM     70  H   UNL     1     152.764 167.693 186.670  0.00  0.00    +0.032 HD
BRANCH  69  71
ATOM     71  C   UNL     1     151.310 166.148 186.624  0.00  0.00    -0.060 C 
ATOM     72  H   UNL     1     150.474 166.854 186.667  0.00  0.00    +0.023 HD
ATOM     73  H   UNL     1     151.452 165.849 185.581  0.00  0.00    +0.023 HD
ATOM     74  H   UNL     1     151.013 165.254 187.186  0.00  0.00    +0.023 HD
ENDBRANCH  69  71
BRANCH  69  75
ATOM     75  C   UNL     1     152.297 167.181 188.691  0.00  0.00    -0.041 C 
ATOM     76  H   UNL     1     152.122 168.261 188.763  0.00  0.00    +0.027 HD
ATOM     77  H   UNL     1     153.205 166.989 189.278  0.00  0.00    +0.027 HD
BRANCH  75  78
ATOM     78  C   UNL     1     151.132 166.426 189.333  0.00  0.00    +0.007 C 
ATOM     79  H   UNL     1     150.438 166.082 188.561  0.00  0.00    +0.034 HD
ATOM     80  H   UNL     1     151.524 165.559 189.874  0.00  0.00    +0.034 HD
BRANCH  78  81
ATOM     81  C   UNL     1     150.344 167.289 190.313  0.00  0.00    +0.140 C 
ATOM     82  O   UNL     1     149.109 167.312 190.316  0.00  0.00    -0.297 OA
BRANCH  81  83
ATOM     83  C   UNL     1     151.109 168.117 191.344  0.00  0.00    +0.052 C 
ATOM     84  H   UNL     1     151.951 168.561 190.800  0.00  0.00    +0.041 HD
BRANCH  83  85
ATOM     85  C   UNL     1     150.257 169.294 191.823  0.00  0.00    -0.052 C 
ATOM     86  H   UNL     1     149.340 169.361 191.230  0.00  0.00    +0.024 HD
ATOM     87  H   UNL     1     149.967 169.200 192.874  0.00  0.00    +0.024 HD
ATOM     88  H   UNL     1     150.799 170.237 191.706  0.00  0.00    +0.024 HD
ENDBRANCH  83  85
BRANCH  83  89
ATOM     89  C   UNL     1     151.684 167.314 192.530  0.00  0.00    +0.118 C 
ATOM     90  H   UNL     1     151.585 167.981 193.399  0.00  0.00    +0.075 HD
BRANCH  89  91
ATOM     91  C   UNL     1     153.186 166.908 192.453  0.00  0.00    +0.014 C 
ATOM     92  H   UNL     1     153.631 167.528 191.659  0.00  0.00    +0.038 HD
BRANCH  91  93
ATOM     93  C   UNL     1     153.363 165.460 191.982  0.00  0.00    -0.056 C 
ATOM     94  H   UNL     1     152.677 164.769 192.483  0.00  0.00    +0.024 HD
ATOM     95  H   UNL     1     154.385 165.110 192.169  0.00  0.00    +0.024 HD
ATOM     96  H   UNL     1     153.187 165.382 190.903  0.00  0.00    +0.024 HD
ENDBRANCH  91  93
BRANCH  91  97
ATOM     97  C   UNL     1     153.983 167.286 193.690  0.00  0.00    -0.064 C 
ATOM     98  C   UNL     1     154.752 168.368 193.864  0.00  0.00    -0.010 C 
ATOM     99  H   UNL     1     153.876 166.590 194.520  0.00  0.00    +0.059 HD
ATOM    100  H   UNL     1     154.888 169.068 193.040  0.00  0.00    +0.078 HD
BRANCH  98 101
ATOM    101  N   UNL     1     155.467 168.745 194.990  0.00  0.00    -0.317 N 
BRANCH 101 102
ATOM    102  C   UNL     1     154.894 169.545 196.069  0.00  0.00    +0.002 C 
ATOM    103  H   UNL     1     154.497 168.898 196.860  0.00  0.00    +0.043 HD
ATOM    104  H   UNL     1     155.632 170.211 196.531  0.00  0.00    +0.043 HD
ATOM    105  H   UNL     1     154.081 170.175 195.685  0.00  0.00    +0.043 HD
ENDBRANCH 101 102
BRANCH 101 106
ATOM    106  C   UNL     1     156.863 168.379 195.158  0.00  0.00    +0.110 C 
ATOM    107  H   UNL     1     157.532 169.216 194.923  0.00  0.00    +0.077 HD
ATOM    108  H   UNL     1     157.157 167.535 194.524  0.00  0.00    +0.077 HD
BRANCH 106 109
ATOM    109  O   UNL     1     157.033 168.020 196.511  0.00  0.00    -0.377 OA
ATOM    110  H   UNL     1     156.442 167.249 196.587  0.00  0.00    +0.211 HD
ENDBRANCH 106 109
ENDBRANCH 101 106
ENDBRANCH  98 101
ENDBRANCH  91  97
ENDBRANCH  89  91
BRANCH  89 111
ATOM    111  O   UNL     1     150.859 166.150 192.766  0.00  0.00    -0.460 OA
BRANCH 111 112
ATOM    112  C   UNL     1     150.097 166.148 193.895  0.00  0.00    +0.304 C 
ATOM    113  O   UNL     1     148.971 166.616 193.999  0.00  0.00    -0.251 OA
BRANCH 112 114
ATOM    114  C   UNL     1     150.853 165.497 195.012  0.00  0.00    +0.033 C 
ATOM    115  H   UNL     1     150.383 164.546 195.271  0.00  0.00    +0.034 HD
ATOM    116  H   UNL     1     150.876 166.161 195.879  0.00  0.00    +0.034 HD
ATOM    117  H   UNL     1     151.881 165.305 194.693  0.00  0.00    +0.034 HD
ENDBRANCH 112 114
ENDBRANCH 111 112
ENDBRANCH  89 111
ENDBRANCH  83  89
ENDBRANCH  81  83
ENDBRANCH  78  81
ENDBRANCH  75  78
ENDBRANCH  69  75
ENDBRANCH  67  69
BRANCH  67 118
ATOM    118  O   UNL     1     153.436 164.464 187.257  0.00  0.00    -0.379 OA
BRANCH 118 119
ATOM    119  C   UNL     1     153.992 163.934 188.456  0.00  0.00    +0.037 C 
ATOM    120  H   UNL     1     155.081 164.008 188.387  0.00  0.00    +0.052 HD
ATOM    121  H   UNL     1     153.659 164.521 189.319  0.00  0.00    +0.052 HD
ATOM    122  H   UNL     1     153.724 162.882 188.588  0.00  0.00    +0.052 HD
ENDBRANCH 118 119
ENDBRANCH  67 118
ENDBRANCH  64  67
ENDBRANCH  13  64
BRANCH   8 123
ATOM    123  O   UNL     1     157.884 169.310 185.816  0.00  0.00    -0.391 OA
ATOM    124  H   UNL     1     157.061 169.016 186.246  0.00  0.00    +0.210 HD
ENDBRANCH   8 123
BRANCH  15 125
ATOM    125  O   UNL     1     156.169 163.122 182.083  0.00  0.00    -0.379 OA
BRANCH 125 126
ATOM    126  C   UNL     1     157.079 163.369 181.018  0.00  0.00    +0.037 C 
ATOM    127  H   UNL     1     158.003 162.796 181.151  0.00  0.00    +0.052 HD
ATOM    128  H   UNL     1     156.607 163.048 180.086  0.00  0.00    +0.052 HD
ATOM    129  H   UNL     1     157.303 164.435 180.931  0.00  0.00    +0.052 HD
ENDBRANCH 125 126
ENDBRANCH  15 125
TORSDOF 27
ENDMDL
