MODEL 1
REMARK VINA RESULT:      -6.1      0.000      0.000
REMARK  Name = Ulapualide A_conf1
REMARK  27 active torsions:
REMARK  status: ('A' for Active; 'I' for Inactive)
REMARK    1  A    between atoms: C_1  and  C_2
REMARK    2  A    between atoms: C_9  and  O_63
REMARK    3  A    between atoms: C_14  and  C_38
REMARK    4  A    between atoms: C_15  and  C_37
REMARK    5  A    between atoms: C_16  and  O_35
REMARK    6  A    between atoms: O_35  and  C_36
REMARK    7  A    between atoms: C_38  and  C_39
REMARK    8  A    between atoms: C_39  and  C_40
REMARK    9  A    between atoms: C_39  and  O_61
REMARK   10  A    between atoms: C_40  and  C_41
REMARK   11  A    between atoms: C_40  and  C_42
REMARK   12  A    between atoms: C_42  and  C_43
REMARK   13  A    between atoms: C_43  and  C_44
REMARK   14  A    between atoms: C_44  and  C_46
REMARK   15  A    between atoms: C_46  and  C_47
REMARK   16  A    between atoms: C_46  and  C_48
REMARK   17  A    between atoms: C_48  and  C_49
REMARK   18  A    between atoms: C_48  and  O_57
REMARK   19  A    between atoms: C_49  and  C_50
REMARK   20  A    between atoms: C_49  and  C_51
REMARK   21  A    between atoms: C_52  and  N_53
REMARK   22  A    between atoms: N_53  and  C_54
REMARK   23  A    between atoms: N_53  and  C_55
REMARK   24  A    between atoms: C_55  and  O_56
REMARK   25  A    between atoms: O_57  and  C_58
REMARK   26  A    between atoms: C_58  and  C_60
REMARK   27  A    between atoms: O_61  and  C_62
REMARK                            x       y       z     vdW  Elec       q    Type
REMARK                         _______ _______ _______ _____ _____    ______ ____
ROOT
ATOM      1  C   UNL     1     148.227 165.494 195.188  0.00  0.00    +0.008 C 
ATOM      2  C   UNL     1     147.197 165.946 194.132  0.00  0.00    +0.014 C 
ATOM      3  C   UNL     1     145.808 165.430 194.446  0.00  0.00    +0.134 C 
ATOM      4  O   UNL     1     145.629 164.316 194.943  0.00  0.00    -0.297 OA
ATOM      5  C   UNL     1     144.626 166.328 194.137  0.00  0.00    +0.006 C 
ATOM      6  C   UNL     1     144.504 166.732 192.672  0.00  0.00    -0.044 C 
ATOM      7  C   UNL     1     144.420 165.538 191.709  0.00  0.00    -0.026 C 
ATOM      8  C   UNL     1     143.988 166.002 190.310  0.00  0.00    +0.065 C 
ATOM      9  C   UNL     1     144.311 164.966 189.235  0.00  0.00    +0.071 C 
ATOM     10  C   UNL     1     144.326 165.665 187.902  0.00  0.00    +0.310 C 
ATOM     11  O   UNL     1     143.335 166.169 187.386  0.00  0.00    -0.251 OA
ATOM     12  O   UNL     1     145.594 165.731 187.405  0.00  0.00    -0.461 OA
ATOM     13  C   UNL     1     145.808 166.685 186.336  0.00  0.00    +0.110 C 
ATOM     14  C   UNL     1     147.137 166.331 185.615  0.00  0.00    +0.020 C 
ATOM     15  C   UNL     1     147.120 164.857 185.106  0.00  0.00    +0.068 C 
ATOM     16  C   UNL     1     148.493 164.362 184.585  0.00  0.00    -0.008 C 
ATOM     17  C   UNL     1     149.585 164.570 185.591  0.00  0.00    -0.077 C 
ATOM     18  C   UNL     1     150.736 165.224 185.359  0.00  0.00    -0.003 C 
ATOM     19  C   UNL     1     151.630 165.490 186.435  0.00  0.00    +0.220 A 
ATOM     20  N   UNL     1     151.308 165.498 187.721  0.00  0.00    -0.205 NA
ATOM     21  C   UNL     1     152.469 165.795 188.387  0.00  0.00    +0.164 A 
ATOM     22  C   UNL     1     153.484 165.975 187.489  0.00  0.00    +0.125 A 
ATOM     23  O   UNL     1     152.962 165.816 186.238  0.00  0.00    -0.443 OA
ATOM     24  C   UNL     1     152.587 165.907 189.937  0.00  0.00    +0.250 A 
ATOM     25  N   UNL     1     151.542 165.826 190.743  0.00  0.00    -0.203 NA
ATOM     26  C   UNL     1     152.076 165.937 192.000  0.00  0.00    +0.164 A 
ATOM     27  C   UNL     1     153.438 166.096 191.916  0.00  0.00    +0.125 A 
ATOM     28  O   UNL     1     153.780 166.104 190.598  0.00  0.00    -0.442 OA
ATOM     29  C   UNL     1     151.262 165.876 193.327  0.00  0.00    +0.249 A 
ATOM     30  N   UNL     1     149.948 165.744 193.374  0.00  0.00    -0.212 NA
ATOM     31  C   UNL     1     149.641 165.706 194.716  0.00  0.00    +0.083 A 
ATOM     32  C   UNL     1     150.807 165.816 195.438  0.00  0.00    +0.116 A 
ATOM     33  O   UNL     1     151.846 165.937 194.568  0.00  0.00    -0.442 OA
ATOM     34  H   UNL     1     148.117 164.415 195.359  0.00  0.00    +0.037 HD
ATOM     35  H   UNL     1     147.178 167.039 194.070  0.00  0.00    +0.035 HD
ATOM     36  H   UNL     1     147.447 165.564 193.135  0.00  0.00    +0.035 HD
ATOM     37  H   UNL     1     143.713 165.812 194.454  0.00  0.00    +0.034 HD
ATOM     38  H   UNL     1     144.719 167.221 194.764  0.00  0.00    +0.034 HD
ATOM     39  H   UNL     1     143.607 167.357 192.568  0.00  0.00    +0.027 HD
ATOM     40  H   UNL     1     145.356 167.360 192.385  0.00  0.00    +0.027 HD
ATOM     41  H   UNL     1     143.703 164.805 192.096  0.00  0.00    +0.029 HD
ATOM     42  H   UNL     1     145.403 165.057 191.662  0.00  0.00    +0.029 HD
ATOM     43  H   UNL     1     144.458 166.963 190.086  0.00  0.00    +0.060 HD
ATOM     44  H   UNL     1     143.567 164.163 189.192  0.00  0.00    +0.040 HD
ATOM     45  H   UNL     1     145.292 164.509 189.403  0.00  0.00    +0.040 HD
ATOM     46  H   UNL     1     144.990 166.589 185.611  0.00  0.00    +0.074 HD
ATOM     47  H   UNL     1     147.942 166.409 186.353  0.00  0.00    +0.036 HD
ATOM     48  H   UNL     1     146.828 164.207 185.942  0.00  0.00    +0.060 HD
ATOM     49  H   UNL     1     148.730 164.839 183.626  0.00  0.00    +0.033 HD
ATOM     50  H   UNL     1     148.431 163.289 184.362  0.00  0.00    +0.033 HD
ATOM     51  H   UNL     1     149.371 164.206 186.599  0.00  0.00    +0.057 HD
ATOM     52  H   UNL     1     151.011 165.563 184.370  0.00  0.00    +0.067 HD
ATOM     53  H   UNL     1     154.527 166.238 187.551  0.00  0.00    +0.105 HD
ATOM     54  H   UNL     1     154.238 166.218 192.630  0.00  0.00    +0.105 HD
ATOM     55  H   UNL     1     151.057 165.816 196.489  0.00  0.00    +0.105 HD
ENDROOT
BRANCH   1  56
ATOM     56  C   UNL     1     147.960 166.211 196.519  0.00  0.00    -0.056 C 
ATOM     57  H   UNL     1     147.015 165.883 196.966  0.00  0.00    +0.024 HD
ATOM     58  H   UNL     1     147.890 167.293 196.380  0.00  0.00    +0.024 HD
ATOM     59  H   UNL     1     148.758 166.012 197.245  0.00  0.00    +0.024 HD
ENDBRANCH   1  56
BRANCH  14  60
ATOM     60  C   UNL     1     147.432 167.324 184.480  0.00  0.00    -0.057 C 
ATOM     61  H   UNL     1     147.413 166.830 183.504  0.00  0.00    +0.023 HD
ATOM     62  H   UNL     1     148.404 167.808 184.602  0.00  0.00    +0.023 HD
ATOM     63  H   UNL     1     146.689 168.127 184.462  0.00  0.00    +0.023 HD
ENDBRANCH  14  60
BRANCH  13  64
ATOM     64  C   UNL     1     145.781 168.118 186.928  0.00  0.00    +0.011 C 
ATOM     65  H   UNL     1     146.766 168.552 186.736  0.00  0.00    +0.033 HD
ATOM     66  H   UNL     1     145.680 168.061 188.017  0.00  0.00    +0.033 HD
BRANCH  64  67
ATOM     67  C   UNL     1     144.710 169.082 186.357  0.00  0.00    +0.064 C 
ATOM     68  H   UNL     1     143.813 169.019 186.985  0.00  0.00    +0.060 HD
BRANCH  67  69
ATOM     69  C   UNL     1     145.214 170.561 186.385  0.00  0.00    -0.017 C 
ATOM     70  H   UNL     1     146.108 170.588 187.024  0.00  0.00    +0.032 HD
BRANCH  69  71
ATOM     71  C   UNL     1     145.618 171.070 184.995  0.00  0.00    -0.060 C 
ATOM     72  H   UNL     1     146.606 171.541 185.011  0.00  0.00    +0.023 HD
ATOM     73  H   UNL     1     144.902 171.794 184.599  0.00  0.00    +0.023 HD
ATOM     74  H   UNL     1     145.640 170.255 184.269  0.00  0.00    +0.023 HD
ENDBRANCH  69  71
BRANCH  69  75
ATOM     75  C   UNL     1     144.147 171.483 187.029  0.00  0.00    -0.041 C 
ATOM     76  H   UNL     1     143.397 170.843 187.512  0.00  0.00    +0.027 HD
ATOM     77  H   UNL     1     143.619 172.057 186.259  0.00  0.00    +0.027 HD
BRANCH  75  78
ATOM     78  C   UNL     1     144.695 172.422 188.110  0.00  0.00    +0.007 C 
ATOM     79  H   UNL     1     145.653 172.032 188.468  0.00  0.00    +0.034 HD
ATOM     80  H   UNL     1     144.882 173.414 187.682  0.00  0.00    +0.034 HD
BRANCH  78  81
ATOM     81  C   UNL     1     143.812 172.566 189.345  0.00  0.00    +0.140 C 
ATOM     82  O   UNL     1     142.768 173.221 189.335  0.00  0.00    -0.297 OA
BRANCH  81  83
ATOM     83  C   UNL     1     144.294 171.849 190.600  0.00  0.00    +0.052 C 
ATOM     84  H   UNL     1     144.141 172.516 191.455  0.00  0.00    +0.041 HD
BRANCH  83  85
ATOM     85  C   UNL     1     143.418 170.611 190.818  0.00  0.00    -0.052 C 
ATOM     86  H   UNL     1     143.658 169.825 190.098  0.00  0.00    +0.024 HD
ATOM     87  H   UNL     1     143.557 170.194 191.819  0.00  0.00    +0.024 HD
ATOM     88  H   UNL     1     142.358 170.861 190.714  0.00  0.00    +0.024 HD
ENDBRANCH  83  85
BRANCH  83  89
ATOM     89  C   UNL     1     145.791 171.466 190.520  0.00  0.00    +0.118 C 
ATOM     90  H   UNL     1     146.170 171.729 189.526  0.00  0.00    +0.075 HD
BRANCH  89  91
ATOM     91  C   UNL     1     146.690 172.185 191.568  0.00  0.00    +0.014 C 
ATOM     92  H   UNL     1     146.928 171.443 192.328  0.00  0.00    +0.038 HD
BRANCH  91  93
ATOM     93  C   UNL     1     145.931 173.316 192.271  0.00  0.00    -0.056 C 
ATOM     94  H   UNL     1     144.847 173.251 192.112  0.00  0.00    +0.024 HD
ATOM     95  H   UNL     1     146.263 174.293 191.902  0.00  0.00    +0.024 HD
ATOM     96  H   UNL     1     146.117 173.290 193.351  0.00  0.00    +0.024 HD
ENDBRANCH  91  93
BRANCH  91  97
ATOM     97  C   UNL     1     147.962 172.738 190.962  0.00  0.00    -0.064 C 
ATOM     98  C   UNL     1     149.239 172.487 191.285  0.00  0.00    -0.010 C 
ATOM     99  H   UNL     1     147.800 173.382 190.095  0.00  0.00    +0.059 HD
ATOM    100  H   UNL     1     149.993 172.909 190.619  0.00  0.00    +0.078 HD
BRANCH  98 101
ATOM    101  N   UNL     1     149.832 171.738 192.289  0.00  0.00    -0.317 N 
BRANCH 101 102
ATOM    102  C   UNL     1     149.768 172.191 193.683  0.00  0.00    +0.002 C 
ATOM    103  H   UNL     1     149.120 171.535 194.280  0.00  0.00    +0.043 HD
ATOM    104  H   UNL     1     149.354 173.205 193.745  0.00  0.00    +0.043 HD
ATOM    105  H   UNL     1     150.767 172.186 194.132  0.00  0.00    +0.043 HD
ENDBRANCH 101 102
BRANCH 101 106
ATOM    106  C   UNL     1     150.259 170.352 192.147  0.00  0.00    +0.110 C 
ATOM    107  H   UNL     1     150.655 169.914 193.059  0.00  0.00    +0.077 HD
ATOM    108  H   UNL     1     149.444 169.714 191.793  0.00  0.00    +0.077 HD
BRANCH 106 109
ATOM    109  O   UNL     1     151.304 170.339 191.193  0.00  0.00    -0.377 OA
ATOM    110  H   UNL     1     151.114 171.146 190.681  0.00  0.00    +0.211 HD
ENDBRANCH 106 109
ENDBRANCH 101 106
ENDBRANCH  98 101
ENDBRANCH  91  97
ENDBRANCH  89  91
BRANCH  89 111
ATOM    111  O   UNL     1     145.878 170.032 190.740  0.00  0.00    -0.460 OA
BRANCH 111 112
ATOM    112  C   UNL     1     146.970 169.385 190.253  0.00  0.00    +0.304 C 
ATOM    113  O   UNL     1     147.582 169.670 189.234  0.00  0.00    -0.251 OA
BRANCH 112 114
ATOM    114  C   UNL     1     147.325 168.245 191.156  0.00  0.00    +0.033 C 
ATOM    115  H   UNL     1     146.572 168.148 191.943  0.00  0.00    +0.034 HD
ATOM    116  H   UNL     1     148.317 168.406 191.585  0.00  0.00    +0.034 HD
ATOM    117  H   UNL     1     147.343 167.316 190.576  0.00  0.00    +0.034 HD
ENDBRANCH 112 114
ENDBRANCH 111 112
ENDBRANCH  89 111
ENDBRANCH  83  89
ENDBRANCH  81  83
ENDBRANCH  78  81
ENDBRANCH  75  78
ENDBRANCH  69  75
ENDBRANCH  67  69
BRANCH  67 118
ATOM    118  O   UNL     1     144.407 168.725 185.006  0.00  0.00    -0.379 OA
BRANCH 118 119
ATOM    119  C   UNL     1     143.016 168.535 184.762  0.00  0.00    +0.037 C 
ATOM    120  H   UNL     1     142.763 168.820 183.738  0.00  0.00    +0.052 HD
ATOM    121  H   UNL     1     142.719 167.498 184.946  0.00  0.00    +0.052 HD
ATOM    122  H   UNL     1     142.460 169.181 185.449  0.00  0.00    +0.052 HD
ENDBRANCH 118 119
ENDBRANCH  67 118
ENDBRANCH  64  67
ENDBRANCH  13  64
BRANCH   8 123
ATOM    123  O   UNL     1     142.574 166.214 190.348  0.00  0.00    -0.391 OA
ATOM    124  H   UNL     1     142.431 167.182 190.313  0.00  0.00    +0.210 HD
ENDBRANCH   8 123
BRANCH  15 125
ATOM    125  O   UNL     1     146.147 164.757 184.054  0.00  0.00    -0.379 OA
BRANCH 125 126
ATOM    126  C   UNL     1     145.258 163.658 184.226  0.00  0.00    +0.037 C 
ATOM    127  H   UNL     1     144.248 163.932 183.903  0.00  0.00    +0.052 HD
ATOM    128  H   UNL     1     145.611 162.833 183.602  0.00  0.00    +0.052 HD
ATOM    129  H   UNL     1     145.244 163.323 185.268  0.00  0.00    +0.052 HD
ENDBRANCH 125 126
ENDBRANCH  15 125
TORSDOF 27
ENDMDL
MODEL 2
REMARK VINA RESULT:      -6.0      3.525      6.420
REMARK  Name = Ulapualide A_conf1
REMARK  27 active torsions:
REMARK  status: ('A' for Active; 'I' for Inactive)
REMARK    1  A    between atoms: C_1  and  C_2
REMARK    2  A    between atoms: C_9  and  O_63
REMARK    3  A    between atoms: C_14  and  C_38
REMARK    4  A    between atoms: C_15  and  C_37
REMARK    5  A    between atoms: C_16  and  O_35
REMARK    6  A    between atoms: O_35  and  C_36
REMARK    7  A    between atoms: C_38  and  C_39
REMARK    8  A    between atoms: C_39  and  C_40
REMARK    9  A    between atoms: C_39  and  O_61
REMARK   10  A    between atoms: C_40  and  C_41
REMARK   11  A    between atoms: C_40  and  C_42
REMARK   12  A    between atoms: C_42  and  C_43
REMARK   13  A    between atoms: C_43  and  C_44
REMARK   14  A    between atoms: C_44  and  C_46
REMARK   15  A    between atoms: C_46  and  C_47
REMARK   16  A    between atoms: C_46  and  C_48
REMARK   17  A    between atoms: C_48  and  C_49
REMARK   18  A    between atoms: C_48  and  O_57
REMARK   19  A    between atoms: C_49  and  C_50
REMARK   20  A    between atoms: C_49  and  C_51
REMARK   21  A    between atoms: C_52  and  N_53
REMARK   22  A    between atoms: N_53  and  C_54
REMARK   23  A    between atoms: N_53  and  C_55
REMARK   24  A    between atoms: C_55  and  O_56
REMARK   25  A    between atoms: O_57  and  C_58
REMARK   26  A    between atoms: C_58  and  C_60
REMARK   27  A    between atoms: O_61  and  C_62
REMARK                            x       y       z     vdW  Elec       q    Type
REMARK                         _______ _______ _______ _____ _____    ______ ____
ROOT
ATOM      1  C   UNL     1     146.536 157.953 188.649  0.00  0.00    +0.008 C 
ATOM      2  C   UNL     1     145.605 159.145 188.952  0.00  0.00    +0.014 C 
ATOM      3  C   UNL     1     144.161 158.829 188.616  0.00  0.00    +0.134 C 
ATOM      4  O   UNL     1     143.862 158.133 187.643  0.00  0.00    -0.297 OA
ATOM      5  C   UNL     1     143.080 159.389 189.518  0.00  0.00    +0.006 C 
ATOM      6  C   UNL     1     143.067 160.910 189.623  0.00  0.00    -0.044 C 
ATOM      7  C   UNL     1     142.930 161.620 188.268  0.00  0.00    -0.026 C 
ATOM      8  C   UNL     1     142.611 163.109 188.467  0.00  0.00    +0.065 C 
ATOM      9  C   UNL     1     142.898 163.932 187.213  0.00  0.00    +0.071 C 
ATOM     10  C   UNL     1     143.041 165.373 187.623  0.00  0.00    +0.310 C 
ATOM     11  O   UNL     1     142.125 166.044 188.084  0.00  0.00    -0.251 OA
ATOM     12  O   UNL     1     144.333 165.787 187.491  0.00  0.00    -0.461 OA
ATOM     13  C   UNL     1     144.683 167.007 188.189  0.00  0.00    +0.110 C 
ATOM     14  C   UNL     1     146.012 167.552 187.597  0.00  0.00    +0.020 C 
ATOM     15  C   UNL     1     145.892 167.758 186.056  0.00  0.00    +0.068 C 
ATOM     16  C   UNL     1     147.243 168.077 185.363  0.00  0.00    -0.008 C 
ATOM     17  C   UNL     1     148.295 167.061 185.690  0.00  0.00    -0.077 C 
ATOM     18  C   UNL     1     149.510 167.340 186.195  0.00  0.00    -0.003 C 
ATOM     19  C   UNL     1     150.367 166.281 186.608  0.00  0.00    +0.220 A 
ATOM     20  N   UNL     1     149.982 165.047 186.901  0.00  0.00    -0.205 NA
ATOM     21  C   UNL     1     151.129 164.376 187.240  0.00  0.00    +0.164 A 
ATOM     22  C   UNL     1     152.200 165.222 187.157  0.00  0.00    +0.125 A 
ATOM     23  O   UNL     1     151.731 166.448 186.786  0.00  0.00    -0.443 OA
ATOM     24  C   UNL     1     151.177 162.875 187.656  0.00  0.00    +0.250 A 
ATOM     25  N   UNL     1     150.089 162.142 187.820  0.00  0.00    -0.203 NA
ATOM     26  C   UNL     1     150.566 160.899 188.145  0.00  0.00    +0.164 A 
ATOM     27  C   UNL     1     151.940 160.921 188.181  0.00  0.00    +0.125 A 
ATOM     28  O   UNL     1     152.347 162.188 187.894  0.00  0.00    -0.442 OA
ATOM     29  C   UNL     1     149.684 159.644 188.416  0.00  0.00    +0.249 A 
ATOM     30  N   UNL     1     148.362 159.661 188.395  0.00  0.00    -0.212 NA
ATOM     31  C   UNL     1     147.985 158.362 188.654  0.00  0.00    +0.083 A 
ATOM     32  C   UNL     1     149.119 157.599 188.822  0.00  0.00    +0.116 A 
ATOM     33  O   UNL     1     150.207 158.404 188.685  0.00  0.00    -0.442 OA
ATOM     34  H   UNL     1     146.325 157.578 187.639  0.00  0.00    +0.037 HD
ATOM     35  H   UNL     1     145.684 159.424 190.008  0.00  0.00    +0.035 HD
ATOM     36  H   UNL     1     145.871 160.027 188.357  0.00  0.00    +0.035 HD
ATOM     37  H   UNL     1     142.111 159.038 189.147  0.00  0.00    +0.034 HD
ATOM     38  H   UNL     1     143.218 158.948 190.511  0.00  0.00    +0.034 HD
ATOM     39  H   UNL     1     142.235 161.196 190.279  0.00  0.00    +0.027 HD
ATOM     40  H   UNL     1     143.984 161.258 190.114  0.00  0.00    +0.027 HD
ATOM     41  H   UNL     1     142.133 161.144 187.685  0.00  0.00    +0.029 HD
ATOM     42  H   UNL     1     143.868 161.504 187.715  0.00  0.00    +0.029 HD
ATOM     43  H   UNL     1     143.174 163.487 189.325  0.00  0.00    +0.060 HD
ATOM     44  H   UNL     1     142.090 163.864 186.476  0.00  0.00    +0.040 HD
ATOM     45  H   UNL     1     143.825 163.611 186.729  0.00  0.00    +0.040 HD
ATOM     46  H   UNL     1     143.898 167.752 188.008  0.00  0.00    +0.074 HD
ATOM     47  H   UNL     1     146.782 166.792 187.763  0.00  0.00    +0.036 HD
ATOM     48  H   UNL     1     145.503 166.831 185.613  0.00  0.00    +0.060 HD
ATOM     49  H   UNL     1     147.568 169.093 185.616  0.00  0.00    +0.033 HD
ATOM     50  H   UNL     1     147.098 168.086 184.276  0.00  0.00    +0.033 HD
ATOM     51  H   UNL     1     148.000 166.018 185.556  0.00  0.00    +0.057 HD
ATOM     52  H   UNL     1     149.863 168.356 186.304  0.00  0.00    +0.067 HD
ATOM     53  H   UNL     1     153.258 165.144 187.348  0.00  0.00    +0.105 HD
ATOM     54  H   UNL     1     152.710 160.193 188.385  0.00  0.00    +0.105 HD
ATOM     55  H   UNL     1     149.314 156.555 189.017  0.00  0.00    +0.105 HD
ENDROOT
BRANCH   1  56
ATOM     56  C   UNL     1     146.266 156.812 189.640  0.00  0.00    -0.056 C 
ATOM     57  H   UNL     1     147.038 156.768 190.416  0.00  0.00    +0.024 HD
ATOM     58  H   UNL     1     146.263 155.842 189.137  0.00  0.00    +0.024 HD
ATOM     59  H   UNL     1     145.298 156.939 190.140  0.00  0.00    +0.024 HD
ENDBRANCH   1  56
BRANCH  14  60
ATOM     60  C   UNL     1     146.449 168.840 188.312  0.00  0.00    -0.057 C 
ATOM     61  H   UNL     1     147.337 169.274 187.845  0.00  0.00    +0.023 HD
ATOM     62  H   UNL     1     146.667 168.667 189.369  0.00  0.00    +0.023 HD
ATOM     63  H   UNL     1     145.654 169.591 188.282  0.00  0.00    +0.023 HD
ENDBRANCH  14  60
BRANCH  13  64
ATOM     64  C   UNL     1     144.750 166.716 189.710  0.00  0.00    +0.011 C 
ATOM     65  H   UNL     1     145.770 166.955 190.028  0.00  0.00    +0.033 HD
ATOM     66  H   UNL     1     144.623 165.641 189.881  0.00  0.00    +0.033 HD
BRANCH  64  67
ATOM     67  C   UNL     1     143.767 167.506 190.610  0.00  0.00    +0.064 C 
ATOM     68  H   UNL     1     142.866 167.734 190.026  0.00  0.00    +0.060 HD
BRANCH  67  69
ATOM     69  C   UNL     1     143.335 166.658 191.849  0.00  0.00    -0.017 C 
ATOM     70  H   UNL     1     142.388 167.077 192.217  0.00  0.00    +0.032 HD
BRANCH  69  71
ATOM     71  C   UNL     1     143.086 165.186 191.494  0.00  0.00    -0.060 C 
ATOM     72  H   UNL     1     143.867 164.793 190.835  0.00  0.00    +0.023 HD
ATOM     73  H   UNL     1     142.121 165.040 191.002  0.00  0.00    +0.023 HD
ATOM     74  H   UNL     1     143.051 164.565 192.391  0.00  0.00    +0.023 HD
ENDBRANCH  69  71
BRANCH  69  75
ATOM     75  C   UNL     1     144.381 166.788 192.985  0.00  0.00    -0.041 C 
ATOM     76  H   UNL     1     143.880 166.550 193.933  0.00  0.00    +0.027 HD
ATOM     77  H   UNL     1     144.730 167.824 193.069  0.00  0.00    +0.027 HD
BRANCH  75  78
ATOM     78  C   UNL     1     145.573 165.833 192.858  0.00  0.00    +0.007 C 
ATOM     79  H   UNL     1     145.215 164.866 192.490  0.00  0.00    +0.034 HD
ATOM     80  H   UNL     1     146.286 166.223 192.123  0.00  0.00    +0.034 HD
BRANCH  78  81
ATOM     81  C   UNL     1     146.306 165.542 194.164  0.00  0.00    +0.140 C 
ATOM     82  O   UNL     1     146.030 164.571 194.871  0.00  0.00    -0.297 OA
BRANCH  81  83
ATOM     83  C   UNL     1     147.405 166.524 194.547  0.00  0.00    +0.052 C 
ATOM     84  H   UNL     1     147.081 167.530 194.258  0.00  0.00    +0.041 HD
BRANCH  83  85
ATOM     85  C   UNL     1     147.558 166.509 196.071  0.00  0.00    -0.052 C 
ATOM     86  H   UNL     1     148.117 165.632 196.405  0.00  0.00    +0.024 HD
ATOM     87  H   UNL     1     148.092 167.394 196.429  0.00  0.00    +0.024 HD
ATOM     88  H   UNL     1     146.579 166.501 196.561  0.00  0.00    +0.024 HD
ENDBRANCH  83  85
BRANCH  83  89
ATOM     89  C   UNL     1     148.749 166.205 193.849  0.00  0.00    +0.118 C 
ATOM     90  H   UNL     1     148.692 165.201 193.416  0.00  0.00    +0.075 HD
BRANCH  89  91
ATOM     91  C   UNL     1     149.119 167.189 192.701  0.00  0.00    +0.014 C 
ATOM     92  H   UNL     1     150.115 167.566 192.930  0.00  0.00    +0.038 HD
BRANCH  91  93
ATOM     93  C   UNL     1     148.179 168.398 192.677  0.00  0.00    -0.056 C 
ATOM     94  H   UNL     1     147.318 168.242 192.014  0.00  0.00    +0.024 HD
ATOM     95  H   UNL     1     148.707 169.293 192.329  0.00  0.00    +0.024 HD
ATOM     96  H   UNL     1     147.798 168.609 193.683  0.00  0.00    +0.024 HD
ENDBRANCH  91  93
BRANCH  91  97
ATOM     97  C   UNL     1     149.114 166.523 191.342  0.00  0.00    -0.064 C 
ATOM     98  C   UNL     1     150.145 166.113 190.589  0.00  0.00    -0.010 C 
ATOM     99  H   UNL     1     148.117 166.292 190.962  0.00  0.00    +0.059 HD
ATOM    100  H   UNL     1     149.889 165.543 189.695  0.00  0.00    +0.078 HD
BRANCH  98 101
ATOM    101  N   UNL     1     151.520 166.216 190.730  0.00  0.00    -0.317 N 
BRANCH 101 102
ATOM    102  C   UNL     1     152.361 165.016 190.655  0.00  0.00    +0.002 C 
ATOM    103  H   UNL     1     153.377 165.224 191.016  0.00  0.00    +0.043 HD
ATOM    104  H   UNL     1     152.448 164.665 189.619  0.00  0.00    +0.043 HD
ATOM    105  H   UNL     1     151.938 164.214 191.268  0.00  0.00    +0.043 HD
ENDBRANCH 101 102
BRANCH 101 106
ATOM    106  C   UNL     1     152.273 167.460 190.636  0.00  0.00    +0.110 C 
ATOM    107  H   UNL     1     151.914 168.248 191.293  0.00  0.00    +0.077 HD
ATOM    108  H   UNL     1     153.335 167.304 190.848  0.00  0.00    +0.077 HD
BRANCH 106 109
ATOM    109  O   UNL     1     152.131 167.928 189.309  0.00  0.00    -0.377 OA
ATOM    110  H   UNL     1     152.684 168.729 189.322  0.00  0.00    +0.211 HD
ENDBRANCH 106 109
ENDBRANCH 101 106
ENDBRANCH  98 101
ENDBRANCH  91  97
ENDBRANCH  89  91
BRANCH  89 111
ATOM    111  O   UNL     1     149.785 166.268 194.867  0.00  0.00    -0.460 OA
BRANCH 111 112
ATOM    112  C   UNL     1     150.709 165.271 194.887  0.00  0.00    +0.304 C 
ATOM    113  O   UNL     1     150.541 164.142 195.323  0.00  0.00    -0.251 OA
BRANCH 112 114
ATOM    114  C   UNL     1     151.993 165.761 194.293  0.00  0.00    +0.033 C 
ATOM    115  H   UNL     1     152.837 165.398 194.885  0.00  0.00    +0.034 HD
ATOM    116  H   UNL     1     151.989 166.853 194.251  0.00  0.00    +0.034 HD
ATOM    117  H   UNL     1     152.091 165.374 193.274  0.00  0.00    +0.034 HD
ENDBRANCH 112 114
ENDBRANCH 111 112
ENDBRANCH  89 111
ENDBRANCH  83  89
ENDBRANCH  81  83
ENDBRANCH  78  81
ENDBRANCH  75  78
ENDBRANCH  69  75
ENDBRANCH  67  69
BRANCH  67 118
ATOM    118  O   UNL     1     144.389 168.709 191.070  0.00  0.00    -0.379 OA
BRANCH 118 119
ATOM    119  C   UNL     1     143.704 169.894 190.674  0.00  0.00    +0.037 C 
ATOM    120  H   UNL     1     143.766 170.653 191.459  0.00  0.00    +0.052 HD
ATOM    121  H   UNL     1     144.105 170.291 189.738  0.00  0.00    +0.052 HD
ATOM    122  H   UNL     1     142.650 169.642 190.520  0.00  0.00    +0.052 HD
ENDBRANCH 118 119
ENDBRANCH  67 118
ENDBRANCH  64  67
ENDBRANCH  13  64
BRANCH   8 123
ATOM    123  O   UNL     1     141.221 163.209 188.789  0.00  0.00    -0.391 OA
ATOM    124  H   UNL     1     141.149 163.818 189.552  0.00  0.00    +0.210 HD
ENDBRANCH   8 123
BRANCH  15 125
ATOM    125  O   UNL     1     144.970 168.832 185.816  0.00  0.00    -0.379 OA
BRANCH 125 126
ATOM    126  C   UNL     1     143.982 168.506 184.843  0.00  0.00    +0.037 C 
ATOM    127  H   UNL     1     144.452 168.341 183.867  0.00  0.00    +0.052 HD
ATOM    128  H   UNL     1     143.489 167.581 185.152  0.00  0.00    +0.052 HD
ATOM    129  H   UNL     1     143.227 169.295 184.771  0.00  0.00    +0.052 HD
ENDBRANCH 125 126
ENDBRANCH  15 125
TORSDOF 27
ENDMDL
MODEL 3
REMARK VINA RESULT:      -6.0      1.304      2.173
REMARK  Name = Ulapualide A_conf1
REMARK  27 active torsions:
REMARK  status: ('A' for Active; 'I' for Inactive)
REMARK    1  A    between atoms: C_1  and  C_2
REMARK    2  A    between atoms: C_9  and  O_63
REMARK    3  A    between atoms: C_14  and  C_38
REMARK    4  A    between atoms: C_15  and  C_37
REMARK    5  A    between atoms: C_16  and  O_35
REMARK    6  A    between atoms: O_35  and  C_36
REMARK    7  A    between atoms: C_38  and  C_39
REMARK    8  A    between atoms: C_39  and  C_40
REMARK    9  A    between atoms: C_39  and  O_61
REMARK   10  A    between atoms: C_40  and  C_41
REMARK   11  A    between atoms: C_40  and  C_42
REMARK   12  A    between atoms: C_42  and  C_43
REMARK   13  A    between atoms: C_43  and  C_44
REMARK   14  A    between atoms: C_44  and  C_46
REMARK   15  A    between atoms: C_46  and  C_47
REMARK   16  A    between atoms: C_46  and  C_48
REMARK   17  A    between atoms: C_48  and  C_49
REMARK   18  A    between atoms: C_48  and  O_57
REMARK   19  A    between atoms: C_49  and  C_50
REMARK   20  A    between atoms: C_49  and  C_51
REMARK   21  A    between atoms: C_52  and  N_53
REMARK   22  A    between atoms: N_53  and  C_54
REMARK   23  A    between atoms: N_53  and  C_55
REMARK   24  A    between atoms: C_55  and  O_56
REMARK   25  A    between atoms: O_57  and  C_58
REMARK   26  A    between atoms: C_58  and  C_60
REMARK   27  A    between atoms: O_61  and  C_62
REMARK                            x       y       z     vdW  Elec       q    Type
REMARK                         _______ _______ _______ _____ _____    ______ ____
ROOT
ATOM      1  C   UNL     1     148.186 165.593 194.863  0.00  0.00    +0.008 C 
ATOM      2  C   UNL     1     147.051 165.940 193.878  0.00  0.00    +0.014 C 
ATOM      3  C   UNL     1     145.713 165.410 194.354  0.00  0.00    +0.134 C 
ATOM      4  O   UNL     1     145.619 164.329 194.941  0.00  0.00    -0.297 OA
ATOM      5  C   UNL     1     144.479 166.251 194.095  0.00  0.00    +0.006 C 
ATOM      6  C   UNL     1     144.211 166.545 192.624  0.00  0.00    -0.044 C 
ATOM      7  C   UNL     1     144.081 165.285 191.756  0.00  0.00    -0.026 C 
ATOM      8  C   UNL     1     143.509 165.635 190.375  0.00  0.00    +0.065 C 
ATOM      9  C   UNL     1     143.769 164.535 189.348  0.00  0.00    +0.071 C 
ATOM     10  C   UNL     1     143.640 165.138 187.975  0.00  0.00    +0.310 C 
ATOM     11  O   UNL     1     142.589 165.576 187.520  0.00  0.00    -0.251 OA
ATOM     12  O   UNL     1     144.854 165.203 187.359  0.00  0.00    -0.461 OA
ATOM     13  C   UNL     1     144.938 166.085 186.213  0.00  0.00    +0.110 C 
ATOM     14  C   UNL     1     146.208 165.717 185.397  0.00  0.00    +0.020 C 
ATOM     15  C   UNL     1     146.194 164.210 184.994  0.00  0.00    +0.068 C 
ATOM     16  C   UNL     1     147.531 163.717 184.383  0.00  0.00    -0.008 C 
ATOM     17  C   UNL     1     148.701 164.027 185.267  0.00  0.00    -0.077 C 
ATOM     18  C   UNL     1     149.805 164.694 184.886  0.00  0.00    -0.003 C 
ATOM     19  C   UNL     1     150.782 165.061 185.853  0.00  0.00    +0.220 A 
ATOM     20  N   UNL     1     150.577 165.151 187.160  0.00  0.00    -0.205 NA
ATOM     21  C   UNL     1     151.783 165.526 187.694  0.00  0.00    +0.164 A 
ATOM     22  C   UNL     1     152.706 165.670 186.695  0.00  0.00    +0.125 A 
ATOM     23  O   UNL     1     152.079 165.408 185.512  0.00  0.00    -0.443 OA
ATOM     24  C   UNL     1     152.037 165.751 189.215  0.00  0.00    +0.250 A 
ATOM     25  N   UNL     1     151.072 165.699 190.118  0.00  0.00    -0.203 NA
ATOM     26  C   UNL     1     151.714 165.915 191.310  0.00  0.00    +0.164 A 
ATOM     27  C   UNL     1     153.057 166.104 191.089  0.00  0.00    +0.125 A 
ATOM     28  O   UNL     1     153.277 166.028 189.747  0.00  0.00    -0.442 OA
ATOM     29  C   UNL     1     151.026 165.926 192.707  0.00  0.00    +0.249 A 
ATOM     30  N   UNL     1     149.727 165.761 192.884  0.00  0.00    -0.212 NA
ATOM     31  C   UNL     1     149.544 165.810 194.248  0.00  0.00    +0.083 A 
ATOM     32  C   UNL     1     150.767 166.003 194.850  0.00  0.00    +0.116 A 
ATOM     33  O   UNL     1     151.718 166.090 193.882  0.00  0.00    -0.442 OA
ATOM     34  H   UNL     1     148.129 164.527 195.117  0.00  0.00    +0.037 HD
ATOM     35  H   UNL     1     146.989 167.025 193.744  0.00  0.00    +0.035 HD
ATOM     36  H   UNL     1     147.222 165.495 192.891  0.00  0.00    +0.035 HD
ATOM     37  H   UNL     1     143.617 165.733 194.530  0.00  0.00    +0.034 HD
ATOM     38  H   UNL     1     144.598 167.188 194.648  0.00  0.00    +0.034 HD
ATOM     39  H   UNL     1     143.288 167.137 192.561  0.00  0.00    +0.027 HD
ATOM     40  H   UNL     1     145.012 167.175 192.217  0.00  0.00    +0.027 HD
ATOM     41  H   UNL     1     143.427 164.561 192.258  0.00  0.00    +0.029 HD
ATOM     42  H   UNL     1     145.071 164.829 191.652  0.00  0.00    +0.029 HD
ATOM     43  H   UNL     1     143.924 166.591 190.043  0.00  0.00    +0.060 HD
ATOM     44  H   UNL     1     143.051 163.711 189.429  0.00  0.00    +0.040 HD
ATOM     45  H   UNL     1     144.775 164.119 189.456  0.00  0.00    +0.040 HD
ATOM     46  H   UNL     1     144.062 165.914 185.575  0.00  0.00    +0.074 HD
ATOM     47  H   UNL     1     147.073 165.869 186.051  0.00  0.00    +0.036 HD
ATOM     48  H   UNL     1     146.002 163.614 185.896  0.00  0.00    +0.060 HD
ATOM     49  H   UNL     1     147.664 164.131 183.376  0.00  0.00    +0.033 HD
ATOM     50  H   UNL     1     147.485 162.630 184.240  0.00  0.00    +0.033 HD
ATOM     51  H   UNL     1     148.592 163.729 186.313  0.00  0.00    +0.057 HD
ATOM     52  H   UNL     1     149.977 164.970 183.854  0.00  0.00    +0.067 HD
ATOM     53  H   UNL     1     153.741 165.965 186.643  0.00  0.00    +0.105 HD
ATOM     54  H   UNL     1     153.914 166.299 191.716  0.00  0.00    +0.105 HD
ATOM     55  H   UNL     1     151.110 166.084 195.871  0.00  0.00    +0.105 HD
ENDROOT
BRANCH   1  56
ATOM     56  C   UNL     1     148.017 166.395 196.161  0.00  0.00    -0.056 C 
ATOM     57  H   UNL     1     148.229 167.458 196.002  0.00  0.00    +0.024 HD
ATOM     58  H   UNL     1     148.704 166.045 196.936  0.00  0.00    +0.024 HD
ATOM     59  H   UNL     1     146.995 166.314 196.550  0.00  0.00    +0.024 HD
ENDBRANCH   1  56
BRANCH  14  60
ATOM     60  C   UNL     1     146.365 166.634 184.175  0.00  0.00    -0.057 C 
ATOM     61  H   UNL     1     146.813 167.592 184.450  0.00  0.00    +0.023 HD
ATOM     62  H   UNL     1     145.408 166.829 183.685  0.00  0.00    +0.023 HD
ATOM     63  H   UNL     1     147.007 166.169 183.420  0.00  0.00    +0.023 HD
ENDBRANCH  14  60
BRANCH  13  64
ATOM     64  C   UNL     1     144.915 167.555 186.705  0.00  0.00    +0.011 C 
ATOM     65  H   UNL     1     143.929 167.718 187.151  0.00  0.00    +0.033 HD
ATOM     66  H   UNL     1     144.975 168.228 185.843  0.00  0.00    +0.033 HD
BRANCH  64  67
ATOM     67  C   UNL     1     145.989 167.950 187.750  0.00  0.00    +0.064 C 
ATOM     68  H   UNL     1     146.639 167.084 187.928  0.00  0.00    +0.060 HD
BRANCH  67  69
ATOM     69  C   UNL     1     146.880 169.121 187.223  0.00  0.00    -0.017 C 
ATOM     70  H   UNL     1     147.155 169.736 188.091  0.00  0.00    +0.032 HD
BRANCH  69  71
ATOM     71  C   UNL     1     148.178 168.623 186.573  0.00  0.00    -0.060 C 
ATOM     72  H   UNL     1     148.110 168.632 185.480  0.00  0.00    +0.023 HD
ATOM     73  H   UNL     1     148.433 167.609 186.890  0.00  0.00    +0.023 HD
ATOM     74  H   UNL     1     149.027 169.242 186.868  0.00  0.00    +0.023 HD
ENDBRANCH  69  71
BRANCH  69  75
ATOM     75  C   UNL     1     146.075 170.016 186.247  0.00  0.00    -0.041 C 
ATOM     76  H   UNL     1     145.129 169.505 186.025  0.00  0.00    +0.027 HD
ATOM     77  H   UNL     1     146.605 170.120 185.294  0.00  0.00    +0.027 HD
BRANCH  75  78
ATOM     78  C   UNL     1     145.714 171.396 186.809  0.00  0.00    +0.007 C 
ATOM     79  H   UNL     1     146.523 171.736 187.464  0.00  0.00    +0.034 HD
ATOM     80  H   UNL     1     145.625 172.120 185.992  0.00  0.00    +0.034 HD
BRANCH  78  81
ATOM     81  C   UNL     1     144.445 171.434 187.655  0.00  0.00    +0.140 C 
ATOM     82  O   UNL     1     143.450 170.761 187.379  0.00  0.00    -0.297 OA
BRANCH  81  83
ATOM     83  C   UNL     1     144.476 172.356 188.867  0.00  0.00    +0.052 C 
ATOM     84  H   UNL     1     145.367 172.989 188.793  0.00  0.00    +0.041 HD
BRANCH  83  85
ATOM     85  C   UNL     1     143.251 173.274 188.809  0.00  0.00    -0.052 C 
ATOM     86  H   UNL     1     143.544 174.315 188.654  0.00  0.00    +0.024 HD
ATOM     87  H   UNL     1     142.580 172.996 187.992  0.00  0.00    +0.024 HD
ATOM     88  H   UNL     1     142.675 173.214 189.738  0.00  0.00    +0.024 HD
ENDBRANCH  83  85
BRANCH  83  89
ATOM     89  C   UNL     1     144.523 171.572 190.201  0.00  0.00    +0.118 C 
ATOM     90  H   UNL     1     144.616 170.504 189.980  0.00  0.00    +0.075 HD
BRANCH  89  91
ATOM     91  C   UNL     1     145.711 171.963 191.128  0.00  0.00    +0.014 C 
ATOM     92  H   UNL     1     145.835 171.139 191.830  0.00  0.00    +0.038 HD
BRANCH  91  93
ATOM     93  C   UNL     1     145.387 173.211 191.955  0.00  0.00    -0.056 C 
ATOM     94  H   UNL     1     146.284 173.796 192.195  0.00  0.00    +0.024 HD
ATOM     95  H   UNL     1     144.908 172.934 192.902  0.00  0.00    +0.024 HD
ATOM     96  H   UNL     1     144.693 173.862 191.412  0.00  0.00    +0.024 HD
ENDBRANCH  91  93
BRANCH  91  97
ATOM     97  C   UNL     1     146.996 172.191 190.360  0.00  0.00    -0.064 C 
ATOM     98  C   UNL     1     148.266 172.011 190.751  0.00  0.00    -0.010 C 
ATOM     99  H   UNL     1     146.847 172.483 189.319  0.00  0.00    +0.059 HD
ATOM    100  H   UNL     1     149.026 172.123 189.977  0.00  0.00    +0.078 HD
BRANCH  98 101
ATOM    101  N   UNL     1     148.842 171.650 191.958  0.00  0.00    -0.317 N 
BRANCH 101 102
ATOM    102  C   UNL     1     149.214 170.253 192.210  0.00  0.00    +0.002 C 
ATOM    103  H   UNL     1     150.207 170.187 192.675  0.00  0.00    +0.043 HD
ATOM    104  H   UNL     1     149.254 169.685 191.272  0.00  0.00    +0.043 HD
ATOM    105  H   UNL     1     148.490 169.780 192.881  0.00  0.00    +0.043 HD
ENDBRANCH 101 102
BRANCH 101 106
ATOM    106  C   UNL     1     149.420 172.585 192.915  0.00  0.00    +0.110 C 
ATOM    107  H   UNL     1     150.456 172.379 193.169  0.00  0.00    +0.077 HD
ATOM    108  H   UNL     1     149.362 173.616 192.554  0.00  0.00    +0.077 HD
BRANCH 106 109
ATOM    109  O   UNL     1     148.670 172.470 194.108  0.00  0.00    -0.377 OA
ATOM    110  H   UNL     1     147.892 171.968 193.805  0.00  0.00    +0.211 HD
ENDBRANCH 106 109
ENDBRANCH 101 106
ENDBRANCH  98 101
ENDBRANCH  91  97
ENDBRANCH  89  91
BRANCH  89 111
ATOM    111  O   UNL     1     143.279 171.846 190.901  0.00  0.00    -0.460 OA
BRANCH 111 112
ATOM    112  C   UNL     1     142.549 170.781 191.328  0.00  0.00    +0.304 C 
ATOM    113  O   UNL     1     142.985 169.673 191.603  0.00  0.00    -0.251 OA
BRANCH 112 114
ATOM    114  C   UNL     1     141.103 171.161 191.409  0.00  0.00    +0.033 C 
ATOM    115  H   UNL     1     140.667 171.175 190.407  0.00  0.00    +0.034 HD
ATOM    116  H   UNL     1     141.003 172.137 191.890  0.00  0.00    +0.034 HD
ATOM    117  H   UNL     1     140.567 170.419 192.012  0.00  0.00    +0.034 HD
ENDBRANCH 112 114
ENDBRANCH 111 112
ENDBRANCH  89 111
ENDBRANCH  83  89
ENDBRANCH  81  83
ENDBRANCH  78  81
ENDBRANCH  75  78
ENDBRANCH  69  75
ENDBRANCH  67  69
BRANCH  67 118
ATOM    118  O   UNL     1     145.355 168.364 188.963  0.00  0.00    -0.379 OA
BRANCH 118 119
ATOM    119  C   UNL     1     146.229 168.376 190.090  0.00  0.00    +0.037 C 
ATOM    120  H   UNL     1     147.172 167.880 189.848  0.00  0.00    +0.052 HD
ATOM    121  H   UNL     1     146.419 169.396 190.433  0.00  0.00    +0.052 HD
ATOM    122  H   UNL     1     145.745 167.822 190.900  0.00  0.00    +0.052 HD
ENDBRANCH 118 119
ENDBRANCH  67 118
ENDBRANCH  64  67
ENDBRANCH  13  64
BRANCH   8 123
ATOM    123  O   UNL     1     142.098 165.811 190.530  0.00  0.00    -0.391 OA
ATOM    124  H   UNL     1     141.971 166.523 191.190  0.00  0.00    +0.210 HD
ENDBRANCH   8 123
BRANCH  15 125
ATOM    125  O   UNL     1     145.135 164.009 184.046  0.00  0.00    -0.379 OA
BRANCH 125 126
ATOM    126  C   UNL     1     145.508 163.149 182.974  0.00  0.00    +0.037 C 
ATOM    127  H   UNL     1     146.590 162.981 182.980  0.00  0.00    +0.052 HD
ATOM    128  H   UNL     1     145.006 162.189 183.116  0.00  0.00    +0.052 HD
ATOM    129  H   UNL     1     145.195 163.565 182.011  0.00  0.00    +0.052 HD
ENDBRANCH 125 126
ENDBRANCH  15 125
TORSDOF 27
ENDMDL
MODEL 4
REMARK VINA RESULT:      -5.9      1.758      3.695
REMARK  Name = Ulapualide A_conf1
REMARK  27 active torsions:
REMARK  status: ('A' for Active; 'I' for Inactive)
REMARK    1  A    between atoms: C_1  and  C_2
REMARK    2  A    between atoms: C_9  and  O_63
REMARK    3  A    between atoms: C_14  and  C_38
REMARK    4  A    between atoms: C_15  and  C_37
REMARK    5  A    between atoms: C_16  and  O_35
REMARK    6  A    between atoms: O_35  and  C_36
REMARK    7  A    between atoms: C_38  and  C_39
REMARK    8  A    between atoms: C_39  and  C_40
REMARK    9  A    between atoms: C_39  and  O_61
REMARK   10  A    between atoms: C_40  and  C_41
REMARK   11  A    between atoms: C_40  and  C_42
REMARK   12  A    between atoms: C_42  and  C_43
REMARK   13  A    between atoms: C_43  and  C_44
REMARK   14  A    between atoms: C_44  and  C_46
REMARK   15  A    between atoms: C_46  and  C_47
REMARK   16  A    between atoms: C_46  and  C_48
REMARK   17  A    between atoms: C_48  and  C_49
REMARK   18  A    between atoms: C_48  and  O_57
REMARK   19  A    between atoms: C_49  and  C_50
REMARK   20  A    between atoms: C_49  and  C_51
REMARK   21  A    between atoms: C_52  and  N_53
REMARK   22  A    between atoms: N_53  and  C_54
REMARK   23  A    between atoms: N_53  and  C_55
REMARK   24  A    between atoms: C_55  and  O_56
REMARK   25  A    between atoms: O_57  and  C_58
REMARK   26  A    between atoms: C_58  and  C_60
REMARK   27  A    between atoms: O_61  and  C_62
REMARK                            x       y       z     vdW  Elec       q    Type
REMARK                         _______ _______ _______ _____ _____    ______ ____
ROOT
ATOM      1  C   UNL     1     148.100 165.771 194.688  0.00  0.00    +0.008 C 
ATOM      2  C   UNL     1     147.144 166.101 193.524  0.00  0.00    +0.014 C 
ATOM      3  C   UNL     1     145.717 165.698 193.838  0.00  0.00    +0.134 C 
ATOM      4  O   UNL     1     145.462 164.680 194.485  0.00  0.00    -0.297 OA
ATOM      5  C   UNL     1     144.597 166.587 193.336  0.00  0.00    +0.006 C 
ATOM      6  C   UNL     1     144.562 166.769 191.823  0.00  0.00    -0.044 C 
ATOM      7  C   UNL     1     144.464 165.448 191.046  0.00  0.00    -0.026 C 
ATOM      8  C   UNL     1     144.120 165.712 189.573  0.00  0.00    +0.065 C 
ATOM      9  C   UNL     1     144.440 164.513 188.683  0.00  0.00    +0.071 C 
ATOM     10  C   UNL     1     144.551 165.001 187.264  0.00  0.00    +0.310 C 
ATOM     11  O   UNL     1     143.610 165.462 186.627  0.00  0.00    -0.251 OA
ATOM     12  O   UNL     1     145.841 164.937 186.830  0.00  0.00    -0.461 OA
ATOM     13  C   UNL     1     146.151 165.709 185.643  0.00  0.00    +0.110 C 
ATOM     14  C   UNL     1     147.493 165.194 185.054  0.00  0.00    +0.020 C 
ATOM     15  C   UNL     1     147.426 163.662 184.770  0.00  0.00    +0.068 C 
ATOM     16  C   UNL     1     148.796 163.036 184.402  0.00  0.00    -0.008 C 
ATOM     17  C   UNL     1     149.849 163.349 185.422  0.00  0.00    -0.077 C 
ATOM     18  C   UNL     1     151.041 163.911 185.156  0.00  0.00    -0.003 C 
ATOM     19  C   UNL     1     151.896 164.300 186.226  0.00  0.00    +0.220 A 
ATOM     20  N   UNL     1     151.516 164.515 187.477  0.00  0.00    -0.205 NA
ATOM     21  C   UNL     1     152.659 164.860 188.152  0.00  0.00    +0.164 A 
ATOM     22  C   UNL     1     153.721 164.860 187.292  0.00  0.00    +0.125 A 
ATOM     23  O   UNL     1     153.250 164.535 186.053  0.00  0.00    -0.443 OA
ATOM     24  C   UNL     1     152.711 165.201 189.672  0.00  0.00    +0.250 A 
ATOM     25  N   UNL     1     151.627 165.287 190.425  0.00  0.00    -0.203 NA
ATOM     26  C   UNL     1     152.108 165.565 191.678  0.00  0.00    +0.164 A 
ATOM     27  C   UNL     1     153.479 165.652 191.643  0.00  0.00    +0.125 A 
ATOM     28  O   UNL     1     153.881 165.446 190.358  0.00  0.00    -0.442 OA
ATOM     29  C   UNL     1     151.232 165.740 192.954  0.00  0.00    +0.249 A 
ATOM     30  N   UNL     1     149.913 165.672 192.951  0.00  0.00    -0.212 NA
ATOM     31  C   UNL     1     149.543 165.850 194.265  0.00  0.00    +0.083 A 
ATOM     32  C   UNL     1     150.679 166.019 195.023  0.00  0.00    +0.116 A 
ATOM     33  O   UNL     1     151.762 165.963 194.201  0.00  0.00    -0.442 OA
ATOM     34  H   UNL     1     147.929 164.737 195.013  0.00  0.00    +0.037 HD
ATOM     35  H   UNL     1     147.182 167.172 193.299  0.00  0.00    +0.035 HD
ATOM     36  H   UNL     1     147.420 165.562 192.610  0.00  0.00    +0.035 HD
ATOM     37  H   UNL     1     143.646 166.164 193.679  0.00  0.00    +0.034 HD
ATOM     38  H   UNL     1     144.705 167.560 193.827  0.00  0.00    +0.034 HD
ATOM     39  H   UNL     1     143.703 167.408 191.580  0.00  0.00    +0.027 HD
ATOM     40  H   UNL     1     145.456 167.310 191.491  0.00  0.00    +0.027 HD
ATOM     41  H   UNL     1     143.694 164.813 191.500  0.00  0.00    +0.029 HD
ATOM     42  H   UNL     1     145.422 164.925 191.123  0.00  0.00    +0.029 HD
ATOM     43  H   UNL     1     144.646 166.607 189.233  0.00  0.00    +0.060 HD
ATOM     44  H   UNL     1     143.660 163.744 188.721  0.00  0.00    +0.040 HD
ATOM     45  H   UNL     1     145.388 164.046 188.969  0.00  0.00    +0.040 HD
ATOM     46  H   UNL     1     145.364 165.538 184.898  0.00  0.00    +0.074 HD
ATOM     47  H   UNL     1     148.266 165.349 185.813  0.00  0.00    +0.036 HD
ATOM     48  H   UNL     1     147.064 163.159 185.677  0.00  0.00    +0.060 HD
ATOM     49  H   UNL     1     149.099 163.352 183.397  0.00  0.00    +0.033 HD
ATOM     50  H   UNL     1     148.690 161.946 184.338  0.00  0.00    +0.033 HD
ATOM     51  H   UNL     1     149.571 163.151 186.460  0.00  0.00    +0.057 HD
ATOM     52  H   UNL     1     151.377 164.085 184.143  0.00  0.00    +0.067 HD
ATOM     53  H   UNL     1     154.772 165.085 187.369  0.00  0.00    +0.105 HD
ATOM     54  H   UNL     1     154.251 165.847 192.371  0.00  0.00    +0.105 HD
ATOM     55  H   UNL     1     150.880 166.167 196.074  0.00  0.00    +0.105 HD
ENDROOT
BRANCH   1  56
ATOM     56  C   UNL     1     147.809 166.692 195.882  0.00  0.00    -0.056 C 
ATOM     57  H   UNL     1     148.548 166.557 196.679  0.00  0.00    +0.024 HD
ATOM     58  H   UNL     1     146.829 166.480 196.317  0.00  0.00    +0.024 HD
ATOM     59  H   UNL     1     147.829 167.748 195.585  0.00  0.00    +0.024 HD
ENDBRANCH   1  56
BRANCH  14  60
ATOM     60  C   UNL     1     147.888 165.990 183.800  0.00  0.00    -0.057 C 
ATOM     61  H   UNL     1     148.935 166.302 183.840  0.00  0.00    +0.023 HD
ATOM     62  H   UNL     1     147.268 166.880 183.669  0.00  0.00    +0.023 HD
ATOM     63  H   UNL     1     147.754 165.386 182.898  0.00  0.00    +0.023 HD
ENDBRANCH  14  60
BRANCH  13  64
ATOM     64  C   UNL     1     146.167 167.215 186.012  0.00  0.00    +0.011 C 
ATOM     65  H   UNL     1     145.142 167.478 186.289  0.00  0.00    +0.033 HD
ATOM     66  H   UNL     1     146.403 167.806 185.120  0.00  0.00    +0.033 HD
BRANCH  64  67
ATOM     67  C   UNL     1     147.102 167.631 187.175  0.00  0.00    +0.064 C 
ATOM     68  H   UNL     1     146.541 167.565 188.115  0.00  0.00    +0.060 HD
BRANCH  67  69
ATOM     69  C   UNL     1     148.330 166.669 187.280  0.00  0.00    -0.017 C 
ATOM     70  H   UNL     1     148.137 165.821 186.608  0.00  0.00    +0.032 HD
BRANCH  69  71
ATOM     71  C   UNL     1     149.637 167.335 186.829  0.00  0.00    -0.060 C 
ATOM     72  H   UNL     1     149.558 167.727 185.810  0.00  0.00    +0.023 HD
ATOM     73  H   UNL     1     150.482 166.643 186.862  0.00  0.00    +0.023 HD
ATOM     74  H   UNL     1     149.908 168.157 187.492  0.00  0.00    +0.023 HD
ENDBRANCH  69  71
BRANCH  69  75
ATOM     75  C   UNL     1     148.457 166.109 188.720  0.00  0.00    -0.041 C 
ATOM     76  H   UNL     1     149.517 166.142 189.001  0.00  0.00    +0.027 HD
ATOM     77  H   UNL     1     148.158 165.055 188.750  0.00  0.00    +0.027 HD
BRANCH  75  78
ATOM     78  C   UNL     1     147.690 166.910 189.778  0.00  0.00    +0.007 C 
ATOM     79  H   UNL     1     146.845 167.416 189.298  0.00  0.00    +0.034 HD
ATOM     80  H   UNL     1     147.281 166.232 190.535  0.00  0.00    +0.034 HD
BRANCH  78  81
ATOM     81  C   UNL     1     148.498 168.004 190.467  0.00  0.00    +0.140 C 
ATOM     82  O   UNL     1     149.718 168.110 190.324  0.00  0.00    -0.297 OA
BRANCH  81  83
ATOM     83  C   UNL     1     147.710 168.965 191.348  0.00  0.00    +0.052 C 
ATOM     84  H   UNL     1     146.758 168.489 191.606  0.00  0.00    +0.041 HD
BRANCH  83  85
ATOM     85  C   UNL     1     148.487 169.176 192.652  0.00  0.00    -0.052 C 
ATOM     86  H   UNL     1     147.966 169.870 193.315  0.00  0.00    +0.024 HD
ATOM     87  H   UNL     1     148.618 168.237 193.197  0.00  0.00    +0.024 HD
ATOM     88  H   UNL     1     149.485 169.576 192.449  0.00  0.00    +0.024 HD
ENDBRANCH  83  85
BRANCH  83  89
ATOM     89  C   UNL     1     147.428 170.313 190.643  0.00  0.00    +0.118 C 
ATOM     90  H   UNL     1     148.305 170.590 190.048  0.00  0.00    +0.075 HD
BRANCH  89  91
ATOM     91  C   UNL     1     146.202 170.286 189.685  0.00  0.00    +0.014 C 
ATOM     92  H   UNL     1     146.380 169.474 188.982  0.00  0.00    +0.038 HD
BRANCH  91  93
ATOM     93  C   UNL     1     146.108 171.576 188.862  0.00  0.00    -0.056 C 
ATOM     94  H   UNL     1     145.160 171.652 188.315  0.00  0.00    +0.024 HD
ATOM     95  H   UNL     1     146.920 171.627 188.128  0.00  0.00    +0.024 HD
ATOM     96  H   UNL     1     146.195 172.453 189.513  0.00  0.00    +0.024 HD
ENDBRANCH  91  93
BRANCH  91  97
ATOM     97  C   UNL     1     144.896 170.064 190.418  0.00  0.00    -0.064 C 
ATOM     98  C   UNL     1     143.664 169.871 189.925  0.00  0.00    -0.010 C 
ATOM     99  H   UNL     1     145.001 169.988 191.502  0.00  0.00    +0.059 HD
ATOM    100  H   UNL     1     142.894 169.606 190.651  0.00  0.00    +0.078 HD
BRANCH  98 101
ATOM    101  N   UNL     1     143.145 169.886 188.640  0.00  0.00    -0.317 N 
BRANCH 101 102
ATOM    102  C   UNL     1     142.469 171.084 188.131  0.00  0.00    +0.002 C 
ATOM    103  H   UNL     1     142.416 171.864 188.903  0.00  0.00    +0.043 HD
ATOM    104  H   UNL     1     141.440 170.853 187.829  0.00  0.00    +0.043 HD
ATOM    105  H   UNL     1     143.009 171.491 187.270  0.00  0.00    +0.043 HD
ENDBRANCH 101 102
BRANCH 101 106
ATOM    106  C   UNL     1     143.479 168.921 187.600  0.00  0.00    +0.110 C 
ATOM    107  H   UNL     1     143.626 169.360 186.617  0.00  0.00    +0.077 HD
ATOM    108  H   UNL     1     144.379 168.352 187.853  0.00  0.00    +0.077 HD
BRANCH 106 109
ATOM    109  O   UNL     1     142.384 168.031 187.498  0.00  0.00    -0.377 OA
ATOM    110  H   UNL     1     142.832 167.186 187.317  0.00  0.00    +0.211 HD
ENDBRANCH 106 109
ENDBRANCH 101 106
ENDBRANCH  98 101
ENDBRANCH  91  97
ENDBRANCH  89  91
BRANCH  89 111
ATOM    111  O   UNL     1     147.182 171.297 191.684  0.00  0.00    -0.460 OA
BRANCH 111 112
ATOM    112  C   UNL     1     147.929 172.433 191.666  0.00  0.00    +0.304 C 
ATOM    113  O   UNL     1     148.845 172.681 190.896  0.00  0.00    -0.251 OA
BRANCH 112 114
ATOM    114  C   UNL     1     147.468 173.356 192.751  0.00  0.00    +0.033 C 
ATOM    115  H   UNL     1     148.123 173.262 193.621  0.00  0.00    +0.034 HD
ATOM    116  H   UNL     1     146.433 173.128 193.017  0.00  0.00    +0.034 HD
ATOM    117  H   UNL     1     147.515 174.390 192.390  0.00  0.00    +0.034 HD
ENDBRANCH 112 114
ENDBRANCH 111 112
ENDBRANCH  89 111
ENDBRANCH  83  89
ENDBRANCH  81  83
ENDBRANCH  78  81
ENDBRANCH  75  78
ENDBRANCH  69  75
ENDBRANCH  67  69
BRANCH  67 118
ATOM    118  O   UNL     1     147.578 168.963 186.962  0.00  0.00    -0.379 OA
BRANCH 118 119
ATOM    119  C   UNL     1     146.974 169.614 185.848  0.00  0.00    +0.037 C 
ATOM    120  H   UNL     1     146.172 170.278 186.180  0.00  0.00    +0.052 HD
ATOM    121  H   UNL     1     147.712 170.180 185.271  0.00  0.00    +0.052 HD
ATOM    122  H   UNL     1     146.543 168.846 185.199  0.00  0.00    +0.052 HD
ENDBRANCH 118 119
ENDBRANCH  67 118
ENDBRANCH  64  67
ENDBRANCH  13  64
BRANCH   8 123
ATOM    123  O   UNL     1     142.718 165.987 189.504  0.00  0.00    -0.391 OA
ATOM    124  H   UNL     1     142.499 166.116 188.559  0.00  0.00    +0.210 HD
ENDBRANCH   8 123
BRANCH  15 125
ATOM    125  O   UNL     1     146.499 163.445 183.696  0.00  0.00    -0.379 OA
BRANCH 125 126
ATOM    126  C   UNL     1     146.953 162.470 182.762  0.00  0.00    +0.037 C 
ATOM    127  H   UNL     1     146.107 162.063 182.196  0.00  0.00    +0.052 HD
ATOM    128  H   UNL     1     147.636 162.958 182.063  0.00  0.00    +0.052 HD
ATOM    129  H   UNL     1     147.492 161.663 183.268  0.00  0.00    +0.052 HD
ENDBRANCH 125 126
ENDBRANCH  15 125
TORSDOF 27
ENDMDL
MODEL 5
REMARK VINA RESULT:      -5.9      2.051      6.394
REMARK  Name = Ulapualide A_conf1
REMARK  27 active torsions:
REMARK  status: ('A' for Active; 'I' for Inactive)
REMARK    1  A    between atoms: C_1  and  C_2
REMARK    2  A    between atoms: C_9  and  O_63
REMARK    3  A    between atoms: C_14  and  C_38
REMARK    4  A    between atoms: C_15  and  C_37
REMARK    5  A    between atoms: C_16  and  O_35
REMARK    6  A    between atoms: O_35  and  C_36
REMARK    7  A    between atoms: C_38  and  C_39
REMARK    8  A    between atoms: C_39  and  C_40
REMARK    9  A    between atoms: C_39  and  O_61
REMARK   10  A    between atoms: C_40  and  C_41
REMARK   11  A    between atoms: C_40  and  C_42
REMARK   12  A    between atoms: C_42  and  C_43
REMARK   13  A    between atoms: C_43  and  C_44
REMARK   14  A    between atoms: C_44  and  C_46
REMARK   15  A    between atoms: C_46  and  C_47
REMARK   16  A    between atoms: C_46  and  C_48
REMARK   17  A    between atoms: C_48  and  C_49
REMARK   18  A    between atoms: C_48  and  O_57
REMARK   19  A    between atoms: C_49  and  C_50
REMARK   20  A    between atoms: C_49  and  C_51
REMARK   21  A    between atoms: C_52  and  N_53
REMARK   22  A    between atoms: N_53  and  C_54
REMARK   23  A    between atoms: N_53  and  C_55
REMARK   24  A    between atoms: C_55  and  O_56
REMARK   25  A    between atoms: O_57  and  C_58
REMARK   26  A    between atoms: C_58  and  C_60
REMARK   27  A    between atoms: O_61  and  C_62
REMARK                            x       y       z     vdW  Elec       q    Type
REMARK                         _______ _______ _______ _____ _____    ______ ____
ROOT
ATOM      1  C   UNL     1     151.990 166.309 191.419  0.00  0.00    +0.008 C 
ATOM      2  C   UNL     1     151.517 165.833 190.030  0.00  0.00    +0.014 C 
ATOM      3  C   UNL     1     152.419 166.343 188.925  0.00  0.00    +0.134 C 
ATOM      4  O   UNL     1     152.932 167.463 188.975  0.00  0.00    -0.297 OA
ATOM      5  C   UNL     1     152.686 165.431 187.744  0.00  0.00    +0.006 C 
ATOM      6  C   UNL     1     151.439 165.004 186.979  0.00  0.00    -0.044 C 
ATOM      7  C   UNL     1     150.605 166.182 186.453  0.00  0.00    -0.026 C 
ATOM      8  C   UNL     1     149.557 165.693 185.443  0.00  0.00    +0.065 C 
ATOM      9  C   UNL     1     148.441 166.714 185.232  0.00  0.00    +0.071 C 
ATOM     10  C   UNL     1     147.252 165.994 184.653  0.00  0.00    +0.310 C 
ATOM     11  O   UNL     1     147.245 165.475 183.543  0.00  0.00    -0.251 OA
ATOM     12  O   UNL     1     146.237 165.930 185.560  0.00  0.00    -0.461 OA
ATOM     13  C   UNL     1     145.197 164.961 185.282  0.00  0.00    +0.110 C 
ATOM     14  C   UNL     1     143.950 165.314 186.138  0.00  0.00    +0.020 C 
ATOM     15  C   UNL     1     143.487 166.780 185.872  0.00  0.00    +0.068 C 
ATOM     16  C   UNL     1     142.397 167.278 186.856  0.00  0.00    -0.008 C 
ATOM     17  C   UNL     1     142.805 167.094 188.286  0.00  0.00    -0.077 C 
ATOM     18  C   UNL     1     142.084 166.445 189.218  0.00  0.00    -0.003 C 
ATOM     19  C   UNL     1     142.644 166.202 190.505  0.00  0.00    +0.220 A 
ATOM     20  N   UNL     1     143.937 166.212 190.798  0.00  0.00    -0.205 NA
ATOM     21  C   UNL     1     144.010 165.935 192.139  0.00  0.00    +0.164 A 
ATOM     22  C   UNL     1     142.752 165.748 192.641  0.00  0.00    +0.125 A 
ATOM     23  O   UNL     1     141.870 165.884 191.609  0.00  0.00    -0.443 OA
ATOM     24  C   UNL     1     145.341 165.848 192.945  0.00  0.00    +0.250 A 
ATOM     25  N   UNL     1     146.531 165.933 192.375  0.00  0.00    -0.203 NA
ATOM     26  C   UNL     1     147.412 165.846 193.421  0.00  0.00    +0.164 A 
ATOM     27  C   UNL     1     146.724 165.696 194.600  0.00  0.00    +0.125 A 
ATOM     28  O   UNL     1     145.393 165.670 194.310  0.00  0.00    -0.442 OA
ATOM     29  C   UNL     1     148.963 165.921 193.293  0.00  0.00    +0.249 A 
ATOM     30  N   UNL     1     149.597 166.044 192.139  0.00  0.00    -0.212 NA
ATOM     31  C   UNL     1     150.932 166.101 192.471  0.00  0.00    +0.083 A 
ATOM     32  C   UNL     1     151.051 166.011 193.839  0.00  0.00    +0.116 A 
ATOM     33  O   UNL     1     149.807 165.885 194.375  0.00  0.00    -0.442 OA
ATOM     34  H   UNL     1     152.181 167.390 191.384  0.00  0.00    +0.037 HD
ATOM     35  H   UNL     1     151.482 164.739 190.001  0.00  0.00    +0.035 HD
ATOM     36  H   UNL     1     150.510 166.202 189.798  0.00  0.00    +0.035 HD
ATOM     37  H   UNL     1     153.376 165.946 187.066  0.00  0.00    +0.034 HD
ATOM     38  H   UNL     1     153.213 164.549 188.122  0.00  0.00    +0.034 HD
ATOM     39  H   UNL     1     151.758 164.370 186.141  0.00  0.00    +0.027 HD
ATOM     40  H   UNL     1     150.805 164.378 187.618  0.00  0.00    +0.027 HD
ATOM     41  H   UNL     1     151.267 166.915 185.978  0.00  0.00    +0.029 HD
ATOM     42  H   UNL     1     150.114 166.669 187.302  0.00  0.00    +0.029 HD
ATOM     43  H   UNL     1     149.155 164.732 185.774  0.00  0.00    +0.060 HD
ATOM     44  H   UNL     1     148.730 167.511 184.537  0.00  0.00    +0.040 HD
ATOM     45  H   UNL     1     148.143 167.181 186.176  0.00  0.00    +0.040 HD
ATOM     46  H   UNL     1     144.918 165.040 184.224  0.00  0.00    +0.074 HD
ATOM     47  H   UNL     1     144.245 165.254 187.190  0.00  0.00    +0.036 HD
ATOM     48  H   UNL     1     144.358 167.441 185.980  0.00  0.00    +0.060 HD
ATOM     49  H   UNL     1     141.440 166.787 186.641  0.00  0.00    +0.033 HD
ATOM     50  H   UNL     1     142.215 168.346 186.684  0.00  0.00    +0.033 HD
ATOM     51  H   UNL     1     143.796 167.472 188.546  0.00  0.00    +0.057 HD
ATOM     52  H   UNL     1     141.081 166.092 189.022  0.00  0.00    +0.067 HD
ATOM     53  H   UNL     1     142.339 165.495 193.604  0.00  0.00    +0.105 HD
ATOM     54  H   UNL     1     147.001 165.592 195.638  0.00  0.00    +0.105 HD
ATOM     55  H   UNL     1     151.875 166.030 194.536  0.00  0.00    +0.105 HD
ENDROOT
BRANCH   1  56
ATOM     56  C   UNL     1     153.305 165.611 191.793  0.00  0.00    -0.056 C 
ATOM     57  H   UNL     1     154.050 166.331 192.152  0.00  0.00    +0.024 HD
ATOM     58  H   UNL     1     153.743 165.103 190.930  0.00  0.00    +0.024 HD
ATOM     59  H   UNL     1     153.151 164.868 192.584  0.00  0.00    +0.024 HD
ENDBRANCH   1  56
BRANCH  14  60
ATOM     60  C   UNL     1     142.814 164.306 185.902  0.00  0.00    -0.057 C 
ATOM     61  H   UNL     1     143.023 163.663 185.043  0.00  0.00    +0.023 HD
ATOM     62  H   UNL     1     141.855 164.803 185.735  0.00  0.00    +0.023 HD
ATOM     63  H   UNL     1     142.678 163.662 186.776  0.00  0.00    +0.023 HD
ENDBRANCH  14  60
BRANCH  13  64
ATOM     64  C   UNL     1     145.752 163.538 185.545  0.00  0.00    +0.011 C 
ATOM     65  H   UNL     1     146.385 163.288 184.688  0.00  0.00    +0.033 HD
ATOM     66  H   UNL     1     144.927 162.817 185.534  0.00  0.00    +0.033 HD
BRANCH  64  67
ATOM     67  C   UNL     1     146.591 163.350 186.834  0.00  0.00    +0.064 C 
ATOM     68  H   UNL     1     147.578 163.801 186.677  0.00  0.00    +0.060 HD
BRANCH  67  69
ATOM     69  C   UNL     1     145.921 164.070 188.049  0.00  0.00    -0.017 C 
ATOM     70  H   UNL     1     145.090 164.670 187.653  0.00  0.00    +0.032 HD
BRANCH  69  71
ATOM     71  C   UNL     1     145.341 163.082 189.070  0.00  0.00    -0.060 C 
ATOM     72  H   UNL     1     146.051 162.283 189.304  0.00  0.00    +0.023 HD
ATOM     73  H   UNL     1     144.415 162.622 188.715  0.00  0.00    +0.023 HD
ATOM     74  H   UNL     1     145.077 163.588 190.000  0.00  0.00    +0.023 HD
ENDBRANCH  69  71
BRANCH  69  75
ATOM     75  C   UNL     1     146.924 165.043 188.721  0.00  0.00    -0.041 C 
ATOM     76  H   UNL     1     147.870 164.987 188.165  0.00  0.00    +0.027 HD
ATOM     77  H   UNL     1     147.146 164.720 189.745  0.00  0.00    +0.027 HD
BRANCH  75  78
ATOM     78  C   UNL     1     146.484 166.511 188.708  0.00  0.00    +0.007 C 
ATOM     79  H   UNL     1     146.283 166.813 187.675  0.00  0.00    +0.034 HD
ATOM     80  H   UNL     1     145.552 166.625 189.272  0.00  0.00    +0.034 HD
BRANCH  78  81
ATOM     81  C   UNL     1     147.519 167.497 189.241  0.00  0.00    +0.140 C 
ATOM     82  O   UNL     1     148.692 167.488 188.862  0.00  0.00    -0.297 OA
BRANCH  81  83
ATOM     83  C   UNL     1     147.019 168.498 190.273  0.00  0.00    +0.052 C 
ATOM     84  H   UNL     1     146.411 167.959 191.007  0.00  0.00    +0.041 HD
BRANCH  83  85
ATOM     85  C   UNL     1     148.229 169.077 191.013  0.00  0.00    -0.052 C 
ATOM     86  H   UNL     1     148.730 169.843 190.416  0.00  0.00    +0.024 HD
ATOM     87  H   UNL     1     147.936 169.539 191.960  0.00  0.00    +0.024 HD
ATOM     88  H   UNL     1     148.955 168.292 191.246  0.00  0.00    +0.024 HD
ENDBRANCH  83  85
BRANCH  83  89
ATOM     89  C   UNL     1     146.165 169.621 189.638  0.00  0.00    +0.118 C 
ATOM     90  H   UNL     1     145.144 169.250 189.494  0.00  0.00    +0.075 HD
BRANCH  89  91
ATOM     91  C   UNL     1     146.074 170.917 190.497  0.00  0.00    +0.014 C 
ATOM     92  H   UNL     1     146.329 170.628 191.515  0.00  0.00    +0.038 HD
BRANCH  91  93
ATOM     93  C   UNL     1     144.643 171.464 190.532  0.00  0.00    -0.056 C 
ATOM     94  H   UNL     1     144.412 172.079 189.654  0.00  0.00    +0.024 HD
ATOM     95  H   UNL     1     144.488 172.085 191.422  0.00  0.00    +0.024 HD
ATOM     96  H   UNL     1     143.919 170.643 190.571  0.00  0.00    +0.024 HD
ENDBRANCH  91  93
BRANCH  91  97
ATOM     97  C   UNL     1     147.013 172.001 190.013  0.00  0.00    -0.064 C 
ATOM     98  C   UNL     1     147.874 172.757 190.710  0.00  0.00    -0.010 C 
ATOM     99  H   UNL     1     147.025 172.129 188.928  0.00  0.00    +0.059 HD
ATOM    100  H   UNL     1     148.540 173.390 190.122  0.00  0.00    +0.078 HD
BRANCH  98 101
ATOM    101  N   UNL     1     148.147 172.877 192.063  0.00  0.00    -0.317 N 
BRANCH 101 102
ATOM    102  C   UNL     1     147.145 173.445 192.971  0.00  0.00    +0.002 C 
ATOM    103  H   UNL     1     147.087 172.867 193.903  0.00  0.00    +0.043 HD
ATOM    104  H   UNL     1     146.149 173.428 192.513  0.00  0.00    +0.043 HD
ATOM    105  H   UNL     1     147.402 174.478 193.225  0.00  0.00    +0.043 HD
ENDBRANCH 101 102
BRANCH 101 106
ATOM    106  C   UNL     1     149.237 172.197 192.752  0.00  0.00    +0.110 C 
ATOM    107  H   UNL     1     149.199 171.112 192.680  0.00  0.00    +0.077 HD
ATOM    108  H   UNL     1     150.213 172.524 192.383  0.00  0.00    +0.077 HD
BRANCH 106 109
ATOM    109  O   UNL     1     149.126 172.526 194.123  0.00  0.00    -0.377 OA
ATOM    110  H   UNL     1     148.484 171.863 194.434  0.00  0.00    +0.211 HD
ENDBRANCH 106 109
ENDBRANCH 101 106
ENDBRANCH  98 101
ENDBRANCH  91  97
ENDBRANCH  89  91
BRANCH  89 111
ATOM    111  O   UNL     1     146.775 169.953 188.361  0.00  0.00    -0.460 OA
BRANCH 111 112
ATOM    112  C   UNL     1     145.974 169.960 187.263  0.00  0.00    +0.304 C 
ATOM    113  O   UNL     1     144.752 169.976 187.262  0.00  0.00    -0.251 OA
BRANCH 112 114
ATOM    114  C   UNL     1     146.815 169.937 186.024  0.00  0.00    +0.033 C 
ATOM    115  H   UNL     1     147.820 169.581 186.266  0.00  0.00    +0.034 HD
ATOM    116  H   UNL     1     146.852 170.936 185.584  0.00  0.00    +0.034 HD
ATOM    117  H   UNL     1     146.369 169.252 185.296  0.00  0.00    +0.034 HD
ENDBRANCH 112 114
ENDBRANCH 111 112
ENDBRANCH  89 111
ENDBRANCH  83  89
ENDBRANCH  81  83
ENDBRANCH  78  81
ENDBRANCH  75  78
ENDBRANCH  69  75
ENDBRANCH  67  69
BRANCH  67 118
ATOM    118  O   UNL     1     146.713 161.957 187.135  0.00  0.00    -0.379 OA
BRANCH 118 119
ATOM    119  C   UNL     1     146.380 161.105 186.042  0.00  0.00    +0.037 C 
ATOM    120  H   UNL     1     145.347 161.272 185.727  0.00  0.00    +0.052 HD
ATOM    121  H   UNL     1     147.058 161.258 185.198  0.00  0.00    +0.052 HD
ATOM    122  H   UNL     1     146.475 160.068 186.380  0.00  0.00    +0.052 HD
ENDBRANCH 118 119
ENDBRANCH  67 118
ENDBRANCH  64  67
ENDBRANCH  13  64
BRANCH   8 123
ATOM    123  O   UNL     1     150.231 165.470 184.202  0.00  0.00    -0.391 OA
ATOM    124  H   UNL     1     150.725 164.629 184.293  0.00  0.00    +0.210 HD
ENDBRANCH   8 123
BRANCH  15 125
ATOM    125  O   UNL     1     142.987 166.856 184.529  0.00  0.00    -0.379 OA
BRANCH 125 126
ATOM    126  C   UNL     1     141.827 167.675 184.415  0.00  0.00    +0.037 C 
ATOM    127  H   UNL     1     141.032 167.299 185.069  0.00  0.00    +0.052 HD
ATOM    128  H   UNL     1     142.090 168.686 184.735  0.00  0.00    +0.052 HD
ATOM    129  H   UNL     1     141.477 167.718 183.379  0.00  0.00    +0.052 HD
ENDBRANCH 125 126
ENDBRANCH  15 125
TORSDOF 27
ENDMDL
MODEL 6
REMARK VINA RESULT:      -5.8      2.235      6.755
REMARK  Name = Ulapualide A_conf1
REMARK  27 active torsions:
REMARK  status: ('A' for Active; 'I' for Inactive)
REMARK    1  A    between atoms: C_1  and  C_2
REMARK    2  A    between atoms: C_9  and  O_63
REMARK    3  A    between atoms: C_14  and  C_38
REMARK    4  A    between atoms: C_15  and  C_37
REMARK    5  A    between atoms: C_16  and  O_35
REMARK    6  A    between atoms: O_35  and  C_36
REMARK    7  A    between atoms: C_38  and  C_39
REMARK    8  A    between atoms: C_39  and  C_40
REMARK    9  A    between atoms: C_39  and  O_61
REMARK   10  A    between atoms: C_40  and  C_41
REMARK   11  A    between atoms: C_40  and  C_42
REMARK   12  A    between atoms: C_42  and  C_43
REMARK   13  A    between atoms: C_43  and  C_44
REMARK   14  A    between atoms: C_44  and  C_46
REMARK   15  A    between atoms: C_46  and  C_47
REMARK   16  A    between atoms: C_46  and  C_48
REMARK   17  A    between atoms: C_48  and  C_49
REMARK   18  A    between atoms: C_48  and  O_57
REMARK   19  A    between atoms: C_49  and  C_50
REMARK   20  A    between atoms: C_49  and  C_51
REMARK   21  A    between atoms: C_52  and  N_53
REMARK   22  A    between atoms: N_53  and  C_54
REMARK   23  A    between atoms: N_53  and  C_55
REMARK   24  A    between atoms: C_55  and  O_56
REMARK   25  A    between atoms: O_57  and  C_58
REMARK   26  A    between atoms: C_58  and  C_60
REMARK   27  A    between atoms: O_61  and  C_62
REMARK                            x       y       z     vdW  Elec       q    Type
REMARK                         _______ _______ _______ _____ _____    ______ ____
ROOT
ATOM      1  C   UNL     1     152.001 166.204 191.263  0.00  0.00    +0.008 C 
ATOM      2  C   UNL     1     151.250 166.054 189.924  0.00  0.00    +0.014 C 
ATOM      3  C   UNL     1     152.026 166.662 188.774  0.00  0.00    +0.134 C 
ATOM      4  O   UNL     1     152.691 167.691 188.916  0.00  0.00    -0.297 OA
ATOM      5  C   UNL     1     151.970 165.967 187.429  0.00  0.00    +0.006 C 
ATOM      6  C   UNL     1     150.569 165.830 186.844  0.00  0.00    -0.044 C 
ATOM      7  C   UNL     1     149.834 167.169 186.684  0.00  0.00    -0.026 C 
ATOM      8  C   UNL     1     148.580 166.996 185.815  0.00  0.00    +0.065 C 
ATOM      9  C   UNL     1     147.598 168.154 185.986  0.00  0.00    +0.071 C 
ATOM     10  C   UNL     1     146.243 167.689 185.522  0.00  0.00    +0.310 C 
ATOM     11  O   UNL     1     145.986 167.393 184.361  0.00  0.00    -0.251 OA
ATOM     12  O   UNL     1     145.388 167.565 186.576  0.00  0.00    -0.461 OA
ATOM     13  C   UNL     1     144.192 166.784 186.334  0.00  0.00    +0.110 C 
ATOM     14  C   UNL     1     143.159 167.102 187.450  0.00  0.00    +0.020 C 
ATOM     15  C   UNL     1     142.870 168.633 187.523  0.00  0.00    +0.068 C 
ATOM     16  C   UNL     1     142.031 169.051 188.758  0.00  0.00    -0.008 C 
ATOM     17  C   UNL     1     142.633 168.556 190.039  0.00  0.00    -0.077 C 
ATOM     18  C   UNL     1     141.988 167.825 190.965  0.00  0.00    -0.003 C 
ATOM     19  C   UNL     1     142.707 167.284 192.069  0.00  0.00    +0.220 A 
ATOM     20  N   UNL     1     144.019 167.099 192.118  0.00  0.00    -0.205 NA
ATOM     21  C   UNL     1     144.267 166.567 193.357  0.00  0.00    +0.164 A 
ATOM     22  C   UNL     1     143.092 166.425 194.042  0.00  0.00    +0.125 A 
ATOM     23  O   UNL     1     142.084 166.848 193.226  0.00  0.00    -0.443 OA
ATOM     24  C   UNL     1     145.684 166.185 193.880  0.00  0.00    +0.250 A 
ATOM     25  N   UNL     1     146.768 166.248 193.125  0.00  0.00    -0.203 NA
ATOM     26  C   UNL     1     147.785 165.869 193.962  0.00  0.00    +0.164 A 
ATOM     27  C   UNL     1     147.280 165.574 195.205  0.00  0.00    +0.125 A 
ATOM     28  O   UNL     1     145.930 165.748 195.163  0.00  0.00    -0.442 OA
ATOM     29  C   UNL     1     149.290 165.799 193.567  0.00  0.00    +0.249 A 
ATOM     30  N   UNL     1     149.741 166.068 192.354  0.00  0.00    -0.212 NA
ATOM     31  C   UNL     1     151.107 165.917 192.440  0.00  0.00    +0.083 A 
ATOM     32  C   UNL     1     151.430 165.557 193.729  0.00  0.00    +0.116 A 
ATOM     33  O   UNL     1     150.283 165.467 194.455  0.00  0.00    -0.442 OA
ATOM     34  H   UNL     1     152.333 167.245 191.375  0.00  0.00    +0.037 HD
ATOM     35  H   UNL     1     151.058 164.995 189.719  0.00  0.00    +0.035 HD
ATOM     36  H   UNL     1     150.281 166.566 189.945  0.00  0.00    +0.035 HD
ATOM     37  H   UNL     1     152.608 166.522 186.731  0.00  0.00    +0.034 HD
ATOM     38  H   UNL     1     152.423 164.977 187.551  0.00  0.00    +0.034 HD
ATOM     39  H   UNL     1     150.658 165.335 185.868  0.00  0.00    +0.027 HD
ATOM     40  H   UNL     1     149.965 165.167 187.474  0.00  0.00    +0.027 HD
ATOM     41  H   UNL     1     150.507 167.903 186.225  0.00  0.00    +0.029 HD
ATOM     42  H   UNL     1     149.559 167.537 187.678  0.00  0.00    +0.029 HD
ATOM     43  H   UNL     1     148.106 166.040 186.049  0.00  0.00    +0.060 HD
ATOM     44  H   UNL     1     147.880 169.031 185.393  0.00  0.00    +0.040 HD
ATOM     45  H   UNL     1     147.524 168.463 187.033  0.00  0.00    +0.040 HD
ATOM     46  H   UNL     1     143.761 167.092 185.373  0.00  0.00    +0.074 HD
ATOM     47  H   UNL     1     143.609 166.812 188.406  0.00  0.00    +0.036 HD
ATOM     48  H   UNL     1     143.830 169.163 187.579  0.00  0.00    +0.060 HD
ATOM     49  H   UNL     1     140.993 168.717 188.643  0.00  0.00    +0.033 HD
ATOM     50  H   UNL     1     141.975 170.146 188.804  0.00  0.00    +0.033 HD
ATOM     51  H   UNL     1     143.696 168.769 190.172  0.00  0.00    +0.057 HD
ATOM     52  H   UNL     1     140.927 167.626 190.899  0.00  0.00    +0.067 HD
ATOM     53  H   UNL     1     142.808 166.041 195.008  0.00  0.00    +0.105 HD
ATOM     54  H   UNL     1     147.703 165.246 196.143  0.00  0.00    +0.105 HD
ATOM     55  H   UNL     1     152.350 165.354 194.257  0.00  0.00    +0.105 HD
ENDROOT
BRANCH   1  56
ATOM     56  C   UNL     1     153.249 165.310 191.268  0.00  0.00    -0.056 C 
ATOM     57  H   UNL     1     153.596 165.106 190.248  0.00  0.00    +0.024 HD
ATOM     58  H   UNL     1     153.043 164.343 191.734  0.00  0.00    +0.024 HD
ATOM     59  H   UNL     1     154.076 165.782 191.812  0.00  0.00    +0.024 HD
ENDBRANCH   1  56
BRANCH  14  60
ATOM     60  C   UNL     1     141.871 166.286 187.261  0.00  0.00    -0.057 C 
ATOM     61  H   UNL     1     142.092 165.246 187.005  0.00  0.00    +0.023 HD
ATOM     62  H   UNL     1     141.233 166.705 186.479  0.00  0.00    +0.023 HD
ATOM     63  H   UNL     1     141.273 166.285 188.177  0.00  0.00    +0.023 HD
ENDBRANCH  14  60
BRANCH  13  64
ATOM     64  C   UNL     1     144.578 165.285 186.249  0.00  0.00    +0.011 C 
ATOM     65  H   UNL     1     144.981 165.125 185.244  0.00  0.00    +0.033 HD
ATOM     66  H   UNL     1     143.673 164.672 186.315  0.00  0.00    +0.033 HD
BRANCH  64  67
ATOM     67  C   UNL     1     145.625 164.781 187.274  0.00  0.00    +0.064 C 
ATOM     68  H   UNL     1     146.617 165.128 186.959  0.00  0.00    +0.060 HD
BRANCH  67  69
ATOM     69  C   UNL     1     145.341 165.364 188.697  0.00  0.00    -0.017 C 
ATOM     70  H   UNL     1     144.524 166.092 188.594  0.00  0.00    +0.032 HD
BRANCH  69  71
ATOM     71  C   UNL     1     144.886 164.288 189.691  0.00  0.00    -0.060 C 
ATOM     72  H   UNL     1     145.720 163.653 190.007  0.00  0.00    +0.023 HD
ATOM     73  H   UNL     1     144.107 163.645 189.272  0.00  0.00    +0.023 HD
ATOM     74  H   UNL     1     144.443 164.738 190.582  0.00  0.00    +0.023 HD
ENDBRANCH  69  71
BRANCH  69  75
ATOM     75  C   UNL     1     146.584 166.124 189.227  0.00  0.00    -0.041 C 
ATOM     76  H   UNL     1     147.288 166.240 188.392  0.00  0.00    +0.027 HD
ATOM     77  H   UNL     1     147.101 165.532 189.991  0.00  0.00    +0.027 HD
BRANCH  75  78
ATOM     78  C   UNL     1     146.284 167.531 189.756  0.00  0.00    +0.007 C 
ATOM     79  H   UNL     1     145.728 168.086 188.995  0.00  0.00    +0.034 HD
ATOM     80  H   UNL     1     145.650 167.466 190.647  0.00  0.00    +0.034 HD
BRANCH  78  81
ATOM     81  C   UNL     1     147.515 168.373 190.076  0.00  0.00    +0.140 C 
ATOM     82  O   UNL     1     148.605 168.179 189.534  0.00  0.00    -0.297 OA
BRANCH  81  83
ATOM     83  C   UNL     1     147.322 169.475 191.110  0.00  0.00    +0.052 C 
ATOM     84  H   UNL     1     146.319 169.370 191.538  0.00  0.00    +0.041 HD
BRANCH  83  85
ATOM     85  C   UNL     1     148.331 169.261 192.242  0.00  0.00    -0.052 C 
ATOM     86  H   UNL     1     148.827 168.292 192.152  0.00  0.00    +0.024 HD
ATOM     87  H   UNL     1     149.109 170.030 192.235  0.00  0.00    +0.024 HD
ATOM     88  H   UNL     1     147.838 169.307 193.217  0.00  0.00    +0.024 HD
ENDBRANCH  83  85
BRANCH  83  89
ATOM     89  C   UNL     1     147.463 170.889 190.496  0.00  0.00    +0.118 C 
ATOM     90  H   UNL     1     148.313 170.890 189.804  0.00  0.00    +0.075 HD
BRANCH  89  91
ATOM     91  C   UNL     1     146.213 171.367 189.701  0.00  0.00    +0.014 C 
ATOM     92  H   UNL     1     146.311 172.446 189.596  0.00  0.00    +0.038 HD
BRANCH  91  93
ATOM     93  C   UNL     1     144.922 171.110 190.485  0.00  0.00    -0.056 C 
ATOM     94  H   UNL     1     144.856 171.726 191.390  0.00  0.00    +0.024 HD
ATOM     95  H   UNL     1     144.858 170.060 190.793  0.00  0.00    +0.024 HD
ATOM     96  H   UNL     1     144.046 171.326 189.863  0.00  0.00    +0.024 HD
ENDBRANCH  91  93
BRANCH  91  97
ATOM     97  C   UNL     1     146.109 170.718 188.338  0.00  0.00    -0.064 C 
ATOM     98  C   UNL     1     145.706 171.244 187.172  0.00  0.00    -0.010 C 
ATOM     99  H   UNL     1     146.479 169.691 188.303  0.00  0.00    +0.059 HD
ATOM    100  H   UNL     1     145.836 170.613 186.291  0.00  0.00    +0.078 HD
BRANCH  98 101
ATOM    101  N   UNL     1     145.189 172.480 186.819  0.00  0.00    -0.317 N 
BRANCH 101 102
ATOM    102  C   UNL     1     146.082 173.549 186.356  0.00  0.00    +0.002 C 
ATOM    103  H   UNL     1     145.724 173.978 185.410  0.00  0.00    +0.043 HD
ATOM    104  H   UNL     1     147.093 173.163 186.179  0.00  0.00    +0.043 HD
ATOM    105  H   UNL     1     146.132 174.352 187.098  0.00  0.00    +0.043 HD
ENDBRANCH 101 102
BRANCH 101 106
ATOM    106  C   UNL     1     143.780 172.746 186.557  0.00  0.00    +0.110 C 
ATOM    107  H   UNL     1     143.561 173.782 186.313  0.00  0.00    +0.077 HD
ATOM    108  H   UNL     1     143.398 172.121 185.745  0.00  0.00    +0.077 HD
BRANCH 106 109
ATOM    109  O   UNL     1     143.076 172.442 187.745  0.00  0.00    -0.377 OA
ATOM    110  H   UNL     1     143.185 171.476 187.798  0.00  0.00    +0.211 HD
ENDBRANCH 106 109
ENDBRANCH 101 106
ENDBRANCH  98 101
ENDBRANCH  91  97
ENDBRANCH  89  91
BRANCH  89 111
ATOM    111  O   UNL     1     147.695 171.811 191.595  0.00  0.00    -0.460 OA
BRANCH 111 112
ATOM    112  C   UNL     1     148.707 172.709 191.462  0.00  0.00    +0.304 C 
ATOM    113  O   UNL     1     149.002 173.316 190.443  0.00  0.00    -0.251 OA
BRANCH 112 114
ATOM    114  C   UNL     1     149.432 172.850 192.765  0.00  0.00    +0.033 C 
ATOM    115  H   UNL     1     149.962 173.805 192.792  0.00  0.00    +0.034 HD
ATOM    116  H   UNL     1     150.126 172.016 192.895  0.00  0.00    +0.034 HD
ATOM    117  H   UNL     1     148.707 172.830 193.586  0.00  0.00    +0.034 HD
ENDBRANCH 112 114
ENDBRANCH 111 112
ENDBRANCH  89 111
ENDBRANCH  83  89
ENDBRANCH  81  83
ENDBRANCH  78  81
ENDBRANCH  75  78
ENDBRANCH  69  75
ENDBRANCH  67  69
BRANCH  67 118
ATOM    118  O   UNL     1     145.586 163.354 187.346  0.00  0.00    -0.379 OA
BRANCH 118 119
ATOM    119  C   UNL     1     145.191 162.731 186.126  0.00  0.00    +0.037 C 
ATOM    120  H   UNL     1     145.915 162.943 185.336  0.00  0.00    +0.052 HD
ATOM    121  H   UNL     1     145.079 161.650 186.251  0.00  0.00    +0.052 HD
ATOM    122  H   UNL     1     144.223 163.147 185.831  0.00  0.00    +0.052 HD
ENDBRANCH 118 119
ENDBRANCH  67 118
ENDBRANCH  64  67
ENDBRANCH  13  64
BRANCH   8 123
ATOM    123  O   UNL     1     149.009 166.940 184.452  0.00  0.00    -0.391 OA
ATOM    124  H   UNL     1     149.837 167.459 184.393  0.00  0.00    +0.210 HD
ENDBRANCH   8 123
BRANCH  15 125
ATOM    125  O   UNL     1     142.176 169.016 186.325  0.00  0.00    -0.379 OA
BRANCH 125 126
ATOM    126  C   UNL     1     141.028 169.819 186.583  0.00  0.00    +0.037 C 
ATOM    127  H   UNL     1     140.385 169.858 185.697  0.00  0.00    +0.052 HD
ATOM    128  H   UNL     1     140.467 169.359 187.400  0.00  0.00    +0.052 HD
ATOM    129  H   UNL     1     141.317 170.830 186.886  0.00  0.00    +0.052 HD
ENDBRANCH 125 126
ENDBRANCH  15 125
TORSDOF 27
ENDMDL
MODEL 7
REMARK VINA RESULT:      -5.8      2.210      6.648
REMARK  Name = Ulapualide A_conf1
REMARK  27 active torsions:
REMARK  status: ('A' for Active; 'I' for Inactive)
REMARK    1  A    between atoms: C_1  and  C_2
REMARK    2  A    between atoms: C_9  and  O_63
REMARK    3  A    between atoms: C_14  and  C_38
REMARK    4  A    between atoms: C_15  and  C_37
REMARK    5  A    between atoms: C_16  and  O_35
REMARK    6  A    between atoms: O_35  and  C_36
REMARK    7  A    between atoms: C_38  and  C_39
REMARK    8  A    between atoms: C_39  and  C_40
REMARK    9  A    between atoms: C_39  and  O_61
REMARK   10  A    between atoms: C_40  and  C_41
REMARK   11  A    between atoms: C_40  and  C_42
REMARK   12  A    between atoms: C_42  and  C_43
REMARK   13  A    between atoms: C_43  and  C_44
REMARK   14  A    between atoms: C_44  and  C_46
REMARK   15  A    between atoms: C_46  and  C_47
REMARK   16  A    between atoms: C_46  and  C_48
REMARK   17  A    between atoms: C_48  and  C_49
REMARK   18  A    between atoms: C_48  and  O_57
REMARK   19  A    between atoms: C_49  and  C_50
REMARK   20  A    between atoms: C_49  and  C_51
REMARK   21  A    between atoms: C_52  and  N_53
REMARK   22  A    between atoms: N_53  and  C_54
REMARK   23  A    between atoms: N_53  and  C_55
REMARK   24  A    between atoms: C_55  and  O_56
REMARK   25  A    between atoms: O_57  and  C_58
REMARK   26  A    between atoms: C_58  and  C_60
REMARK   27  A    between atoms: O_61  and  C_62
REMARK                            x       y       z     vdW  Elec       q    Type
REMARK                         _______ _______ _______ _____ _____    ______ ____
ROOT
ATOM      1  C   UNL     1     151.632 166.069 193.475  0.00  0.00    +0.008 C 
ATOM      2  C   UNL     1     151.548 165.746 191.969  0.00  0.00    +0.014 C 
ATOM      3  C   UNL     1     152.722 166.321 191.204  0.00  0.00    +0.134 C 
ATOM      4  O   UNL     1     153.217 167.410 191.504  0.00  0.00    -0.297 OA
ATOM      5  C   UNL     1     153.288 165.515 190.052  0.00  0.00    +0.006 C 
ATOM      6  C   UNL     1     152.289 165.212 188.941  0.00  0.00    -0.044 C 
ATOM      7  C   UNL     1     151.645 166.467 188.333  0.00  0.00    -0.026 C 
ATOM      8  C   UNL     1     150.903 166.118 187.034  0.00  0.00    +0.065 C 
ATOM      9  C   UNL     1     149.900 167.199 186.636  0.00  0.00    +0.071 C 
ATOM     10  C   UNL     1     148.904 166.585 185.690  0.00  0.00    +0.310 C 
ATOM     11  O   UNL     1     149.191 166.174 184.571  0.00  0.00    -0.251 OA
ATOM     12  O   UNL     1     147.680 166.477 186.280  0.00  0.00    -0.461 OA
ATOM     13  C   UNL     1     146.741 165.581 185.635  0.00  0.00    +0.110 C 
ATOM     14  C   UNL     1     145.313 165.901 186.156  0.00  0.00    +0.020 C 
ATOM     15  C   UNL     1     144.960 167.403 185.926  0.00  0.00    +0.068 C 
ATOM     16  C   UNL     1     143.651 167.849 186.626  0.00  0.00    -0.008 C 
ATOM     17  C   UNL     1     143.652 167.514 188.087  0.00  0.00    -0.077 C 
ATOM     18  C   UNL     1     142.698 166.810 188.721  0.00  0.00    -0.003 C 
ATOM     19  C   UNL     1     142.884 166.424 190.079  0.00  0.00    +0.220 A 
ATOM     20  N   UNL     1     144.049 166.355 190.707  0.00  0.00    -0.205 NA
ATOM     21  C   UNL     1     143.752 165.950 191.983  0.00  0.00    +0.164 A 
ATOM     22  C   UNL     1     142.403 165.767 192.108  0.00  0.00    +0.125 A 
ATOM     23  O   UNL     1     141.836 166.034 190.896  0.00  0.00    -0.443 OA
ATOM     24  C   UNL     1     144.813 165.733 193.104  0.00  0.00    +0.250 A 
ATOM     25  N   UNL     1     146.114 165.824 192.886  0.00  0.00    -0.203 NA
ATOM     26  C   UNL     1     146.678 165.603 194.116  0.00  0.00    +0.164 A 
ATOM     27  C   UNL     1     145.693 165.371 195.046  0.00  0.00    +0.125 A 
ATOM     28  O   UNL     1     144.491 165.425 194.408  0.00  0.00    -0.442 OA
ATOM     29  C   UNL     1     148.206 165.628 194.417  0.00  0.00    +0.249 A 
ATOM     30  N   UNL     1     149.130 165.833 193.495  0.00  0.00    -0.212 NA
ATOM     31  C   UNL     1     150.327 165.805 194.177  0.00  0.00    +0.083 A 
ATOM     32  C   UNL     1     150.068 165.582 195.510  0.00  0.00    +0.116 A 
ATOM     33  O   UNL     1     148.724 165.455 195.677  0.00  0.00    -0.442 OA
ATOM     34  H   UNL     1     151.840 167.140 193.602  0.00  0.00    +0.037 HD
ATOM     35  H   UNL     1     151.507 164.662 191.820  0.00  0.00    +0.035 HD
ATOM     36  H   UNL     1     150.647 166.175 191.514  0.00  0.00    +0.035 HD
ATOM     37  H   UNL     1     154.143 166.063 189.640  0.00  0.00    +0.034 HD
ATOM     38  H   UNL     1     153.681 164.580 190.466  0.00  0.00    +0.034 HD
ATOM     39  H   UNL     1     152.815 164.648 188.160  0.00  0.00    +0.027 HD
ATOM     40  H   UNL     1     151.497 164.555 189.319  0.00  0.00    +0.027 HD
ATOM     41  H   UNL     1     152.420 167.215 188.130  0.00  0.00    +0.029 HD
ATOM     42  H   UNL     1     150.949 166.892 189.064  0.00  0.00    +0.029 HD
ATOM     43  H   UNL     1     150.414 165.148 187.146  0.00  0.00    +0.060 HD
ATOM     44  H   UNL     1     150.377 168.046 186.130  0.00  0.00    +0.040 HD
ATOM     45  H   UNL     1     149.364 167.586 187.508  0.00  0.00    +0.040 HD
ATOM     46  H   UNL     1     146.761 165.770 184.555  0.00  0.00    +0.074 HD
ATOM     47  H   UNL     1     145.312 165.730 187.237  0.00  0.00    +0.036 HD
ATOM     48  H   UNL     1     145.778 168.015 186.331  0.00  0.00    +0.060 HD
ATOM     49  H   UNL     1     142.781 167.420 186.113  0.00  0.00    +0.033 HD
ATOM     50  H   UNL     1     143.536 168.935 186.521  0.00  0.00    +0.033 HD
ATOM     51  H   UNL     1     144.541 167.826 188.640  0.00  0.00    +0.057 HD
ATOM     52  H   UNL     1     141.781 166.518 188.227  0.00  0.00    +0.067 HD
ATOM     53  H   UNL     1     141.741 165.440 192.893  0.00  0.00    +0.105 HD
ATOM     54  H   UNL     1     145.677 165.157 196.103  0.00  0.00    +0.105 HD
ATOM     55  H   UNL     1     150.673 165.501 196.402  0.00  0.00    +0.105 HD
ENDROOT
BRANCH   1  56
ATOM     56  C   UNL     1     152.788 165.287 194.115  0.00  0.00    -0.056 C 
ATOM     57  H   UNL     1     153.058 164.413 193.512  0.00  0.00    +0.024 HD
ATOM     58  H   UNL     1     152.516 164.919 195.107  0.00  0.00    +0.024 HD
ATOM     59  H   UNL     1     153.683 165.911 194.217  0.00  0.00    +0.024 HD
ENDBRANCH   1  56
BRANCH  14  60
ATOM     60  C   UNL     1     144.271 164.967 185.523  0.00  0.00    -0.057 C 
ATOM     61  H   UNL     1     143.267 165.174 185.902  0.00  0.00    +0.023 HD
ATOM     62  H   UNL     1     144.499 163.914 185.709  0.00  0.00    +0.023 HD
ATOM     63  H   UNL     1     144.249 165.088 184.435  0.00  0.00    +0.023 HD
ENDBRANCH  14  60
BRANCH  13  64
ATOM     64  C   UNL     1     147.186 164.118 185.891  0.00  0.00    +0.011 C 
ATOM     65  H   UNL     1     148.036 163.931 185.228  0.00  0.00    +0.033 HD
ATOM     66  H   UNL     1     146.392 163.434 185.569  0.00  0.00    +0.033 HD
BRANCH  64  67
ATOM     67  C   UNL     1     147.617 163.769 187.338  0.00  0.00    +0.064 C 
ATOM     68  H   UNL     1     148.652 164.103 187.483  0.00  0.00    +0.060 HD
BRANCH  67  69
ATOM     69  C   UNL     1     146.722 164.509 188.383  0.00  0.00    -0.017 C 
ATOM     70  H   UNL     1     146.053 165.178 187.824  0.00  0.00    +0.032 HD
BRANCH  69  71
ATOM     71  C   UNL     1     145.847 163.544 189.194  0.00  0.00    -0.060 C 
ATOM     72  H   UNL     1     145.187 164.081 189.883  0.00  0.00    +0.023 HD
ATOM     73  H   UNL     1     146.444 162.838 189.776  0.00  0.00    +0.023 HD
ATOM     74  H   UNL     1     145.228 162.930 188.537  0.00  0.00    +0.023 HD
ENDBRANCH  69  71
BRANCH  69  75
ATOM     75  C   UNL     1     147.595 165.388 189.316  0.00  0.00    -0.041 C 
ATOM     76  H   UNL     1     148.604 165.433 188.887  0.00  0.00    +0.027 HD
ATOM     77  H   UNL     1     147.695 164.921 190.302  0.00  0.00    +0.027 HD
BRANCH  75  78
ATOM     78  C   UNL     1     147.105 166.834 189.459  0.00  0.00    +0.007 C 
ATOM     79  H   UNL     1     146.982 167.268 188.462  0.00  0.00    +0.034 HD
ATOM     80  H   UNL     1     146.125 166.849 189.949  0.00  0.00    +0.034 HD
BRANCH  78  81
ATOM     81  C   UNL     1     148.056 167.763 190.208  0.00  0.00    +0.140 C 
ATOM     82  O   UNL     1     149.279 167.710 190.062  0.00  0.00    -0.297 OA
BRANCH  81  83
ATOM     83  C   UNL     1     147.406 168.767 191.151  0.00  0.00    +0.052 C 
ATOM     84  H   UNL     1     146.372 168.450 191.328  0.00  0.00    +0.041 HD
BRANCH  83  85
ATOM     85  C   UNL     1     148.140 168.716 192.494  0.00  0.00    -0.052 C 
ATOM     86  H   UNL     1     148.973 169.423 192.518  0.00  0.00    +0.024 HD
ATOM     87  H   UNL     1     147.474 168.965 193.325  0.00  0.00    +0.024 HD
ATOM     88  H   UNL     1     148.534 167.713 192.684  0.00  0.00    +0.024 HD
ENDBRANCH  83  85
BRANCH  83  89
ATOM     89  C   UNL     1     147.402 170.202 190.571  0.00  0.00    +0.118 C 
ATOM     90  H   UNL     1     148.308 170.342 189.972  0.00  0.00    +0.075 HD
BRANCH  89  91
ATOM     91  C   UNL     1     146.183 170.517 189.657  0.00  0.00    +0.014 C 
ATOM     92  H   UNL     1     146.027 171.593 189.713  0.00  0.00    +0.038 HD
BRANCH  91  93
ATOM     93  C   UNL     1     144.905 169.853 190.181  0.00  0.00    -0.056 C 
ATOM     94  H   UNL     1     144.270 169.474 189.371  0.00  0.00    +0.024 HD
ATOM     95  H   UNL     1     144.309 170.565 190.764  0.00  0.00    +0.024 HD
ATOM     96  H   UNL     1     145.152 169.012 190.839  0.00  0.00    +0.024 HD
ENDBRANCH  91  93
BRANCH  91  97
ATOM     97  C   UNL     1     146.411 170.098 188.220  0.00  0.00    -0.064 C 
ATOM     98  C   UNL     1     146.074 170.727 187.085  0.00  0.00    -0.010 C 
ATOM     99  H   UNL     1     146.992 169.180 188.110  0.00  0.00    +0.059 HD
ATOM    100  H   UNL     1     146.457 170.289 186.163  0.00  0.00    +0.078 HD
BRANCH  98 101
ATOM    101  N   UNL     1     145.361 171.886 186.820  0.00  0.00    -0.317 N 
BRANCH 101 102
ATOM    102  C   UNL     1     146.013 173.016 186.151  0.00  0.00    +0.002 C 
ATOM    103  H   UNL     1     146.509 173.672 186.879  0.00  0.00    +0.043 HD
ATOM    104  H   UNL     1     145.279 173.626 185.609  0.00  0.00    +0.043 HD
ATOM    105  H   UNL     1     146.768 172.658 185.444  0.00  0.00    +0.043 HD
ENDBRANCH 101 102
BRANCH 101 106
ATOM    106  C   UNL     1     143.908 171.992 186.859  0.00  0.00    +0.110 C 
ATOM    107  H   UNL     1     143.491 172.662 186.111  0.00  0.00    +0.077 HD
ATOM    108  H   UNL     1     143.430 171.016 186.739  0.00  0.00    +0.077 HD
BRANCH 106 109
ATOM    109  O   UNL     1     143.567 172.522 188.125  0.00  0.00    -0.377 OA
ATOM    110  H   UNL     1     143.476 171.713 188.660  0.00  0.00    +0.211 HD
ENDBRANCH 106 109
ENDBRANCH 101 106
ENDBRANCH  98 101
ENDBRANCH  91  97
ENDBRANCH  89  91
BRANCH  89 111
ATOM    111  O   UNL     1     147.385 171.118 191.700  0.00  0.00    -0.460 OA
BRANCH 111 112
ATOM    112  C   UNL     1     147.901 172.362 191.509  0.00  0.00    +0.304 C 
ATOM    113  O   UNL     1     148.751 172.671 190.687  0.00  0.00    -0.251 OA
BRANCH 112 114
ATOM    114  C   UNL     1     147.272 173.321 192.471  0.00  0.00    +0.033 C 
ATOM    115  H   UNL     1     147.830 174.261 192.474  0.00  0.00    +0.034 HD
ATOM    116  H   UNL     1     147.247 172.881 193.471  0.00  0.00    +0.034 HD
ATOM    117  H   UNL     1     146.244 173.528 192.156  0.00  0.00    +0.034 HD
ENDBRANCH 112 114
ENDBRANCH 111 112
ENDBRANCH  89 111
ENDBRANCH  83  89
ENDBRANCH  81  83
ENDBRANCH  78  81
ENDBRANCH  75  78
ENDBRANCH  69  75
ENDBRANCH  67  69
BRANCH  67 118
ATOM    118  O   UNL     1     147.505 162.360 187.551  0.00  0.00    -0.379 OA
BRANCH 118 119
ATOM    119  C   UNL     1     147.407 161.605 186.346  0.00  0.00    +0.037 C 
ATOM    120  H   UNL     1     148.339 161.070 186.152  0.00  0.00    +0.052 HD
ATOM    121  H   UNL     1     146.572 160.898 186.388  0.00  0.00    +0.052 HD
ATOM    122  H   UNL     1     147.228 162.302 185.522  0.00  0.00    +0.052 HD
ENDBRANCH 118 119
ENDBRANCH  67 118
ENDBRANCH  64  67
ENDBRANCH  13  64
BRANCH   8 123
ATOM    123  O   UNL     1     151.886 165.987 186.004  0.00  0.00    -0.391 OA
ATOM    124  H   UNL     1     152.721 165.717 186.439  0.00  0.00    +0.210 HD
ENDBRANCH   8 123
BRANCH  15 125
ATOM    125  O   UNL     1     144.844 167.626 184.513  0.00  0.00    -0.379 OA
BRANCH 125 126
ATOM    126  C   UNL     1     144.216 168.864 184.197  0.00  0.00    +0.037 C 
ATOM    127  H   UNL     1     143.899 169.374 185.114  0.00  0.00    +0.052 HD
ATOM    128  H   UNL     1     144.945 169.496 183.683  0.00  0.00    +0.052 HD
ATOM    129  H   UNL     1     143.359 168.712 183.534  0.00  0.00    +0.052 HD
ENDBRANCH 125 126
ENDBRANCH  15 125
TORSDOF 27
ENDMDL
MODEL 8
REMARK VINA RESULT:      -5.6      2.058      6.810
REMARK  Name = Ulapualide A_conf1
REMARK  27 active torsions:
REMARK  status: ('A' for Active; 'I' for Inactive)
REMARK    1  A    between atoms: C_1  and  C_2
REMARK    2  A    between atoms: C_9  and  O_63
REMARK    3  A    between atoms: C_14  and  C_38
REMARK    4  A    between atoms: C_15  and  C_37
REMARK    5  A    between atoms: C_16  and  O_35
REMARK    6  A    between atoms: O_35  and  C_36
REMARK    7  A    between atoms: C_38  and  C_39
REMARK    8  A    between atoms: C_39  and  C_40
REMARK    9  A    between atoms: C_39  and  O_61
REMARK   10  A    between atoms: C_40  and  C_41
REMARK   11  A    between atoms: C_40  and  C_42
REMARK   12  A    between atoms: C_42  and  C_43
REMARK   13  A    between atoms: C_43  and  C_44
REMARK   14  A    between atoms: C_44  and  C_46
REMARK   15  A    between atoms: C_46  and  C_47
REMARK   16  A    between atoms: C_46  and  C_48
REMARK   17  A    between atoms: C_48  and  C_49
REMARK   18  A    between atoms: C_48  and  O_57
REMARK   19  A    between atoms: C_49  and  C_50
REMARK   20  A    between atoms: C_49  and  C_51
REMARK   21  A    between atoms: C_52  and  N_53
REMARK   22  A    between atoms: N_53  and  C_54
REMARK   23  A    between atoms: N_53  and  C_55
REMARK   24  A    between atoms: C_55  and  O_56
REMARK   25  A    between atoms: O_57  and  C_58
REMARK   26  A    between atoms: C_58  and  C_60
REMARK   27  A    between atoms: O_61  and  C_62
REMARK                            x       y       z     vdW  Elec       q    Type
REMARK                         _______ _______ _______ _____ _____    ______ ____
ROOT
ATOM      1  C   UNL     1     152.988 166.157 190.303  0.00  0.00    +0.008 C 
ATOM      2  C   UNL     1     152.179 165.396 189.232  0.00  0.00    +0.014 C 
ATOM      3  C   UNL     1     153.081 164.737 188.209  0.00  0.00    +0.134 C 
ATOM      4  O   UNL     1     154.125 165.273 187.829  0.00  0.00    -0.297 OA
ATOM      5  C   UNL     1     152.670 163.386 187.660  0.00  0.00    +0.006 C 
ATOM      6  C   UNL     1     151.315 163.371 186.962  0.00  0.00    -0.044 C 
ATOM      7  C   UNL     1     151.209 164.374 185.803  0.00  0.00    -0.026 C 
ATOM      8  C   UNL     1     149.958 164.092 184.958  0.00  0.00    +0.065 C 
ATOM      9  C   UNL     1     149.567 165.287 184.091  0.00  0.00    +0.071 C 
ATOM     10  C   UNL     1     148.122 165.128 183.701  0.00  0.00    +0.310 C 
ATOM     11  O   UNL     1     147.706 164.229 182.979  0.00  0.00    -0.251 OA
ATOM     12  O   UNL     1     147.348 166.061 184.325  0.00  0.00    -0.461 OA
ATOM     13  C   UNL     1     145.923 165.797 184.338  0.00  0.00    +0.110 C 
ATOM     14  C   UNL     1     145.179 167.117 184.680  0.00  0.00    +0.020 C 
ATOM     15  C   UNL     1     145.568 168.251 183.683  0.00  0.00    +0.068 C 
ATOM     16  C   UNL     1     145.047 169.651 184.098  0.00  0.00    -0.008 C 
ATOM     17  C   UNL     1     145.446 170.007 185.498  0.00  0.00    -0.077 C 
ATOM     18  C   UNL     1     144.599 170.388 186.471  0.00  0.00    -0.003 C 
ATOM     19  C   UNL     1     145.075 170.553 187.802  0.00  0.00    +0.220 A 
ATOM     20  N   UNL     1     146.186 170.022 188.295  0.00  0.00    -0.205 NA
ATOM     21  C   UNL     1     146.247 170.445 189.598  0.00  0.00    +0.164 A 
ATOM     22  C   UNL     1     145.158 171.222 189.882  0.00  0.00    +0.125 A 
ATOM     23  O   UNL     1     144.384 171.277 188.760  0.00  0.00    -0.443 OA
ATOM     24  C   UNL     1     147.394 170.078 190.586  0.00  0.00    +0.250 A 
ATOM     25  N   UNL     1     148.363 169.233 190.277  0.00  0.00    -0.203 NA
ATOM     26  C   UNL     1     149.165 169.218 191.389  0.00  0.00    +0.164 A 
ATOM     27  C   UNL     1     148.645 170.052 192.350  0.00  0.00    +0.125 A 
ATOM     28  O   UNL     1     147.495 170.592 191.860  0.00  0.00    -0.442 OA
ATOM     29  C   UNL     1     150.478 168.393 191.535  0.00  0.00    +0.249 A 
ATOM     30  N   UNL     1     150.940 167.582 190.599  0.00  0.00    -0.212 NA
ATOM     31  C   UNL     1     152.116 167.081 191.110  0.00  0.00    +0.083 A 
ATOM     32  C   UNL     1     152.320 167.624 192.359  0.00  0.00    +0.116 A 
ATOM     33  O   UNL     1     151.280 168.451 192.647  0.00  0.00    -0.442 OA
ATOM     34  H   UNL     1     153.734 166.791 189.807  0.00  0.00    +0.037 HD
ATOM     35  H   UNL     1     151.548 164.638 189.708  0.00  0.00    +0.035 HD
ATOM     36  H   UNL     1     151.519 166.069 188.671  0.00  0.00    +0.035 HD
ATOM     37  H   UNL     1     153.447 163.050 186.964  0.00  0.00    +0.034 HD
ATOM     38  H   UNL     1     152.667 162.678 188.496  0.00  0.00    +0.034 HD
ATOM     39  H   UNL     1     151.138 162.353 186.591  0.00  0.00    +0.027 HD
ATOM     40  H   UNL     1     150.519 163.581 187.686  0.00  0.00    +0.027 HD
ATOM     41  H   UNL     1     152.105 164.304 185.176  0.00  0.00    +0.029 HD
ATOM     42  H   UNL     1     151.164 165.385 186.219  0.00  0.00    +0.029 HD
ATOM     43  H   UNL     1     149.136 163.796 185.615  0.00  0.00    +0.060 HD
ATOM     44  H   UNL     1     150.165 165.351 183.175  0.00  0.00    +0.040 HD
ATOM     45  H   UNL     1     149.682 166.229 184.636  0.00  0.00    +0.040 HD
ATOM     46  H   UNL     1     145.616 165.483 183.333  0.00  0.00    +0.074 HD
ATOM     47  H   UNL     1     145.510 167.433 185.675  0.00  0.00    +0.036 HD
ATOM     48  H   UNL     1     146.664 168.306 183.633  0.00  0.00    +0.060 HD
ATOM     49  H   UNL     1     143.961 169.708 183.959  0.00  0.00    +0.033 HD
ATOM     50  H   UNL     1     145.461 170.407 183.419  0.00  0.00    +0.033 HD
ATOM     51  H   UNL     1     146.504 169.875 185.734  0.00  0.00    +0.057 HD
ATOM     52  H   UNL     1     143.552 170.574 186.275  0.00  0.00    +0.067 HD
ATOM     53  H   UNL     1     144.786 171.732 190.755  0.00  0.00    +0.105 HD
ATOM     54  H   UNL     1     148.935 170.340 193.349  0.00  0.00    +0.105 HD
ATOM     55  H   UNL     1     153.093 167.543 193.109  0.00  0.00    +0.105 HD
ENDROOT
BRANCH   1  56
ATOM     56  C   UNL     1     153.740 165.161 191.197  0.00  0.00    -0.056 C 
ATOM     57  H   UNL     1     154.271 164.411 190.600  0.00  0.00    +0.024 HD
ATOM     58  H   UNL     1     153.052 164.619 191.852  0.00  0.00    +0.024 HD
ATOM     59  H   UNL     1     154.479 165.670 191.827  0.00  0.00    +0.024 HD
ENDBRANCH   1  56
BRANCH  14  60
ATOM     60  C   UNL     1     143.659 166.897 184.730  0.00  0.00    -0.057 C 
ATOM     61  H   UNL     1     143.125 167.838 184.888  0.00  0.00    +0.023 HD
ATOM     62  H   UNL     1     143.372 166.202 185.523  0.00  0.00    +0.023 HD
ATOM     63  H   UNL     1     143.298 166.461 183.794  0.00  0.00    +0.023 HD
ENDBRANCH  14  60
BRANCH  13  64
ATOM     64  C   UNL     1     145.635 164.642 185.330  0.00  0.00    +0.011 C 
ATOM     65  H   UNL     1     145.429 163.755 184.723  0.00  0.00    +0.033 HD
ATOM     66  H   UNL     1     144.711 164.855 185.880  0.00  0.00    +0.033 HD
BRANCH  64  67
ATOM     67  C   UNL     1     146.765 164.290 186.330  0.00  0.00    +0.064 C 
ATOM     68  H   UNL     1     147.711 164.684 185.940  0.00  0.00    +0.060 HD
BRANCH  67  69
ATOM     69  C   UNL     1     146.507 164.951 187.723  0.00  0.00    -0.017 C 
ATOM     70  H   UNL     1     147.016 164.334 188.476  0.00  0.00    +0.032 HD
BRANCH  69  71
ATOM     71  C   UNL     1     147.085 166.370 187.815  0.00  0.00    -0.060 C 
ATOM     72  H   UNL     1     147.608 166.531 188.763  0.00  0.00    +0.023 HD
ATOM     73  H   UNL     1     146.310 167.135 187.719  0.00  0.00    +0.023 HD
ATOM     74  H   UNL     1     147.786 166.562 187.000  0.00  0.00    +0.023 HD
ENDBRANCH  69  71
BRANCH  69  75
ATOM     75  C   UNL     1     144.993 164.943 188.053  0.00  0.00    -0.041 C 
ATOM     76  H   UNL     1     144.471 164.445 187.225  0.00  0.00    +0.027 HD
ATOM     77  H   UNL     1     144.603 165.966 188.097  0.00  0.00    +0.027 HD
BRANCH  75  78
ATOM     78  C   UNL     1     144.631 164.180 189.332  0.00  0.00    +0.007 C 
ATOM     79  H   UNL     1     143.832 163.465 189.106  0.00  0.00    +0.034 HD
ATOM     80  H   UNL     1     145.497 163.607 189.682  0.00  0.00    +0.034 HD
BRANCH  78  81
ATOM     81  C   UNL     1     144.108 165.047 190.473  0.00  0.00    +0.140 C 
ATOM     82  O   UNL     1     142.917 165.068 190.791  0.00  0.00    -0.297 OA
BRANCH  81  83
ATOM     83  C   UNL     1     145.145 165.892 191.201  0.00  0.00    +0.052 C 
ATOM     84  H   UNL     1     146.131 165.447 191.027  0.00  0.00    +0.041 HD
BRANCH  83  85
ATOM     85  C   UNL     1     145.155 167.291 190.578  0.00  0.00    -0.052 C 
ATOM     86  H   UNL     1     146.159 167.571 190.248  0.00  0.00    +0.024 HD
ATOM     87  H   UNL     1     144.496 167.347 189.707  0.00  0.00    +0.024 HD
ATOM     88  H   UNL     1     144.809 168.040 191.297  0.00  0.00    +0.024 HD
ENDBRANCH  83  85
BRANCH  83  89
ATOM     89  C   UNL     1     144.883 165.961 192.724  0.00  0.00    +0.118 C 
ATOM     90  H   UNL     1     144.092 165.249 192.979  0.00  0.00    +0.075 HD
BRANCH  89  91
ATOM     91  C   UNL     1     146.123 165.617 193.601  0.00  0.00    +0.014 C 
ATOM     92  H   UNL     1     146.658 164.826 193.077  0.00  0.00    +0.038 HD
BRANCH  91  93
ATOM     93  C   UNL     1     145.704 165.047 194.960  0.00  0.00    -0.056 C 
ATOM     94  H   UNL     1     146.557 164.921 195.639  0.00  0.00    +0.024 HD
ATOM     95  H   UNL     1     145.228 164.067 194.840  0.00  0.00    +0.024 HD
ATOM     96  H   UNL     1     144.979 165.709 195.447  0.00  0.00    +0.024 HD
ENDBRANCH  91  93
BRANCH  91  97
ATOM     97  C   UNL     1     147.032 166.808 193.815  0.00  0.00    -0.064 C 
ATOM     98  C   UNL     1     148.252 166.860 194.370  0.00  0.00    -0.010 C 
ATOM     99  H   UNL     1     146.652 167.740 193.394  0.00  0.00    +0.059 HD
ATOM    100  H   UNL     1     148.768 167.818 194.301  0.00  0.00    +0.078 HD
BRANCH  98 101
ATOM    101  N   UNL     1     149.051 165.913 194.991  0.00  0.00    -0.317 N 
BRANCH 101 102
ATOM    102  C   UNL     1     150.157 165.287 194.258  0.00  0.00    +0.002 C 
ATOM    103  H   UNL     1     150.438 164.328 194.716  0.00  0.00    +0.043 HD
ATOM    104  H   UNL     1     151.046 165.929 194.270  0.00  0.00    +0.043 HD
ATOM    105  H   UNL     1     149.868 165.098 193.220  0.00  0.00    +0.043 HD
ENDBRANCH 101 102
BRANCH 101 106
ATOM    106  C   UNL     1     149.107 165.690 196.430  0.00  0.00    +0.110 C 
ATOM    107  H   UNL     1     148.615 166.461 197.019  0.00  0.00    +0.077 HD
ATOM    108  H   UNL     1     148.668 164.727 196.705  0.00  0.00    +0.077 HD
BRANCH 106 109
ATOM    109  O   UNL     1     150.473 165.698 196.795  0.00  0.00    -0.377 OA
ATOM    110  H   UNL     1     150.421 165.565 197.758  0.00  0.00    +0.211 HD
ENDBRANCH 106 109
ENDBRANCH 101 106
ENDBRANCH  98 101
ENDBRANCH  91  97
ENDBRANCH  89  91
BRANCH  89 111
ATOM    111  O   UNL     1     144.466 167.321 193.024  0.00  0.00    -0.460 OA
BRANCH 111 112
ATOM    112  C   UNL     1     143.132 167.580 193.047  0.00  0.00    +0.304 C 
ATOM    113  O   UNL     1     142.560 168.469 192.434  0.00  0.00    -0.251 OA
BRANCH 112 114
ATOM    114  C   UNL     1     142.444 166.605 193.953  0.00  0.00    +0.033 C 
ATOM    115  H   UNL     1     142.761 166.773 194.985  0.00  0.00    +0.034 HD
ATOM    116  H   UNL     1     142.670 165.584 193.637  0.00  0.00    +0.034 HD
ATOM    117  H   UNL     1     141.361 166.757 193.892  0.00  0.00    +0.034 HD
ENDBRANCH 112 114
ENDBRANCH 111 112
ENDBRANCH  89 111
ENDBRANCH  83  89
ENDBRANCH  81  83
ENDBRANCH  78  81
ENDBRANCH  75  78
ENDBRANCH  69  75
ENDBRANCH  67  69
BRANCH  67 118
ATOM    118  O   UNL     1     146.839 162.873 186.500  0.00  0.00    -0.379 OA
BRANCH 118 119
ATOM    119  C   UNL     1     147.722 162.467 187.544  0.00  0.00    +0.037 C 
ATOM    120  H   UNL     1     148.479 161.780 187.159  0.00  0.00    +0.052 HD
ATOM    121  H   UNL     1     148.203 163.330 188.014  0.00  0.00    +0.052 HD
ATOM    122  H   UNL     1     147.132 161.944 188.303  0.00  0.00    +0.052 HD
ENDBRANCH 118 119
ENDBRANCH  67 118
ENDBRANCH  64  67
ENDBRANCH  13  64
BRANCH   8 123
ATOM    123  O   UNL     1     150.255 162.976 184.114  0.00  0.00    -0.391 OA
ATOM    124  H   UNL     1     150.043 162.168 184.625  0.00  0.00    +0.210 HD
ENDBRANCH   8 123
BRANCH  15 125
ATOM    125  O   UNL     1     145.043 167.912 182.390  0.00  0.00    -0.379 OA
BRANCH 125 126
ATOM    126  C   UNL     1     144.508 169.036 181.697  0.00  0.00    +0.037 C 
ATOM    127  H   UNL     1     143.559 168.771 181.219  0.00  0.00    +0.052 HD
ATOM    128  H   UNL     1     144.321 169.828 182.426  0.00  0.00    +0.052 HD
ATOM    129  H   UNL     1     145.217 169.410 180.952  0.00  0.00    +0.052 HD
ENDBRANCH 125 126
ENDBRANCH  15 125
TORSDOF 27
ENDMDL
MODEL 9
REMARK VINA RESULT:      -5.5      4.610      9.628
REMARK  Name = Ulapualide A_conf1
REMARK  27 active torsions:
REMARK  status: ('A' for Active; 'I' for Inactive)
REMARK    1  A    between atoms: C_1  and  C_2
REMARK    2  A    between atoms: C_9  and  O_63
REMARK    3  A    between atoms: C_14  and  C_38
REMARK    4  A    between atoms: C_15  and  C_37
REMARK    5  A    between atoms: C_16  and  O_35
REMARK    6  A    between atoms: O_35  and  C_36
REMARK    7  A    between atoms: C_38  and  C_39
REMARK    8  A    between atoms: C_39  and  C_40
REMARK    9  A    between atoms: C_39  and  O_61
REMARK   10  A    between atoms: C_40  and  C_41
REMARK   11  A    between atoms: C_40  and  C_42
REMARK   12  A    between atoms: C_42  and  C_43
REMARK   13  A    between atoms: C_43  and  C_44
REMARK   14  A    between atoms: C_44  and  C_46
REMARK   15  A    between atoms: C_46  and  C_47
REMARK   16  A    between atoms: C_46  and  C_48
REMARK   17  A    between atoms: C_48  and  C_49
REMARK   18  A    between atoms: C_48  and  O_57
REMARK   19  A    between atoms: C_49  and  C_50
REMARK   20  A    between atoms: C_49  and  C_51
REMARK   21  A    between atoms: C_52  and  N_53
REMARK   22  A    between atoms: N_53  and  C_54
REMARK   23  A    between atoms: N_53  and  C_55
REMARK   24  A    between atoms: C_55  and  O_56
REMARK   25  A    between atoms: O_57  and  C_58
REMARK   26  A    between atoms: C_58  and  C_60
REMARK   27  A    between atoms: O_61  and  C_62
REMARK                            x       y       z     vdW  Elec       q    Type
REMARK                         _______ _______ _______ _____ _____    ______ ____
ROOT
ATOM      1  C   UNL     1     152.057 166.377 191.589  0.00  0.00    +0.008 C 
ATOM      2  C   UNL     1     151.622 165.823 190.217  0.00  0.00    +0.014 C 
ATOM      3  C   UNL     1     152.531 166.301 189.103  0.00  0.00    +0.134 C 
ATOM      4  O   UNL     1     153.015 167.435 189.107  0.00  0.00    -0.297 OA
ATOM      5  C   UNL     1     152.842 165.341 187.973  0.00  0.00    +0.006 C 
ATOM      6  C   UNL     1     151.620 164.845 187.209  0.00  0.00    -0.044 C 
ATOM      7  C   UNL     1     150.767 165.974 186.612  0.00  0.00    -0.026 C 
ATOM      8  C   UNL     1     149.750 165.411 185.609  0.00  0.00    +0.065 C 
ATOM      9  C   UNL     1     148.613 166.392 185.329  0.00  0.00    +0.071 C 
ATOM     10  C   UNL     1     147.453 165.615 184.767  0.00  0.00    +0.310 C 
ATOM     11  O   UNL     1     147.479 165.042 183.683  0.00  0.00    -0.251 OA
ATOM     12  O   UNL     1     146.424 165.569 185.659  0.00  0.00    -0.461 OA
ATOM     13  C   UNL     1     145.413 164.561 185.411  0.00  0.00    +0.110 C 
ATOM     14  C   UNL     1     144.142 164.923 186.227  0.00  0.00    +0.020 C 
ATOM     15  C   UNL     1     143.649 166.362 185.882  0.00  0.00    +0.068 C 
ATOM     16  C   UNL     1     142.529 166.879 186.821  0.00  0.00    -0.008 C 
ATOM     17  C   UNL     1     142.914 166.774 188.266  0.00  0.00    -0.077 C 
ATOM     18  C   UNL     1     142.194 166.153 189.216  0.00  0.00    -0.003 C 
ATOM     19  C   UNL     1     142.735 165.987 190.522  0.00  0.00    +0.220 A 
ATOM     20  N   UNL     1     144.022 166.044 190.836  0.00  0.00    -0.205 NA
ATOM     21  C   UNL     1     144.078 165.834 192.190  0.00  0.00    +0.164 A 
ATOM     22  C   UNL     1     142.816 165.640 192.680  0.00  0.00    +0.125 A 
ATOM     23  O   UNL     1     141.950 165.703 191.628  0.00  0.00    -0.443 OA
ATOM     24  C   UNL     1     145.395 165.821 193.022  0.00  0.00    +0.250 A 
ATOM     25  N   UNL     1     146.593 165.909 192.469  0.00  0.00    -0.203 NA
ATOM     26  C   UNL     1     147.457 165.894 193.533  0.00  0.00    +0.164 A 
ATOM     27  C   UNL     1     146.752 165.784 194.706  0.00  0.00    +0.125 A 
ATOM     28  O   UNL     1     145.428 165.710 194.395  0.00  0.00    -0.442 OA
ATOM     29  C   UNL     1     149.008 166.003 193.427  0.00  0.00    +0.249 A 
ATOM     30  N   UNL     1     149.659 166.086 192.280  0.00  0.00    -0.212 NA
ATOM     31  C   UNL     1     150.987 166.193 192.631  0.00  0.00    +0.083 A 
ATOM     32  C   UNL     1     151.082 166.172 194.004  0.00  0.00    +0.116 A 
ATOM     33  O   UNL     1     149.833 166.040 194.524  0.00  0.00    -0.442 OA
ATOM     34  H   UNL     1     152.223 167.459 191.504  0.00  0.00    +0.037 HD
ATOM     35  H   UNL     1     151.614 164.728 190.240  0.00  0.00    +0.035 HD
ATOM     36  H   UNL     1     150.611 166.153 189.950  0.00  0.00    +0.035 HD
ATOM     37  H   UNL     1     153.532 165.839 187.282  0.00  0.00    +0.034 HD
ATOM     38  H   UNL     1     153.384 164.491 188.403  0.00  0.00    +0.034 HD
ATOM     39  H   UNL     1     151.970 164.180 186.408  0.00  0.00    +0.027 HD
ATOM     40  H   UNL     1     150.990 164.235 187.867  0.00  0.00    +0.027 HD
ATOM     41  H   UNL     1     151.419 166.701 186.113  0.00  0.00    +0.029 HD
ATOM     42  H   UNL     1     150.249 166.490 187.428  0.00  0.00    +0.029 HD
ATOM     43  H   UNL     1     149.365 164.457 185.980  0.00  0.00    +0.060 HD
ATOM     44  H   UNL     1     148.895 167.161 184.602  0.00  0.00    +0.040 HD
ATOM     45  H   UNL     1     148.287 166.896 186.245  0.00  0.00    +0.040 HD
ATOM     46  H   UNL     1     145.151 164.582 184.345  0.00  0.00    +0.074 HD
ATOM     47  H   UNL     1     144.420 164.922 187.286  0.00  0.00    +0.036 HD
ATOM     48  H   UNL     1     144.501 167.049 185.972  0.00  0.00    +0.060 HD
ATOM     49  H   UNL     1     141.588 166.355 186.614  0.00  0.00    +0.033 HD
ATOM     50  H   UNL     1     142.324 167.932 186.594  0.00  0.00    +0.033 HD
ATOM     51  H   UNL     1     143.892 167.190 188.523  0.00  0.00    +0.057 HD
ATOM     52  H   UNL     1     141.203 165.766 189.020  0.00  0.00    +0.067 HD
ATOM     53  H   UNL     1     142.392 165.423 193.646  0.00  0.00    +0.105 HD
ATOM     54  H   UNL     1     147.012 165.737 195.753  0.00  0.00    +0.105 HD
ATOM     55  H   UNL     1     151.894 166.246 194.713  0.00  0.00    +0.105 HD
ENDROOT
BRANCH   1  56
ATOM     56  C   UNL     1     153.383 165.732 192.018  0.00  0.00    -0.056 C 
ATOM     57  H   UNL     1     154.228 166.409 191.850  0.00  0.00    +0.024 HD
ATOM     58  H   UNL     1     153.584 164.822 191.447  0.00  0.00    +0.024 HD
ATOM     59  H   UNL     1     153.372 165.470 193.083  0.00  0.00    +0.024 HD
ENDBRANCH   1  56
BRANCH  14  60
ATOM     60  C   UNL     1     143.036 163.877 186.021  0.00  0.00    -0.057 C 
ATOM     61  H   UNL     1     143.165 163.023 186.692  0.00  0.00    +0.023 HD
ATOM     62  H   UNL     1     143.009 163.506 184.993  0.00  0.00    +0.023 HD
ATOM     63  H   UNL     1     142.050 164.309 186.217  0.00  0.00    +0.023 HD
ENDBRANCH  14  60
BRANCH  13  64
ATOM     64  C   UNL     1     145.998 163.167 185.751  0.00  0.00    +0.011 C 
ATOM     65  H   UNL     1     146.551 162.837 184.867  0.00  0.00    +0.033 HD
ATOM     66  H   UNL     1     145.180 162.450 185.883  0.00  0.00    +0.033 HD
BRANCH  64  67
ATOM     67  C   UNL     1     146.953 163.097 186.970  0.00  0.00    +0.064 C 
ATOM     68  H   UNL     1     147.195 164.120 187.283  0.00  0.00    +0.060 HD
BRANCH  67  69
ATOM     69  C   UNL     1     146.269 162.374 188.176  0.00  0.00    -0.017 C 
ATOM     70  H   UNL     1     147.061 161.860 188.739  0.00  0.00    +0.032 HD
BRANCH  69  71
ATOM     71  C   UNL     1     145.579 163.356 189.133  0.00  0.00    -0.060 C 
ATOM     72  H   UNL     1     144.509 163.143 189.225  0.00  0.00    +0.023 HD
ATOM     73  H   UNL     1     145.694 164.394 188.809  0.00  0.00    +0.023 HD
ATOM     74  H   UNL     1     146.024 163.312 190.129  0.00  0.00    +0.023 HD
ENDBRANCH  69  71
BRANCH  69  75
ATOM     75  C   UNL     1     145.276 161.297 187.670  0.00  0.00    -0.041 C 
ATOM     76  H   UNL     1     145.862 160.486 187.219  0.00  0.00    +0.027 HD
ATOM     77  H   UNL     1     144.641 161.704 186.873  0.00  0.00    +0.027 HD
BRANCH  75  78
ATOM     78  C   UNL     1     144.414 160.668 188.769  0.00  0.00    +0.007 C 
ATOM     79  H   UNL     1     144.787 160.996 189.745  0.00  0.00    +0.034 HD
ATOM     80  H   UNL     1     143.379 161.017 188.677  0.00  0.00    +0.034 HD
BRANCH  78  81
ATOM     81  C   UNL     1     144.429 159.143 188.804  0.00  0.00    +0.140 C 
ATOM     82  O   UNL     1     143.933 158.459 187.906  0.00  0.00    -0.297 OA
BRANCH  81  83
ATOM     83  C   UNL     1     145.096 158.508 190.017  0.00  0.00    +0.052 C 
ATOM     84  H   UNL     1     145.362 159.306 190.718  0.00  0.00    +0.041 HD
BRANCH  83  85
ATOM     85  C   UNL     1     144.074 157.604 190.714  0.00  0.00    -0.052 C 
ATOM     86  H   UNL     1     144.502 157.133 191.602  0.00  0.00    +0.024 HD
ATOM     87  H   UNL     1     143.193 158.167 191.034  0.00  0.00    +0.024 HD
ATOM     88  H   UNL     1     143.727 156.815 190.039  0.00  0.00    +0.024 HD
ENDBRANCH  83  85
BRANCH  83  89
ATOM     89  C   UNL     1     146.373 157.719 189.641  0.00  0.00    +0.118 C 
ATOM     90  H   UNL     1     146.411 157.607 188.552  0.00  0.00    +0.075 HD
BRANCH  89  91
ATOM     91  C   UNL     1     147.698 158.402 190.088  0.00  0.00    +0.014 C 
ATOM     92  H   UNL     1     148.417 157.600 190.251  0.00  0.00    +0.038 HD
BRANCH  91  93
ATOM     93  C   UNL     1     147.528 159.128 191.427  0.00  0.00    -0.056 C 
ATOM     94  H   UNL     1     147.439 160.215 191.302  0.00  0.00    +0.024 HD
ATOM     95  H   UNL     1     148.386 158.939 192.082  0.00  0.00    +0.024 HD
ATOM     96  H   UNL     1     146.631 158.773 191.945  0.00  0.00    +0.024 HD
ENDBRANCH  91  93
BRANCH  91  97
ATOM     97  C   UNL     1     148.228 159.373 189.055  0.00  0.00    -0.064 C 
ATOM     98  C   UNL     1     148.849 159.127 187.893  0.00  0.00    -0.010 C 
ATOM     99  H   UNL     1     148.007 160.420 189.273  0.00  0.00    +0.059 HD
ATOM    100  H   UNL     1     149.028 159.991 187.252  0.00  0.00    +0.078 HD
BRANCH  98 101
ATOM    101  N   UNL     1     149.285 157.963 187.281  0.00  0.00    -0.317 N 
BRANCH 101 102
ATOM    102  C   UNL     1     148.559 157.419 186.128  0.00  0.00    +0.002 C 
ATOM    103  H   UNL     1     147.507 157.734 186.141  0.00  0.00    +0.043 HD
ATOM    104  H   UNL     1     148.572 156.322 186.140  0.00  0.00    +0.043 HD
ATOM    105  H   UNL     1     149.009 157.769 185.193  0.00  0.00    +0.043 HD
ENDBRANCH 101 102
BRANCH 101 106
ATOM    106  C   UNL     1     150.603 157.369 187.470  0.00  0.00    +0.110 C 
ATOM    107  H   UNL     1     150.862 156.616 186.730  0.00  0.00    +0.077 HD
ATOM    108  H   UNL     1     151.390 158.129 187.466  0.00  0.00    +0.077 HD
BRANCH 106 109
ATOM    109  O   UNL     1     150.588 156.726 188.729  0.00  0.00    -0.377 OA
ATOM    110  H   UNL     1     150.106 157.372 189.276  0.00  0.00    +0.211 HD
ENDBRANCH 106 109
ENDBRANCH 101 106
ENDBRANCH  98 101
ENDBRANCH  91  97
ENDBRANCH  89  91
BRANCH  89 111
ATOM    111  O   UNL     1     146.279 156.420 190.288  0.00  0.00    -0.460 OA
BRANCH 111 112
ATOM    112  C   UNL     1     146.848 155.360 189.655  0.00  0.00    +0.304 C 
ATOM    113  O   UNL     1     147.968 155.328 189.167  0.00  0.00    -0.251 OA
BRANCH 112 114
ATOM    114  C   UNL     1     145.888 154.211 189.634  0.00  0.00    +0.033 C 
ATOM    115  H   UNL     1     144.961 154.512 189.140  0.00  0.00    +0.034 HD
ATOM    116  H   UNL     1     145.692 153.873 190.655  0.00  0.00    +0.034 HD
ATOM    117  H   UNL     1     146.329 153.381 189.072  0.00  0.00    +0.034 HD
ENDBRANCH 112 114
ENDBRANCH 111 112
ENDBRANCH  89 111
ENDBRANCH  83  89
ENDBRANCH  81  83
ENDBRANCH  78  81
ENDBRANCH  75  78
ENDBRANCH  69  75
ENDBRANCH  67  69
BRANCH  67 118
ATOM    118  O   UNL     1     148.139 162.381 186.617  0.00  0.00    -0.379 OA
BRANCH 118 119
ATOM    119  C   UNL     1     148.152 161.927 185.266  0.00  0.00    +0.037 C 
ATOM    120  H   UNL     1     147.318 162.360 184.708  0.00  0.00    +0.052 HD
ATOM    121  H   UNL     1     149.098 162.172 184.774  0.00  0.00    +0.052 HD
ATOM    122  H   UNL     1     148.037 160.839 185.272  0.00  0.00    +0.052 HD
ENDBRANCH 118 119
ENDBRANCH  67 118
ENDBRANCH  64  67
ENDBRANCH  13  64
BRANCH   8 123
ATOM    123  O   UNL     1     150.452 165.145 184.392  0.00  0.00    -0.391 OA
ATOM    124  H   UNL     1     149.809 164.741 183.775  0.00  0.00    +0.210 HD
ENDBRANCH   8 123
BRANCH  15 125
ATOM    125  O   UNL     1     143.172 166.361 184.528  0.00  0.00    -0.379 OA
BRANCH 125 126
ATOM    126  C   UNL     1     143.727 167.412 183.744  0.00  0.00    +0.037 C 
ATOM    127  H   UNL     1     143.333 167.374 182.723  0.00  0.00    +0.052 HD
ATOM    128  H   UNL     1     143.436 168.364 184.194  0.00  0.00    +0.052 HD
ATOM    129  H   UNL     1     144.820 167.355 183.729  0.00  0.00    +0.052 HD
ENDBRANCH 125 126
ENDBRANCH  15 125
TORSDOF 27
ENDMDL
MODEL 10
REMARK VINA RESULT:      -5.5      5.222     10.401
REMARK  Name = Ulapualide A_conf1
REMARK  27 active torsions:
REMARK  status: ('A' for Active; 'I' for Inactive)
REMARK    1  A    between atoms: C_1  and  C_2
REMARK    2  A    between atoms: C_9  and  O_63
REMARK    3  A    between atoms: C_14  and  C_38
REMARK    4  A    between atoms: C_15  and  C_37
REMARK    5  A    between atoms: C_16  and  O_35
REMARK    6  A    between atoms: O_35  and  C_36
REMARK    7  A    between atoms: C_38  and  C_39
REMARK    8  A    between atoms: C_39  and  C_40
REMARK    9  A    between atoms: C_39  and  O_61
REMARK   10  A    between atoms: C_40  and  C_41
REMARK   11  A    between atoms: C_40  and  C_42
REMARK   12  A    between atoms: C_42  and  C_43
REMARK   13  A    between atoms: C_43  and  C_44
REMARK   14  A    between atoms: C_44  and  C_46
REMARK   15  A    between atoms: C_46  and  C_47
REMARK   16  A    between atoms: C_46  and  C_48
REMARK   17  A    between atoms: C_48  and  C_49
REMARK   18  A    between atoms: C_48  and  O_57
REMARK   19  A    between atoms: C_49  and  C_50
REMARK   20  A    between atoms: C_49  and  C_51
REMARK   21  A    between atoms: C_52  and  N_53
REMARK   22  A    between atoms: N_53  and  C_54
REMARK   23  A    between atoms: N_53  and  C_55
REMARK   24  A    between atoms: C_55  and  O_56
REMARK   25  A    between atoms: O_57  and  C_58
REMARK   26  A    between atoms: C_58  and  C_60
REMARK   27  A    between atoms: O_61  and  C_62
REMARK                            x       y       z     vdW  Elec       q    Type
REMARK                         _______ _______ _______ _____ _____    ______ ____
ROOT
ATOM      1  C   UNL     1     152.486 166.434 190.918  0.00  0.00    +0.008 C 
ATOM      2  C   UNL     1     151.754 165.978 189.639  0.00  0.00    +0.014 C 
ATOM      3  C   UNL     1     152.438 166.490 188.387  0.00  0.00    +0.134 C 
ATOM      4  O   UNL     1     152.965 167.604 188.349  0.00  0.00    -0.297 OA
ATOM      5  C   UNL     1     152.467 165.588 187.170  0.00  0.00    +0.006 C 
ATOM      6  C   UNL     1     151.092 165.182 186.650  0.00  0.00    -0.044 C 
ATOM      7  C   UNL     1     150.189 166.374 186.301  0.00  0.00    -0.026 C 
ATOM      8  C   UNL     1     148.963 165.907 185.503  0.00  0.00    +0.065 C 
ATOM      9  C   UNL     1     147.840 166.942 185.514  0.00  0.00    +0.071 C 
ATOM     10  C   UNL     1     146.555 166.241 185.165  0.00  0.00    +0.310 C 
ATOM     11  O   UNL     1     146.332 165.733 184.071  0.00  0.00    -0.251 OA
ATOM     12  O   UNL     1     145.728 166.178 186.246  0.00  0.00    -0.461 OA
ATOM     13  C   UNL     1     144.642 165.223 186.161  0.00  0.00    +0.110 C 
ATOM     14  C   UNL     1     143.583 165.579 187.240  0.00  0.00    +0.020 C 
ATOM     15  C   UNL     1     143.097 167.053 187.078  0.00  0.00    +0.068 C 
ATOM     16  C   UNL     1     142.218 167.551 188.254  0.00  0.00    -0.008 C 
ATOM     17  C   UNL     1     142.886 167.348 189.581  0.00  0.00    -0.077 C 
ATOM     18  C   UNL     1     142.347 166.697 190.626  0.00  0.00    -0.003 C 
ATOM     19  C   UNL     1     143.135 166.434 191.782  0.00  0.00    +0.220 A 
ATOM     20  N   UNL     1     144.460 166.428 191.826  0.00  0.00    -0.205 NA
ATOM     21  C   UNL     1     144.782 166.136 193.127  0.00  0.00    +0.164 A 
ATOM     22  C   UNL     1     143.639 165.957 193.856  0.00  0.00    +0.125 A 
ATOM     23  O   UNL     1     142.580 166.112 193.010  0.00  0.00    -0.443 OA
ATOM     24  C   UNL     1     146.239 166.026 193.667  0.00  0.00    +0.250 A 
ATOM     25  N   UNL     1     147.301 166.105 192.883  0.00  0.00    -0.203 NA
ATOM     26  C   UNL     1     148.363 165.997 193.743  0.00  0.00    +0.164 A 
ATOM     27  C   UNL     1     147.908 165.842 195.030  0.00  0.00    +0.125 A 
ATOM     28  O   UNL     1     146.546 165.833 194.996  0.00  0.00    -0.442 OA
ATOM     29  C   UNL     1     149.863 166.058 193.325  0.00  0.00    +0.249 A 
ATOM     30  N   UNL     1     150.269 166.186 192.074  0.00  0.00    -0.212 NA
ATOM     31  C   UNL     1     151.644 166.226 192.148  0.00  0.00    +0.083 A 
ATOM     32  C   UNL     1     152.017 166.120 193.469  0.00  0.00    +0.116 A 
ATOM     33  O   UNL     1     150.895 166.001 194.229  0.00  0.00    -0.442 OA
ATOM     34  H   UNL     1     152.681 167.512 190.856  0.00  0.00    +0.037 HD
ATOM     35  H   UNL     1     151.701 164.884 189.607  0.00  0.00    +0.035 HD
ATOM     36  H   UNL     1     150.727 166.359 189.604  0.00  0.00    +0.035 HD
ATOM     37  H   UNL     1     153.023 166.102 186.378  0.00  0.00    +0.034 HD
ATOM     38  H   UNL     1     153.045 164.696 187.434  0.00  0.00    +0.034 HD
ATOM     39  H   UNL     1     151.240 164.554 185.762  0.00  0.00    +0.027 HD
ATOM     40  H   UNL     1     150.583 164.556 187.392  0.00  0.00    +0.027 HD
ATOM     41  H   UNL     1     150.758 167.105 185.716  0.00  0.00    +0.029 HD
ATOM     42  H   UNL     1     149.873 166.857 187.231  0.00  0.00    +0.029 HD
ATOM     43  H   UNL     1     148.619 164.947 185.896  0.00  0.00    +0.060 HD
ATOM     44  H   UNL     1     148.003 167.743 184.784  0.00  0.00    +0.040 HD
ATOM     45  H   UNL     1     147.732 167.401 186.502  0.00  0.00    +0.040 HD
ATOM     46  H   UNL     1     144.170 165.316 185.176  0.00  0.00    +0.074 HD
ATOM     47  H   UNL     1     144.071 165.505 188.217  0.00  0.00    +0.036 HD
ATOM     48  H   UNL     1     143.981 167.703 187.026  0.00  0.00    +0.060 HD
ATOM     49  H   UNL     1     141.232 167.074 188.219  0.00  0.00    +0.033 HD
ATOM     50  H   UNL     1     142.020 168.623 188.129  0.00  0.00    +0.033 HD
ATOM     51  H   UNL     1     143.913 167.713 189.651  0.00  0.00    +0.057 HD
ATOM     52  H   UNL     1     141.320 166.357 190.619  0.00  0.00    +0.067 HD
ATOM     53  H   UNL     1     143.412 165.697 194.877  0.00  0.00    +0.105 HD
ATOM     54  H   UNL     1     148.374 165.724 195.996  0.00  0.00    +0.105 HD
ATOM     55  H   UNL     1     152.959 166.122 193.998  0.00  0.00    +0.105 HD
ENDROOT
BRANCH   1  56
ATOM     56  C   UNL     1     153.840 165.718 191.030  0.00  0.00    -0.056 C 
ATOM     57  H   UNL     1     153.939 165.203 191.992  0.00  0.00    +0.024 HD
ATOM     58  H   UNL     1     154.670 166.426 190.960  0.00  0.00    +0.024 HD
ATOM     59  H   UNL     1     153.963 164.971 190.238  0.00  0.00    +0.024 HD
ENDBRANCH   1  56
BRANCH  14  60
ATOM     60  C   UNL     1     142.411 164.586 187.214  0.00  0.00    -0.057 C 
ATOM     61  H   UNL     1     142.753 163.572 186.991  0.00  0.00    +0.023 HD
ATOM     62  H   UNL     1     141.655 164.865 186.476  0.00  0.00    +0.023 HD
ATOM     63  H   UNL     1     141.901 164.561 188.182  0.00  0.00    +0.023 HD
ENDBRANCH  14  60
BRANCH  13  64
ATOM     64  C   UNL     1     145.220 163.791 186.302  0.00  0.00    +0.011 C 
ATOM     65  H   UNL     1     146.086 163.738 185.637  0.00  0.00    +0.033 HD
ATOM     66  H   UNL     1     144.494 163.066 185.916  0.00  0.00    +0.033 HD
BRANCH  64  67
ATOM     67  C   UNL     1     145.675 163.365 187.721  0.00  0.00    +0.064 C 
ATOM     68  H   UNL     1     145.109 163.947 188.458  0.00  0.00    +0.060 HD
BRANCH  67  69
ATOM     69  C   UNL     1     145.379 161.851 187.974  0.00  0.00    -0.017 C 
ATOM     70  H   UNL     1     145.169 161.393 186.998  0.00  0.00    +0.032 HD
BRANCH  69  71
ATOM     71  C   UNL     1     146.577 161.114 188.587  0.00  0.00    -0.060 C 
ATOM     72  H   UNL     1     147.261 161.806 189.090  0.00  0.00    +0.023 HD
ATOM     73  H   UNL     1     147.146 160.559 187.836  0.00  0.00    +0.023 HD
ATOM     74  H   UNL     1     146.250 160.368 189.314  0.00  0.00    +0.023 HD
ENDBRANCH  69  71
BRANCH  69  75
ATOM     75  C   UNL     1     144.113 161.687 188.854  0.00  0.00    -0.041 C 
ATOM     76  H   UNL     1     143.236 161.803 188.205  0.00  0.00    +0.027 HD
ATOM     77  H   UNL     1     144.057 162.489 189.600  0.00  0.00    +0.027 HD
BRANCH  75  78
ATOM     78  C   UNL     1     143.990 160.319 189.533  0.00  0.00    +0.007 C 
ATOM     79  H   UNL     1     144.987 159.875 189.622  0.00  0.00    +0.034 HD
ATOM     80  H   UNL     1     143.591 160.440 190.546  0.00  0.00    +0.034 HD
BRANCH  78  81
ATOM     81  C   UNL     1     143.143 159.300 188.777  0.00  0.00    +0.140 C 
ATOM     82  O   UNL     1     142.004 159.557 188.380  0.00  0.00    -0.297 OA
BRANCH  81  83
ATOM     83  C   UNL     1     143.785 157.940 188.540  0.00  0.00    +0.052 C 
ATOM     84  H   UNL     1     143.000 157.241 188.230  0.00  0.00    +0.041 HD
BRANCH  83  85
ATOM     85  C   UNL     1     144.774 158.067 187.378  0.00  0.00    -0.052 C 
ATOM     86  H   UNL     1     145.035 159.112 187.192  0.00  0.00    +0.024 HD
ATOM     87  H   UNL     1     145.703 157.528 187.581  0.00  0.00    +0.024 HD
ATOM     88  H   UNL     1     144.351 157.649 186.459  0.00  0.00    +0.024 HD
ENDBRANCH  83  85
BRANCH  83  89
ATOM     89  C   UNL     1     144.481 157.389 189.807  0.00  0.00    +0.118 C 
ATOM     90  H   UNL     1     144.224 158.029 190.658  0.00  0.00    +0.075 HD
BRANCH  89  91
ATOM     91  C   UNL     1     144.072 155.933 190.177  0.00  0.00    +0.014 C 
ATOM     92  H   UNL     1     144.175 155.851 191.258  0.00  0.00    +0.038 HD
BRANCH  91  93
ATOM     93  C   UNL     1     145.029 154.910 189.558  0.00  0.00    -0.056 C 
ATOM     94  H   UNL     1     145.506 154.275 190.315  0.00  0.00    +0.024 HD
ATOM     95  H   UNL     1     145.826 155.414 188.998  0.00  0.00    +0.024 HD
ATOM     96  H   UNL     1     144.494 154.259 188.857  0.00  0.00    +0.024 HD
ENDBRANCH  91  93
BRANCH  91  97
ATOM     97  C   UNL     1     142.653 155.606 189.764  0.00  0.00    -0.064 C 
ATOM     98  C   UNL     1     141.817 154.675 190.247  0.00  0.00    -0.010 C 
ATOM     99  H   UNL     1     142.243 156.276 189.006  0.00  0.00    +0.059 HD
ATOM    100  H   UNL     1     140.794 154.710 189.873  0.00  0.00    +0.078 HD
BRANCH  98 101
ATOM    101  N   UNL     1     141.963 153.671 191.191  0.00  0.00    -0.317 N 
BRANCH 101 102
ATOM    102  C   UNL     1     142.589 152.397 190.824  0.00  0.00    +0.002 C 
ATOM    103  H   UNL     1     142.133 151.561 191.372  0.00  0.00    +0.043 HD
ATOM    104  H   UNL     1     143.659 152.403 191.067  0.00  0.00    +0.043 HD
ATOM    105  H   UNL     1     142.469 152.208 189.752  0.00  0.00    +0.043 HD
ENDBRANCH 101 102
BRANCH 101 106
ATOM    106  C   UNL     1     141.836 153.863 192.631  0.00  0.00    +0.110 C 
ATOM    107  H   UNL     1     141.151 154.657 192.915  0.00  0.00    +0.077 HD
ATOM    108  H   UNL     1     141.513 152.945 193.131  0.00  0.00    +0.077 HD
BRANCH 106 109
ATOM    109  O   UNL     1     143.115 154.226 193.112  0.00  0.00    -0.377 OA
ATOM    110  H   UNL     1     143.208 153.642 193.886  0.00  0.00    +0.211 HD
ENDBRANCH 106 109
ENDBRANCH 101 106
ENDBRANCH  98 101
ENDBRANCH  91  97
ENDBRANCH  89  91
BRANCH  89 111
ATOM    111  O   UNL     1     145.912 157.419 189.556  0.00  0.00    -0.460 OA
BRANCH 111 112
ATOM    112  C   UNL     1     146.710 157.953 190.519  0.00  0.00    +0.304 C 
ATOM    113  O   UNL     1     146.340 158.399 191.594  0.00  0.00    -0.251 OA
BRANCH 112 114
ATOM    114  C   UNL     1     148.137 157.923 190.065  0.00  0.00    +0.033 C 
ATOM    115  H   UNL     1     148.608 158.889 190.261  0.00  0.00    +0.034 HD
ATOM    116  H   UNL     1     148.182 157.677 189.001  0.00  0.00    +0.034 HD
ATOM    117  H   UNL     1     148.678 157.152 190.624  0.00  0.00    +0.034 HD
ENDBRANCH 112 114
ENDBRANCH 111 112
ENDBRANCH  89 111
ENDBRANCH  83  89
ENDBRANCH  81  83
ENDBRANCH  78  81
ENDBRANCH  75  78
ENDBRANCH  69  75
ENDBRANCH  67  69
BRANCH  67 118
ATOM    118  O   UNL     1     147.079 163.591 187.868  0.00  0.00    -0.379 OA
BRANCH 118 119
ATOM    119  C   UNL     1     147.395 164.726 188.670  0.00  0.00    +0.037 C 
ATOM    120  H   UNL     1     147.590 164.423 189.702  0.00  0.00    +0.052 HD
ATOM    121  H   UNL     1     148.258 165.266 188.270  0.00  0.00    +0.052 HD
ATOM    122  H   UNL     1     146.531 165.397 188.663  0.00  0.00    +0.052 HD
ENDBRANCH 118 119
ENDBRANCH  67 118
ENDBRANCH  64  67
ENDBRANCH  13  64
BRANCH   8 123
ATOM    123  O   UNL     1     149.389 165.690 184.155  0.00  0.00    -0.391 OA
ATOM    124  H   UNL     1     148.746 166.148 183.576  0.00  0.00    +0.210 HD
ENDBRANCH   8 123
BRANCH  15 125
ATOM    125  O   UNL     1     142.354 167.148 185.854  0.00  0.00    -0.379 OA
BRANCH 125 126
ATOM    126  C   UNL     1     141.184 167.951 185.978  0.00  0.00    +0.037 C 
ATOM    127  H   UNL     1     140.973 168.464 185.034  0.00  0.00    +0.052 HD
ATOM    128  H   UNL     1     140.342 167.294 186.212  0.00  0.00    +0.052 HD
ATOM    129  H   UNL     1     141.291 168.679 186.789  0.00  0.00    +0.052 HD
ENDBRANCH 125 126
ENDBRANCH  15 125
TORSDOF 27
ENDMDL
