REMARK  Name = 2a_conf3
REMARK  32 active torsions:
REMARK  status: ('A' for Active; 'I' for Inactive)
REMARK    1  A    between atoms: C_2  and  C_3
REMARK    2  A    between atoms: C_2  and  O_8
REMARK    3  A    between atoms: O_8  and  C_9
REMARK    4  A    between atoms: C_9  and  C_10
REMARK    5  A    between atoms: C_9  and  C_29
REMARK    6  A    between atoms: C_10  and  C_11
REMARK    7  A    between atoms: C_11  and  C_12
REMARK    8  A    between atoms: C_12  and  C_13
REMARK    9  A    between atoms: C_12  and  C_14
REMARK   10  A    between atoms: C_14  and  O_15
REMARK   11  A    between atoms: C_14  and  C_17
REMARK   12  A    between atoms: O_15  and  C_16
REMARK   13  A    between atoms: C_17  and  C_18
REMARK   14  A    between atoms: C_18  and  O_19
REMARK   15  A    between atoms: C_18  and  C_26
REMARK   16  A    between atoms: O_19  and  C_20
REMARK   17  A    between atoms: C_20  and  C_21
REMARK   18  A    between atoms: C_21  and  C_22
REMARK   19  A    between atoms: C_22  and  C_23
REMARK   20  A    between atoms: C_23  and  N_24
REMARK   21  A    between atoms: C_26  and  C_27
REMARK   22  A    between atoms: C_26  and  C_28
REMARK   23  A    between atoms: C_29  and  C_30
REMARK   24  A    between atoms: C_29  and  C_31
REMARK   25  A    between atoms: C_31  and  O_32
REMARK   26  A    between atoms: C_31  and  C_34
REMARK   27  A    between atoms: O_32  and  C_33
REMARK   28  A    between atoms: C_34  and  C_35
REMARK   29  A    between atoms: C_34  and  C_36
REMARK   30  A    between atoms: C_37  and  N_38
REMARK   31  A    between atoms: N_38  and  C_39
REMARK   32  A    between atoms: C_39  and  C_40
REMARK                            x       y       z     vdW  Elec       q    Type
REMARK                         _______ _______ _______ _____ _____    ______ ____
ROOT
ATOM      1  C   UNL     1      -0.140  -0.291  -2.188  0.00  0.00    +0.108 C 
ATOM      2  H   UNL     1       0.828  -0.785  -2.133  0.00  0.00    +0.074 HD
ENDROOT
BRANCH   1   3
ATOM      3  C   UNL     1      -0.491   0.137  -0.750  0.00  0.00    -0.015 C 
ATOM      4  H   UNL     1      -0.612  -0.777  -0.159  0.00  0.00    +0.030 HD
ATOM      5  H   UNL     1      -1.478   0.615  -0.715  0.00  0.00    +0.030 HD
BRANCH   3   6
ATOM      6  C   UNL     1       0.558   1.063  -0.124  0.00  0.00    -0.045 C 
ATOM      7  H   UNL     1       0.367   2.081  -0.489  0.00  0.00    +0.027 HD
ATOM      8  H   UNL     1       1.561   0.789  -0.473  0.00  0.00    +0.027 HD
BRANCH   6   9
ATOM      9  C   UNL     1       0.536   1.064   1.427  0.00  0.00    -0.017 C 
ATOM     10  H   UNL     1      -0.501   1.224   1.734  0.00  0.00    +0.032 HD
BRANCH   9  11
ATOM     11  C   UNL     1       1.358   2.263   1.923  0.00  0.00    -0.060 C 
ATOM     12  H   UNL     1       2.423   2.148   1.692  0.00  0.00    +0.023 HD
ATOM     13  H   UNL     1       1.014   3.189   1.449  0.00  0.00    +0.023 HD
ATOM     14  H   UNL     1       1.249   2.402   3.003  0.00  0.00    +0.023 HD
ENDBRANCH   9  11
BRANCH   9  15
ATOM     15  C   UNL     1       1.050  -0.288   2.003  0.00  0.00    +0.064 C 
ATOM     16  H   UNL     1       0.411  -1.097   1.633  0.00  0.00    +0.060 HD
BRANCH  15  17
ATOM     17  C   UNL     1       1.101  -0.405   3.543  0.00  0.00    +0.011 C 
ATOM     18  H   UNL     1       1.775  -1.238   3.779  0.00  0.00    +0.033 HD
ATOM     19  H   UNL     1       1.572   0.484   3.979  0.00  0.00    +0.033 HD
BRANCH  17  20
ATOM     20  C   UNL     1      -0.266  -0.666   4.206  0.00  0.00    +0.108 C 
ATOM     21  H   UNL     1      -0.707  -1.558   3.739  0.00  0.00    +0.074 HD
BRANCH  20  22
ATOM     22  C   UNL     1      -0.153  -0.901   5.739  0.00  0.00    -0.009 C 
ATOM     23  H   UNL     1       0.176   0.034   6.212  0.00  0.00    +0.033 HD
BRANCH  22  24
ATOM     24  C   UNL     1       0.846  -2.003   6.107  0.00  0.00    -0.059 C 
ATOM     25  H   UNL     1       0.636  -2.928   5.559  0.00  0.00    +0.023 HD
ATOM     26  H   UNL     1       0.805  -2.229   7.178  0.00  0.00    +0.023 HD
ATOM     27  H   UNL     1       1.875  -1.698   5.891  0.00  0.00    +0.023 HD
ENDBRANCH  22  24
BRANCH  22  28
ATOM     28  C   UNL     1      -1.518  -1.253   6.352  0.00  0.00    -0.059 C 
ATOM     29  H   UNL     1      -2.250  -0.455   6.200  0.00  0.00    +0.023 HD
ATOM     30  H   UNL     1      -1.923  -2.171   5.912  0.00  0.00    +0.023 HD
ATOM     31  H   UNL     1      -1.427  -1.406   7.432  0.00  0.00    +0.023 HD
ENDBRANCH  22  28
ENDBRANCH  20  22
BRANCH  20  32
ATOM     32  O   UNL     1      -1.091   0.501   3.987  0.00  0.00    -0.461 OA
BRANCH  32  33
ATOM     33  C   UNL     1      -2.365   0.300   3.561  0.00  0.00    +0.307 C 
ATOM     34  O   UNL     1      -2.874  -0.798   3.370  0.00  0.00    -0.251 OA
BRANCH  33  35
ATOM     35  C   UNL     1      -3.077   1.598   3.260  0.00  0.00    +0.046 C 
ATOM     36  H   UNL     1      -2.886   1.833   2.204  0.00  0.00    +0.038 HD
ATOM     37  H   UNL     1      -4.153   1.423   3.370  0.00  0.00    +0.038 HD
BRANCH  35  38
ATOM     38  C   UNL     1      -2.658   2.792   4.116  0.00  0.00    -0.031 C 
ATOM     39  H   UNL     1      -3.231   3.667   3.782  0.00  0.00    +0.028 HD
ATOM     40  H   UNL     1      -1.603   3.031   3.924  0.00  0.00    +0.028 HD
BRANCH  38  41
ATOM     41  C   UNL     1      -2.851   2.621   5.625  0.00  0.00    -0.006 C 
ATOM     42  H   UNL     1      -2.184   1.850   6.021  0.00  0.00    +0.042 HD
ATOM     43  H   UNL     1      -2.573   3.561   6.114  0.00  0.00    +0.042 HD
BRANCH  41  44
ATOM     44  N   UNL     1      -4.229   2.307   5.978  0.00  0.00    -0.330 NA
ATOM     45  H   UNL     1      -4.324   2.293   6.994  0.00  0.00    +0.118 HD
ATOM     46  H   UNL     1      -4.472   1.367   5.667  0.00  0.00    +0.118 HD
ENDBRANCH  41  44
ENDBRANCH  38  41
ENDBRANCH  35  38
ENDBRANCH  33  35
ENDBRANCH  32  33
ENDBRANCH  20  32
ENDBRANCH  17  20
ENDBRANCH  15  17
BRANCH  15  47
ATOM     47  O   UNL     1       2.390  -0.483   1.507  0.00  0.00    -0.379 OA
BRANCH  47  48
ATOM     48  C   UNL     1       2.641  -1.830   1.116  0.00  0.00    +0.037 C 
ATOM     49  H   UNL     1       2.452  -2.524   1.942  0.00  0.00    +0.052 HD
ATOM     50  H   UNL     1       3.692  -1.912   0.825  0.00  0.00    +0.052 HD
ATOM     51  H   UNL     1       2.020  -2.094   0.253  0.00  0.00    +0.052 HD
ENDBRANCH  47  48
ENDBRANCH  15  47
ENDBRANCH   9  15
ENDBRANCH   6   9
ENDBRANCH   3   6
ENDBRANCH   1   3
BRANCH   1  52
ATOM     52  C   UNL     1      -0.039   0.872  -3.208  0.00  0.00    +0.020 C 
ATOM     53  H   UNL     1       0.547   1.681  -2.762  0.00  0.00    +0.036 HD
BRANCH  52  54
ATOM     54  C   UNL     1      -1.431   1.461  -3.511  0.00  0.00    -0.057 C 
ATOM     55  H   UNL     1      -2.090   0.730  -3.993  0.00  0.00    +0.023 HD
ATOM     56  H   UNL     1      -1.345   2.325  -4.180  0.00  0.00    +0.023 HD
ATOM     57  H   UNL     1      -1.919   1.811  -2.597  0.00  0.00    +0.023 HD
ENDBRANCH  52  54
BRANCH  52  58
ATOM     58  C   UNL     1       0.653   0.487  -4.560  0.00  0.00    +0.070 C 
ATOM     59  H   UNL     1       0.484   1.342  -5.230  0.00  0.00    +0.061 HD
BRANCH  58  60
ATOM     60  C   UNL     1       2.208   0.279  -4.517  0.00  0.00    +0.002 C 
ATOM     61  H   UNL     1       2.528   0.277  -5.570  0.00  0.00    +0.037 HD
BRANCH  60  62
ATOM     62  C   UNL     1       2.927   1.475  -3.915  0.00  0.00    -0.065 C 
ATOM     63  C   UNL     1       3.517   1.537  -2.714  0.00  0.00    -0.005 C 
ATOM     64  H   UNL     1       2.913   2.352  -4.558  0.00  0.00    +0.059 HD
ATOM     65  H   UNL     1       3.494   0.665  -2.063  0.00  0.00    +0.078 HD
BRANCH  63  66
ATOM     66  N   UNL     1       4.152   2.647  -2.175  0.00  0.00    -0.281 N 
ATOM     67  C   UNL     1       4.604   2.624  -0.855  0.00  0.00    +0.206 C 
ATOM     68  O   UNL     1       5.156   3.548  -0.267  0.00  0.00    -0.279 OA
ATOM     69  H   UNL     1       4.409   1.663  -0.349  0.00  0.00    +0.126 HD
BRANCH  66  70
ATOM     70  C   UNL     1       4.355   3.885  -2.928  0.00  0.00    +0.016 C 
ATOM     71  H   UNL     1       4.593   3.652  -3.970  0.00  0.00    +0.047 HD
ATOM     72  H   UNL     1       5.232   4.409  -2.531  0.00  0.00    +0.047 HD
BRANCH  70  73
ATOM     73  C   UNL     1       3.157   4.819  -2.834  0.00  0.00    -0.049 C 
ATOM     74  H   UNL     1       2.251   4.351  -3.236  0.00  0.00    +0.024 HD
ATOM     75  H   UNL     1       2.954   5.096  -1.794  0.00  0.00    +0.024 HD
ATOM     76  H   UNL     1       3.347   5.736  -3.402  0.00  0.00    +0.024 HD
ENDBRANCH  70  73
ENDBRANCH  66  70
ENDBRANCH  63  66
ENDBRANCH  60  62
BRANCH  60  77
ATOM     77  C   UNL     1       2.679  -1.089  -4.009  0.00  0.00    -0.057 C 
ATOM     78  H   UNL     1       2.618  -1.200  -2.925  0.00  0.00    +0.024 HD
ATOM     79  H   UNL     1       3.728  -1.247  -4.280  0.00  0.00    +0.024 HD
ATOM     80  H   UNL     1       2.107  -1.901  -4.464  0.00  0.00    +0.024 HD
ENDBRANCH  60  77
ENDBRANCH  58  60
BRANCH  58  81
ATOM     81  O   UNL     1      -0.026  -0.640  -5.132  0.00  0.00    -0.379 OA
BRANCH  81  82
ATOM     82  C   UNL     1       0.156  -0.783  -6.535  0.00  0.00    +0.037 C 
ATOM     83  H   UNL     1      -0.517  -1.570  -6.888  0.00  0.00    +0.052 HD
ATOM     84  H   UNL     1      -0.094   0.146  -7.056  0.00  0.00    +0.052 HD
ATOM     85  H   UNL     1       1.179  -1.089  -6.765  0.00  0.00    +0.052 HD
ENDBRANCH  81  82
ENDBRANCH  58  81
ENDBRANCH  52  58
ENDBRANCH   1  52
BRANCH   1  86
ATOM     86  O   UNL     1      -1.159  -1.225  -2.602  0.00  0.00    -0.459 OA
BRANCH  86  88
ATOM     87  O   UNL     1       0.178  -2.994  -2.002  0.00  0.00    -0.248 OA
ATOM     88  C   UNL     1      -0.869  -2.552  -2.459  0.00  0.00    +0.337 C 
BRANCH  88  89
ATOM     89  C   UNL     1      -2.063  -3.398  -2.924  0.00  0.00    +0.155 C 
ATOM     90  O   UNL     1      -1.838  -4.803  -2.717  0.00  0.00    -0.365 OA
ATOM     91  C   UNL     1      -1.578  -5.422  -3.984  0.00  0.00    +0.049 C 
ATOM     92  C   UNL     1      -1.447  -4.311  -5.001  0.00  0.00    -0.027 C 
ATOM     93  C   UNL     1      -2.332  -3.240  -4.411  0.00  0.00    -0.014 C 
ATOM     94  H   UNL     1      -2.927  -3.103  -2.318  0.00  0.00    +0.071 HD
ATOM     95  H   UNL     1      -0.679  -6.041  -3.917  0.00  0.00    +0.056 HD
ATOM     96  H   UNL     1      -2.432  -6.069  -4.215  0.00  0.00    +0.056 HD
ATOM     97  H   UNL     1      -0.409  -3.959  -5.043  0.00  0.00    +0.029 HD
ATOM     98  H   UNL     1      -1.739  -4.620  -6.008  0.00  0.00    +0.029 HD
ATOM     99  H   UNL     1      -2.124  -2.245  -4.809  0.00  0.00    +0.030 HD
ATOM    100  H   UNL     1      -3.380  -3.481  -4.626  0.00  0.00    +0.030 HD
ENDBRANCH  88  89
ENDBRANCH  86  88
ENDBRANCH   1  86
TORSDOF 32
