REMARK  Name = 2c_conf2
REMARK  32 active torsions:
REMARK  status: ('A' for Active; 'I' for Inactive)
REMARK    1  A    between atoms: N_2  and  C_3
REMARK    2  A    between atoms: N_2  and  C_5
REMARK    3  A    between atoms: C_3  and  C_4
REMARK    4  A    between atoms: C_6  and  C_7
REMARK    5  A    between atoms: C_7  and  C_8
REMARK    6  A    between atoms: C_7  and  C_9
REMARK    7  A    between atoms: C_9  and  O_10
REMARK    8  A    between atoms: C_9  and  C_12
REMARK    9  A    between atoms: O_10  and  C_11
REMARK   10  A    between atoms: C_12  and  C_13
REMARK   11  A    between atoms: C_12  and  C_14
REMARK   12  A    between atoms: C_14  and  O_15
REMARK   13  A    between atoms: C_14  and  C_21
REMARK   14  A    between atoms: O_15  and  C_16
REMARK   15  A    between atoms: C_16  and  C_17
REMARK   16  A    between atoms: C_17  and  C_18
REMARK   17  A    between atoms: C_17  and  C_19
REMARK   18  A    between atoms: C_21  and  C_22
REMARK   19  A    between atoms: C_22  and  C_23
REMARK   20  A    between atoms: C_23  and  C_24
REMARK   21  A    between atoms: C_23  and  C_25
REMARK   22  A    between atoms: C_25  and  O_26
REMARK   23  A    between atoms: C_25  and  C_28
REMARK   24  A    between atoms: O_26  and  C_27
REMARK   25  A    between atoms: C_28  and  C_29
REMARK   26  A    between atoms: C_29  and  O_30
REMARK   27  A    between atoms: C_29  and  C_35
REMARK   28  A    between atoms: O_30  and  C_31
REMARK   29  A    between atoms: C_31  and  C_32
REMARK   30  A    between atoms: C_32  and  C_33
REMARK   31  A    between atoms: C_35  and  C_36
REMARK   32  A    between atoms: C_35  and  C_37
REMARK                            x       y       z     vdW  Elec       q    Type
REMARK                         _______ _______ _______ _____ _____    ______ ____
ROOT
ATOM      1  C   UNL     1       1.799   1.929  -0.918  0.00  0.00    +0.108 C 
ATOM      2  H   UNL     1       1.927   2.386  -1.911  0.00  0.00    +0.074 HD
ENDROOT
BRANCH   1   3
ATOM      3  C   UNL     1       0.584   0.990  -1.000  0.00  0.00    -0.015 C 
ATOM      4  H   UNL     1       0.171   0.835  -0.002  0.00  0.00    +0.030 HD
ATOM      5  H   UNL     1       0.851   0.009  -1.404  0.00  0.00    +0.030 HD
BRANCH   3   6
ATOM      6  C   UNL     1      -0.512   1.584  -1.905  0.00  0.00    -0.045 C 
ATOM      7  H   UNL     1      -0.569   2.674  -1.780  0.00  0.00    +0.027 HD
ATOM      8  H   UNL     1      -0.207   1.408  -2.946  0.00  0.00    +0.027 HD
BRANCH   6   9
ATOM      9  C   UNL     1      -1.906   0.950  -1.659  0.00  0.00    -0.017 C 
ATOM     10  H   UNL     1      -1.764  -0.122  -1.496  0.00  0.00    +0.032 HD
BRANCH   9  11
ATOM     11  C   UNL     1      -2.750   1.123  -2.931  0.00  0.00    -0.060 C 
ATOM     12  H   UNL     1      -2.318   0.541  -3.751  0.00  0.00    +0.023 HD
ATOM     13  H   UNL     1      -2.791   2.169  -3.253  0.00  0.00    +0.023 HD
ATOM     14  H   UNL     1      -3.776   0.773  -2.798  0.00  0.00    +0.023 HD
ENDBRANCH   9  11
BRANCH   9  15
ATOM     15  C   UNL     1      -2.588   1.585  -0.411  0.00  0.00    +0.064 C 
ATOM     16  H   UNL     1      -1.864   1.601   0.406  0.00  0.00    +0.060 HD
BRANCH  15  17
ATOM     17  C   UNL     1      -3.872   0.856   0.046  0.00  0.00    +0.011 C 
ATOM     18  H   UNL     1      -4.620   0.947  -0.749  0.00  0.00    +0.033 HD
ATOM     19  H   UNL     1      -4.336   1.397   0.877  0.00  0.00    +0.033 HD
BRANCH  17  20
ATOM     20  C   UNL     1      -3.726  -0.617   0.472  0.00  0.00    +0.108 C 
ATOM     21  H   UNL     1      -3.009  -1.157  -0.155  0.00  0.00    +0.074 HD
BRANCH  20  22
ATOM     22  C   UNL     1      -3.343  -0.825   1.965  0.00  0.00    -0.009 C 
ATOM     23  H   UNL     1      -4.158  -0.432   2.589  0.00  0.00    +0.033 HD
BRANCH  22  24
ATOM     24  C   UNL     1      -2.049  -0.132   2.385  0.00  0.00    -0.059 C 
ATOM     25  H   UNL     1      -1.228  -0.371   1.706  0.00  0.00    +0.023 HD
ATOM     26  H   UNL     1      -2.183   0.951   2.419  0.00  0.00    +0.023 HD
ATOM     27  H   UNL     1      -1.750  -0.444   3.391  0.00  0.00    +0.023 HD
ENDBRANCH  22  24
BRANCH  22  28
ATOM     28  C   UNL     1      -3.241  -2.326   2.283  0.00  0.00    -0.059 C 
ATOM     29  H   UNL     1      -2.442  -2.795   1.701  0.00  0.00    +0.023 HD
ATOM     30  H   UNL     1      -3.026  -2.484   3.343  0.00  0.00    +0.023 HD
ATOM     31  H   UNL     1      -4.174  -2.849   2.058  0.00  0.00    +0.023 HD
ENDBRANCH  22  28
ENDBRANCH  20  22
BRANCH  20  32
ATOM     32  O   UNL     1      -5.039  -1.228   0.327  0.00  0.00    -0.461 OA
BRANCH  32  33
ATOM     33  C   UNL     1      -5.355  -1.715  -0.904  0.00  0.00    +0.307 C 
ATOM     34  O   UNL     1      -4.636  -1.675  -1.892  0.00  0.00    -0.251 OA
BRANCH  33  35
ATOM     35  C   UNL     1      -6.742  -2.310  -0.890  0.00  0.00    +0.042 C 
ATOM     36  H   UNL     1      -6.883  -2.877  -1.815  0.00  0.00    +0.037 HD
ATOM     37  H   UNL     1      -6.817  -3.022  -0.060  0.00  0.00    +0.037 HD
BRANCH  35  38
ATOM     38  C   UNL     1      -7.801  -1.231  -0.783  0.00  0.00    -0.055 C 
ATOM     39  H   UNL     1      -8.803  -1.672  -0.812  0.00  0.00    +0.023 HD
ATOM     40  H   UNL     1      -7.710  -0.671   0.154  0.00  0.00    +0.023 HD
ATOM     41  H   UNL     1      -7.715  -0.511  -1.609  0.00  0.00    +0.023 HD
ENDBRANCH  35  38
ENDBRANCH  33  35
ENDBRANCH  32  33
ENDBRANCH  20  32
ENDBRANCH  17  20
ENDBRANCH  15  17
BRANCH  15  42
ATOM     42  O   UNL     1      -2.897   2.951  -0.754  0.00  0.00    -0.379 OA
BRANCH  42  43
ATOM     43  C   UNL     1      -3.175   3.791   0.352  0.00  0.00    +0.037 C 
ATOM     44  H   UNL     1      -3.217   4.825  -0.007  0.00  0.00    +0.052 HD
ATOM     45  H   UNL     1      -4.147   3.555   0.797  0.00  0.00    +0.052 HD
ATOM     46  H   UNL     1      -2.382   3.719   1.104  0.00  0.00    +0.052 HD
ENDBRANCH  42  43
ENDBRANCH  15  42
ENDBRANCH   9  15
ENDBRANCH   6   9
ENDBRANCH   3   6
ENDBRANCH   1   3
BRANCH   1  47
ATOM     47  C   UNL     1       3.159   1.286  -0.529  0.00  0.00    +0.020 C 
ATOM     48  H   UNL     1       3.900   2.068  -0.752  0.00  0.00    +0.036 HD
BRANCH  47  49
ATOM     49  C   UNL     1       3.562   0.151  -1.475  0.00  0.00    -0.057 C 
ATOM     50  H   UNL     1       2.889  -0.706  -1.415  0.00  0.00    +0.023 HD
ATOM     51  H   UNL     1       4.578  -0.205  -1.263  0.00  0.00    +0.023 HD
ATOM     52  H   UNL     1       3.554   0.498  -2.515  0.00  0.00    +0.023 HD
ENDBRANCH  47  49
BRANCH  47  53
ATOM     53  C   UNL     1       3.385   0.989   0.985  0.00  0.00    +0.070 C 
ATOM     54  H   UNL     1       3.251   1.931   1.529  0.00  0.00    +0.061 HD
BRANCH  53  55
ATOM     55  C   UNL     1       2.443  -0.039   1.678  0.00  0.00    +0.002 C 
ATOM     56  H   UNL     1       1.413   0.309   1.573  0.00  0.00    +0.037 HD
BRANCH  55  58
ATOM     57  C   UNL     1       1.523  -2.177   0.729  0.00  0.00    -0.005 C 
ATOM     58  C   UNL     1       2.569  -1.452   1.150  0.00  0.00    -0.065 C 
ATOM     59  H   UNL     1       0.525  -1.740   0.768  0.00  0.00    +0.078 HD
ATOM     60  H   UNL     1       3.580  -1.851   1.130  0.00  0.00    +0.059 HD
BRANCH  57  62
ATOM     61  C   UNL     1       0.381  -4.064  -0.217  0.00  0.00    +0.206 C 
ATOM     62  N   UNL     1       1.562  -3.469   0.224  0.00  0.00    -0.281 N 
ATOM     63  O   UNL     1      -0.740  -3.570  -0.191  0.00  0.00    -0.279 OA
ATOM     64  H   UNL     1       0.537  -5.078  -0.619  0.00  0.00    +0.126 HD
BRANCH  62  65
ATOM     65  C   UNL     1       2.804  -4.229   0.106  0.00  0.00    +0.016 C 
ATOM     66  H   UNL     1       3.435  -4.049   0.981  0.00  0.00    +0.047 HD
ATOM     67  H   UNL     1       2.563  -5.300   0.120  0.00  0.00    +0.047 HD
BRANCH  65  68
ATOM     68  C   UNL     1       3.551  -3.921  -1.183  0.00  0.00    -0.049 C 
ATOM     69  H   UNL     1       4.430  -4.567  -1.275  0.00  0.00    +0.024 HD
ATOM     70  H   UNL     1       2.911  -4.074  -2.052  0.00  0.00    +0.024 HD
ATOM     71  H   UNL     1       3.902  -2.883  -1.204  0.00  0.00    +0.024 HD
ENDBRANCH  65  68
ENDBRANCH  62  65
ENDBRANCH  57  62
ENDBRANCH  55  58
BRANCH  55  72
ATOM     72  C   UNL     1       2.725  -0.071   3.189  0.00  0.00    -0.057 C 
ATOM     73  H   UNL     1       3.731  -0.441   3.414  0.00  0.00    +0.024 HD
ATOM     74  H   UNL     1       2.634   0.932   3.621  0.00  0.00    +0.024 HD
ATOM     75  H   UNL     1       2.009  -0.719   3.708  0.00  0.00    +0.024 HD
ENDBRANCH  55  72
ENDBRANCH  53  55
BRANCH  53  76
ATOM     76  O   UNL     1       4.742   0.545   1.207  0.00  0.00    -0.379 OA
BRANCH  76  77
ATOM     77  C   UNL     1       5.681   1.606   1.336  0.00  0.00    +0.037 C 
ATOM     78  H   UNL     1       5.422   2.245   2.187  0.00  0.00    +0.052 HD
ATOM     79  H   UNL     1       6.664   1.167   1.521  0.00  0.00    +0.052 HD
ATOM     80  H   UNL     1       5.735   2.204   0.420  0.00  0.00    +0.052 HD
ENDBRANCH  76  77
ENDBRANCH  53  76
ENDBRANCH  47  53
ENDBRANCH   1  47
BRANCH   1  81
ATOM     81  O   UNL     1       1.440   2.957   0.032  0.00  0.00    -0.461 OA
BRANCH  81  82
ATOM     82  C   UNL     1       2.019   4.178  -0.113  0.00  0.00    +0.310 C 
ATOM     83  O   UNL     1       2.857   4.454  -0.960  0.00  0.00    -0.251 OA
BRANCH  82  84
ATOM     84  C   UNL     1       1.490   5.179   0.901  0.00  0.00    +0.051 C 
ATOM     85  H   UNL     1       2.361   5.747   1.258  0.00  0.00    +0.041 HD
BRANCH  84  86
ATOM     86  C   UNL     1       0.840   4.529   2.122  0.00  0.00    -0.053 C 
ATOM     87  H   UNL     1      -0.065   3.969   1.854  0.00  0.00    +0.024 HD
ATOM     88  H   UNL     1       0.558   5.287   2.862  0.00  0.00    +0.024 HD
ATOM     89  H   UNL     1       1.532   3.830   2.604  0.00  0.00    +0.024 HD
ENDBRANCH  84  86
BRANCH  84  90
ATOM     90  C   UNL     1       0.518   6.133   0.210  0.00  0.00    -0.053 C 
ATOM     91  H   UNL     1      -0.342   5.596  -0.210  0.00  0.00    +0.024 HD
ATOM     92  H   UNL     1       1.012   6.659  -0.616  0.00  0.00    +0.024 HD
ATOM     93  H   UNL     1       0.151   6.891   0.914  0.00  0.00    +0.024 HD
ENDBRANCH  84  90
ENDBRANCH  82  84
ENDBRANCH  81  82
ENDBRANCH   1  81
TORSDOF 32
