REMARK  Name = 2c_conf3
REMARK  32 active torsions:
REMARK  status: ('A' for Active; 'I' for Inactive)
REMARK    1  A    between atoms: N_2  and  C_3
REMARK    2  A    between atoms: N_2  and  C_5
REMARK    3  A    between atoms: C_3  and  C_4
REMARK    4  A    between atoms: C_6  and  C_7
REMARK    5  A    between atoms: C_7  and  C_8
REMARK    6  A    between atoms: C_7  and  C_9
REMARK    7  A    between atoms: C_9  and  O_10
REMARK    8  A    between atoms: C_9  and  C_12
REMARK    9  A    between atoms: O_10  and  C_11
REMARK   10  A    between atoms: C_12  and  C_13
REMARK   11  A    between atoms: C_12  and  C_14
REMARK   12  A    between atoms: C_14  and  O_15
REMARK   13  A    between atoms: C_14  and  C_21
REMARK   14  A    between atoms: O_15  and  C_16
REMARK   15  A    between atoms: C_16  and  C_17
REMARK   16  A    between atoms: C_17  and  C_18
REMARK   17  A    between atoms: C_17  and  C_19
REMARK   18  A    between atoms: C_21  and  C_22
REMARK   19  A    between atoms: C_22  and  C_23
REMARK   20  A    between atoms: C_23  and  C_24
REMARK   21  A    between atoms: C_23  and  C_25
REMARK   22  A    between atoms: C_25  and  O_26
REMARK   23  A    between atoms: C_25  and  C_28
REMARK   24  A    between atoms: O_26  and  C_27
REMARK   25  A    between atoms: C_28  and  C_29
REMARK   26  A    between atoms: C_29  and  O_30
REMARK   27  A    between atoms: C_29  and  C_35
REMARK   28  A    between atoms: O_30  and  C_31
REMARK   29  A    between atoms: C_31  and  C_32
REMARK   30  A    between atoms: C_32  and  C_33
REMARK   31  A    between atoms: C_35  and  C_36
REMARK   32  A    between atoms: C_35  and  C_37
REMARK                            x       y       z     vdW  Elec       q    Type
REMARK                         _______ _______ _______ _____ _____    ______ ____
ROOT
ATOM      1  C   UNL     1       2.698   0.577   1.220  0.00  0.00    +0.108 C 
ATOM      2  H   UNL     1       2.545  -0.142   0.412  0.00  0.00    +0.074 HD
ENDROOT
BRANCH   1   3
ATOM      3  C   UNL     1       1.317   1.090   1.691  0.00  0.00    -0.015 C 
ATOM      4  H   UNL     1       0.619   0.250   1.758  0.00  0.00    +0.030 HD
ATOM      5  H   UNL     1       1.430   1.502   2.701  0.00  0.00    +0.030 HD
BRANCH   3   6
ATOM      6  C   UNL     1       0.728   2.189   0.792  0.00  0.00    -0.045 C 
ATOM      7  H   UNL     1       1.359   3.080   0.905  0.00  0.00    +0.027 HD
ATOM      8  H   UNL     1       0.830   1.888  -0.253  0.00  0.00    +0.027 HD
BRANCH   6   9
ATOM      9  C   UNL     1      -0.722   2.639   1.101  0.00  0.00    -0.017 C 
ATOM     10  H   UNL     1      -0.762   3.716   0.875  0.00  0.00    +0.032 HD
BRANCH   9  11
ATOM     11  C   UNL     1      -1.062   2.540   2.593  0.00  0.00    -0.060 C 
ATOM     12  H   UNL     1      -2.002   3.054   2.820  0.00  0.00    +0.023 HD
ATOM     13  H   UNL     1      -0.289   3.021   3.201  0.00  0.00    +0.023 HD
ATOM     14  H   UNL     1      -1.159   1.499   2.917  0.00  0.00    +0.023 HD
ENDBRANCH   9  11
BRANCH   9  15
ATOM     15  C   UNL     1      -1.802   1.973   0.188  0.00  0.00    +0.064 C 
ATOM     16  H   UNL     1      -1.755   0.880   0.281  0.00  0.00    +0.060 HD
BRANCH  15  17
ATOM     17  C   UNL     1      -1.595   2.381  -1.291  0.00  0.00    +0.011 C 
ATOM     18  H   UNL     1      -1.399   3.458  -1.314  0.00  0.00    +0.033 HD
ATOM     19  H   UNL     1      -0.705   1.875  -1.680  0.00  0.00    +0.033 HD
BRANCH  17  20
ATOM     20  C   UNL     1      -2.774   2.084  -2.242  0.00  0.00    +0.108 C 
ATOM     21  H   UNL     1      -3.658   2.632  -1.893  0.00  0.00    +0.074 HD
BRANCH  20  22
ATOM     22  C   UNL     1      -2.448   2.518  -3.703  0.00  0.00    -0.009 C 
ATOM     23  H   UNL     1      -1.558   1.968  -4.035  0.00  0.00    +0.033 HD
BRANCH  22  24
ATOM     24  C   UNL     1      -2.154   4.018  -3.820  0.00  0.00    -0.059 C 
ATOM     25  H   UNL     1      -2.034   4.314  -4.867  0.00  0.00    +0.023 HD
ATOM     26  H   UNL     1      -2.966   4.614  -3.391  0.00  0.00    +0.023 HD
ATOM     27  H   UNL     1      -1.223   4.287  -3.312  0.00  0.00    +0.023 HD
ENDBRANCH  22  24
BRANCH  22  28
ATOM     28  C   UNL     1      -3.572   2.162  -4.683  0.00  0.00    -0.059 C 
ATOM     29  H   UNL     1      -4.520   2.622  -4.382  0.00  0.00    +0.023 HD
ATOM     30  H   UNL     1      -3.714   1.079  -4.751  0.00  0.00    +0.023 HD
ATOM     31  H   UNL     1      -3.334   2.513  -5.693  0.00  0.00    +0.023 HD
ENDBRANCH  22  28
ENDBRANCH  20  22
BRANCH  20  32
ATOM     32  O   UNL     1      -2.999   0.657  -2.221  0.00  0.00    -0.461 OA
BRANCH  32  33
ATOM     33  C   UNL     1      -4.297   0.235  -2.227  0.00  0.00    +0.307 C 
ATOM     34  O   UNL     1      -5.281   0.960  -2.188  0.00  0.00    -0.251 OA
BRANCH  33  35
ATOM     35  C   UNL     1      -4.340  -1.271  -2.273  0.00  0.00    +0.042 C 
ATOM     36  H   UNL     1      -3.642  -1.618  -3.041  0.00  0.00    +0.037 HD
ATOM     37  H   UNL     1      -4.026  -1.649  -1.296  0.00  0.00    +0.037 HD
BRANCH  35  38
ATOM     38  C   UNL     1      -5.729  -1.791  -2.600  0.00  0.00    -0.055 C 
ATOM     39  H   UNL     1      -5.724  -2.885  -2.648  0.00  0.00    +0.023 HD
ATOM     40  H   UNL     1      -6.075  -1.401  -3.564  0.00  0.00    +0.023 HD
ATOM     41  H   UNL     1      -6.452  -1.484  -1.836  0.00  0.00    +0.023 HD
ENDBRANCH  35  38
ENDBRANCH  33  35
ENDBRANCH  32  33
ENDBRANCH  20  32
ENDBRANCH  17  20
ENDBRANCH  15  17
BRANCH  15  42
ATOM     42  O   UNL     1      -3.087   2.471   0.586  0.00  0.00    -0.379 OA
BRANCH  42  43
ATOM     43  C   UNL     1      -3.917   1.486   1.185  0.00  0.00    +0.037 C 
ATOM     44  H   UNL     1      -4.880   1.946   1.425  0.00  0.00    +0.052 HD
ATOM     45  H   UNL     1      -4.088   0.651   0.502  0.00  0.00    +0.052 HD
ATOM     46  H   UNL     1      -3.471   1.114   2.111  0.00  0.00    +0.052 HD
ENDBRANCH  42  43
ENDBRANCH  15  42
ENDBRANCH   9  15
ENDBRANCH   6   9
ENDBRANCH   3   6
ENDBRANCH   1   3
BRANCH   1  47
ATOM     47  C   UNL     1       3.516  -0.086   2.359  0.00  0.00    +0.020 C 
ATOM     48  H   UNL     1       3.670   0.703   3.109  0.00  0.00    +0.036 HD
BRANCH  47  49
ATOM     49  C   UNL     1       4.946  -0.411   1.895  0.00  0.00    -0.057 C 
ATOM     50  H   UNL     1       5.487  -1.016   2.630  0.00  0.00    +0.023 HD
ATOM     51  H   UNL     1       4.953  -0.929   0.932  0.00  0.00    +0.023 HD
ATOM     52  H   UNL     1       5.524   0.511   1.765  0.00  0.00    +0.023 HD
ENDBRANCH  47  49
BRANCH  47  53
ATOM     53  C   UNL     1       2.819  -1.258   3.107  0.00  0.00    +0.070 C 
ATOM     54  H   UNL     1       1.841  -0.903   3.458  0.00  0.00    +0.061 HD
BRANCH  53  55
ATOM     55  C   UNL     1       2.556  -2.615   2.389  0.00  0.00    +0.002 C 
ATOM     56  H   UNL     1       2.174  -3.280   3.181  0.00  0.00    +0.037 HD
BRANCH  55  58
ATOM     57  C   UNL     1       0.236  -2.949   1.515  0.00  0.00    -0.005 C 
ATOM     58  C   UNL     1       1.501  -2.557   1.304  0.00  0.00    -0.065 C 
ATOM     59  H   UNL     1      -0.039  -3.297   2.511  0.00  0.00    +0.078 HD
ATOM     60  H   UNL     1       1.842  -2.222   0.331  0.00  0.00    +0.059 HD
BRANCH  57  62
ATOM     61  C   UNL     1      -0.688  -2.644  -0.750  0.00  0.00    +0.206 C 
ATOM     62  N   UNL     1      -0.799  -2.988   0.593  0.00  0.00    -0.281 N 
ATOM     63  O   UNL     1      -1.583  -2.729  -1.585  0.00  0.00    -0.279 OA
ATOM     64  H   UNL     1       0.306  -2.274  -1.039  0.00  0.00    +0.126 HD
BRANCH  62  65
ATOM     65  C   UNL     1      -2.100  -3.491   1.051  0.00  0.00    +0.016 C 
ATOM     66  H   UNL     1      -2.277  -3.151   2.079  0.00  0.00    +0.047 HD
ATOM     67  H   UNL     1      -2.896  -3.055   0.435  0.00  0.00    +0.047 HD
BRANCH  65  68
ATOM     68  C   UNL     1      -2.185  -5.009   0.970  0.00  0.00    -0.049 C 
ATOM     69  H   UNL     1      -3.170  -5.352   1.304  0.00  0.00    +0.024 HD
ATOM     70  H   UNL     1      -1.425  -5.483   1.602  0.00  0.00    +0.024 HD
ATOM     71  H   UNL     1      -2.032  -5.357  -0.056  0.00  0.00    +0.024 HD
ENDBRANCH  65  68
ENDBRANCH  62  65
ENDBRANCH  57  62
ENDBRANCH  55  58
BRANCH  55  72
ATOM     72  C   UNL     1       3.796  -3.348   1.868  0.00  0.00    -0.057 C 
ATOM     73  H   UNL     1       3.554  -4.396   1.651  0.00  0.00    +0.024 HD
ATOM     74  H   UNL     1       4.605  -3.351   2.605  0.00  0.00    +0.024 HD
ATOM     75  H   UNL     1       4.172  -2.918   0.935  0.00  0.00    +0.024 HD
ENDBRANCH  55  72
ENDBRANCH  53  55
BRANCH  53  76
ATOM     76  O   UNL     1       3.602  -1.585   4.280  0.00  0.00    -0.379 OA
BRANCH  76  77
ATOM     77  C   UNL     1       3.262  -0.817   5.429  0.00  0.00    +0.037 C 
ATOM     78  H   UNL     1       2.217  -0.982   5.706  0.00  0.00    +0.052 HD
ATOM     79  H   UNL     1       3.894  -1.145   6.258  0.00  0.00    +0.052 HD
ATOM     80  H   UNL     1       3.443   0.247   5.260  0.00  0.00    +0.052 HD
ENDBRANCH  76  77
ENDBRANCH  53  76
ENDBRANCH  47  53
ENDBRANCH   1  47
BRANCH   1  81
ATOM     81  O   UNL     1       3.471   1.708   0.746  0.00  0.00    -0.461 OA
BRANCH  81  82
ATOM     82  C   UNL     1       3.788   1.733  -0.579  0.00  0.00    +0.310 C 
ATOM     83  O   UNL     1       3.457   0.887  -1.400  0.00  0.00    -0.251 OA
BRANCH  82  84
ATOM     84  C   UNL     1       4.605   2.961  -0.927  0.00  0.00    +0.051 C 
ATOM     85  H   UNL     1       4.837   2.892  -1.998  0.00  0.00    +0.041 HD
BRANCH  84  86
ATOM     86  C   UNL     1       3.799   4.234  -0.695  0.00  0.00    -0.053 C 
ATOM     87  H   UNL     1       2.839   4.187  -1.219  0.00  0.00    +0.024 HD
ATOM     88  H   UNL     1       4.346   5.109  -1.061  0.00  0.00    +0.024 HD
ATOM     89  H   UNL     1       3.588   4.387   0.369  0.00  0.00    +0.024 HD
ENDBRANCH  84  86
BRANCH  84  90
ATOM     90  C   UNL     1       5.922   2.971  -0.161  0.00  0.00    -0.053 C 
ATOM     91  H   UNL     1       6.469   2.034  -0.314  0.00  0.00    +0.024 HD
ATOM     92  H   UNL     1       5.763   3.087   0.916  0.00  0.00    +0.024 HD
ATOM     93  H   UNL     1       6.560   3.795  -0.497  0.00  0.00    +0.024 HD
ENDBRANCH  84  90
ENDBRANCH  82  84
ENDBRANCH  81  82
ENDBRANCH   1  81
TORSDOF 32
