REMARK  Name = 2c_conf1
REMARK  32 active torsions:
REMARK  status: ('A' for Active; 'I' for Inactive)
REMARK    1  A    between atoms: N_2  and  C_3
REMARK    2  A    between atoms: N_2  and  C_5
REMARK    3  A    between atoms: C_3  and  C_4
REMARK    4  A    between atoms: C_6  and  C_7
REMARK    5  A    between atoms: C_7  and  C_8
REMARK    6  A    between atoms: C_7  and  C_9
REMARK    7  A    between atoms: C_9  and  O_10
REMARK    8  A    between atoms: C_9  and  C_12
REMARK    9  A    between atoms: O_10  and  C_11
REMARK   10  A    between atoms: C_12  and  C_13
REMARK   11  A    between atoms: C_12  and  C_14
REMARK   12  A    between atoms: C_14  and  O_15
REMARK   13  A    between atoms: C_14  and  C_21
REMARK   14  A    between atoms: O_15  and  C_16
REMARK   15  A    between atoms: C_16  and  C_17
REMARK   16  A    between atoms: C_17  and  C_18
REMARK   17  A    between atoms: C_17  and  C_19
REMARK   18  A    between atoms: C_21  and  C_22
REMARK   19  A    between atoms: C_22  and  C_23
REMARK   20  A    between atoms: C_23  and  C_24
REMARK   21  A    between atoms: C_23  and  C_25
REMARK   22  A    between atoms: C_25  and  O_26
REMARK   23  A    between atoms: C_25  and  C_28
REMARK   24  A    between atoms: O_26  and  C_27
REMARK   25  A    between atoms: C_28  and  C_29
REMARK   26  A    between atoms: C_29  and  O_30
REMARK   27  A    between atoms: C_29  and  C_35
REMARK   28  A    between atoms: O_30  and  C_31
REMARK   29  A    between atoms: C_31  and  C_32
REMARK   30  A    between atoms: C_32  and  C_33
REMARK   31  A    between atoms: C_35  and  C_36
REMARK   32  A    between atoms: C_35  and  C_37
REMARK                            x       y       z     vdW  Elec       q    Type
REMARK                         _______ _______ _______ _____ _____    ______ ____
ROOT
ATOM      1  C   UNL     1       1.887   0.612   0.083  0.00  0.00    +0.108 C 
ATOM      2  H   UNL     1       0.993   0.229  -0.407  0.00  0.00    +0.074 HD
ENDROOT
BRANCH   1   3
ATOM      3  C   UNL     1       1.534   0.964   1.546  0.00  0.00    -0.015 C 
ATOM      4  H   UNL     1       2.362   1.539   1.980  0.00  0.00    +0.030 HD
ATOM      5  H   UNL     1       1.445   0.046   2.134  0.00  0.00    +0.030 HD
BRANCH   3   6
ATOM      6  C   UNL     1       0.274   1.818   1.748  0.00  0.00    -0.045 C 
ATOM      7  H   UNL     1       0.209   2.076   2.812  0.00  0.00    +0.027 HD
ATOM      8  H   UNL     1       0.411   2.772   1.224  0.00  0.00    +0.027 HD
BRANCH   6   9
ATOM      9  C   UNL     1      -1.064   1.183   1.310  0.00  0.00    -0.017 C 
ATOM     10  H   UNL     1      -1.008   0.970   0.238  0.00  0.00    +0.032 HD
BRANCH   9  11
ATOM     11  C   UNL     1      -2.171   2.236   1.490  0.00  0.00    -0.060 C 
ATOM     12  H   UNL     1      -1.924   3.153   0.943  0.00  0.00    +0.023 HD
ATOM     13  H   UNL     1      -2.301   2.496   2.548  0.00  0.00    +0.023 HD
ATOM     14  H   UNL     1      -3.132   1.884   1.100  0.00  0.00    +0.023 HD
ENDBRANCH   9  11
BRANCH   9  15
ATOM     15  C   UNL     1      -1.386  -0.157   2.035  0.00  0.00    +0.064 C 
ATOM     16  H   UNL     1      -0.536  -0.838   1.901  0.00  0.00    +0.060 HD
BRANCH  15  17
ATOM     17  C   UNL     1      -2.626  -0.839   1.424  0.00  0.00    +0.011 C 
ATOM     18  H   UNL     1      -2.523  -0.832   0.331  0.00  0.00    +0.033 HD
ATOM     19  H   UNL     1      -3.526  -0.254   1.646  0.00  0.00    +0.033 HD
BRANCH  17  20
ATOM     20  C   UNL     1      -2.813  -2.293   1.918  0.00  0.00    +0.108 C 
ATOM     21  H   UNL     1      -1.835  -2.731   2.161  0.00  0.00    +0.074 HD
BRANCH  20  22
ATOM     22  C   UNL     1      -3.718  -2.424   3.174  0.00  0.00    -0.009 C 
ATOM     23  H   UNL     1      -3.321  -1.780   3.970  0.00  0.00    +0.033 HD
BRANCH  22  24
ATOM     24  C   UNL     1      -5.180  -2.022   2.930  0.00  0.00    -0.059 C 
ATOM     25  H   UNL     1      -5.281  -0.966   2.671  0.00  0.00    +0.023 HD
ATOM     26  H   UNL     1      -5.641  -2.612   2.132  0.00  0.00    +0.023 HD
ATOM     27  H   UNL     1      -5.771  -2.182   3.838  0.00  0.00    +0.023 HD
ENDBRANCH  22  24
BRANCH  22  28
ATOM     28  C   UNL     1      -3.689  -3.867   3.699  0.00  0.00    -0.059 C 
ATOM     29  H   UNL     1      -4.123  -4.571   2.979  0.00  0.00    +0.023 HD
ATOM     30  H   UNL     1      -4.258  -3.947   4.636  0.00  0.00    +0.023 HD
ATOM     31  H   UNL     1      -2.660  -4.188   3.908  0.00  0.00    +0.023 HD
ENDBRANCH  22  28
ENDBRANCH  20  22
BRANCH  20  32
ATOM     32  O   UNL     1      -3.399  -3.082   0.854  0.00  0.00    -0.461 OA
BRANCH  32  33
ATOM     33  C   UNL     1      -2.542  -3.471  -0.141  0.00  0.00    +0.307 C 
ATOM     34  O   UNL     1      -1.353  -3.180  -0.205  0.00  0.00    -0.251 OA
BRANCH  33  35
ATOM     35  C   UNL     1      -3.298  -4.256  -1.185  0.00  0.00    +0.042 C 
ATOM     36  H   UNL     1      -3.823  -3.543  -1.832  0.00  0.00    +0.037 HD
ATOM     37  H   UNL     1      -4.040  -4.891  -0.684  0.00  0.00    +0.037 HD
BRANCH  35  38
ATOM     38  C   UNL     1      -2.371  -5.147  -2.001  0.00  0.00    -0.055 C 
ATOM     39  H   UNL     1      -1.855  -5.874  -1.360  0.00  0.00    +0.023 HD
ATOM     40  H   UNL     1      -1.601  -4.551  -2.512  0.00  0.00    +0.023 HD
ATOM     41  H   UNL     1      -2.939  -5.703  -2.759  0.00  0.00    +0.023 HD
ENDBRANCH  35  38
ENDBRANCH  33  35
ENDBRANCH  32  33
ENDBRANCH  20  32
ENDBRANCH  17  20
ENDBRANCH  15  17
BRANCH  15  42
ATOM     42  O   UNL     1      -1.644   0.081   3.420  0.00  0.00    -0.379 OA
BRANCH  42  43
ATOM     43  C   UNL     1      -0.676  -0.499   4.281  0.00  0.00    +0.037 C 
ATOM     44  H   UNL     1      -0.598  -1.579   4.120  0.00  0.00    +0.052 HD
ATOM     45  H   UNL     1      -0.986  -0.327   5.313  0.00  0.00    +0.052 HD
ATOM     46  H   UNL     1       0.300  -0.028   4.144  0.00  0.00    +0.052 HD
ENDBRANCH  42  43
ENDBRANCH  15  42
ENDBRANCH   9  15
ENDBRANCH   6   9
ENDBRANCH   3   6
ENDBRANCH   1   3
BRANCH   1  47
ATOM     47  C   UNL     1       2.984  -0.496   0.024  0.00  0.00    +0.020 C 
ATOM     48  H   UNL     1       2.620  -1.344   0.623  0.00  0.00    +0.036 HD
BRANCH  47  49
ATOM     49  C   UNL     1       4.292  -0.017   0.691  0.00  0.00    -0.057 C 
ATOM     50  H   UNL     1       4.143   0.184   1.758  0.00  0.00    +0.023 HD
ATOM     51  H   UNL     1       4.677   0.896   0.223  0.00  0.00    +0.023 HD
ATOM     52  H   UNL     1       5.076  -0.783   0.625  0.00  0.00    +0.023 HD
ENDBRANCH  47  49
BRANCH  47  53
ATOM     53  C   UNL     1       3.317  -1.067  -1.392  0.00  0.00    +0.070 C 
ATOM     54  H   UNL     1       4.182  -1.736  -1.253  0.00  0.00    +0.061 HD
BRANCH  53  55
ATOM     55  C   UNL     1       2.205  -1.964  -2.022  0.00  0.00    +0.002 C 
ATOM     56  H   UNL     1       1.866  -2.661  -1.242  0.00  0.00    +0.037 HD
BRANCH  55  58
ATOM     57  C   UNL     1       0.866  -0.578  -3.676  0.00  0.00    -0.005 C 
ATOM     58  C   UNL     1       0.961  -1.248  -2.514  0.00  0.00    -0.065 C 
ATOM     59  H   UNL     1       1.749  -0.503  -4.313  0.00  0.00    +0.078 HD
ATOM     60  H   UNL     1       0.102  -1.344  -1.859  0.00  0.00    +0.059 HD
BRANCH  57  62
ATOM     61  C   UNL     1      -0.224   0.673  -5.430  0.00  0.00    +0.206 C 
ATOM     62  N   UNL     1      -0.261   0.064  -4.177  0.00  0.00    -0.281 N 
ATOM     63  O   UNL     1      -1.154   1.227  -6.007  0.00  0.00    -0.279 OA
ATOM     64  H   UNL     1       0.768   0.602  -5.905  0.00  0.00    +0.126 HD
BRANCH  62  65
ATOM     65  C   UNL     1      -1.530   0.107  -3.449  0.00  0.00    +0.016 C 
ATOM     66  H   UNL     1      -2.085   1.003  -3.760  0.00  0.00    +0.047 HD
ATOM     67  H   UNL     1      -1.349   0.216  -2.373  0.00  0.00    +0.047 HD
BRANCH  65  68
ATOM     68  C   UNL     1      -2.388  -1.119  -3.734  0.00  0.00    -0.049 C 
ATOM     69  H   UNL     1      -3.346  -1.040  -3.208  0.00  0.00    +0.024 HD
ATOM     70  H   UNL     1      -1.897  -2.044  -3.407  0.00  0.00    +0.024 HD
ATOM     71  H   UNL     1      -2.599  -1.214  -4.805  0.00  0.00    +0.024 HD
ENDBRANCH  65  68
ENDBRANCH  62  65
ENDBRANCH  57  62
ENDBRANCH  55  58
BRANCH  55  72
ATOM     72  C   UNL     1       2.800  -2.851  -3.134  0.00  0.00    -0.057 C 
ATOM     73  H   UNL     1       3.585  -3.503  -2.730  0.00  0.00    +0.024 HD
ATOM     74  H   UNL     1       3.241  -2.262  -3.943  0.00  0.00    +0.024 HD
ATOM     75  H   UNL     1       2.031  -3.500  -3.568  0.00  0.00    +0.024 HD
ENDBRANCH  55  72
ENDBRANCH  53  55
BRANCH  53  76
ATOM     76  O   UNL     1       3.684  -0.026  -2.304  0.00  0.00    -0.379 OA
BRANCH  76  77
ATOM     77  C   UNL     1       5.056  -0.038  -2.662  0.00  0.00    +0.037 C 
ATOM     78  H   UNL     1       5.694   0.085  -1.783  0.00  0.00    +0.052 HD
ATOM     79  H   UNL     1       5.246   0.794  -3.345  0.00  0.00    +0.052 HD
ATOM     80  H   UNL     1       5.306  -0.973  -3.175  0.00  0.00    +0.052 HD
ENDBRANCH  76  77
ENDBRANCH  53  76
ENDBRANCH  47  53
ENDBRANCH   1  47
BRANCH   1  81
ATOM     81  O   UNL     1       2.375   1.804  -0.557  0.00  0.00    -0.461 OA
BRANCH  81  82
ATOM     82  C   UNL     1       1.521   2.459  -1.391  0.00  0.00    +0.310 C 
ATOM     83  O   UNL     1       0.350   2.166  -1.589  0.00  0.00    -0.251 OA
BRANCH  82  84
ATOM     84  C   UNL     1       2.218   3.663  -1.992  0.00  0.00    +0.051 C 
ATOM     85  H   UNL     1       3.299   3.474  -1.985  0.00  0.00    +0.041 HD
BRANCH  84  86
ATOM     86  C   UNL     1       1.780   3.866  -3.441  0.00  0.00    -0.053 C 
ATOM     87  H   UNL     1       2.320   4.702  -3.899  0.00  0.00    +0.024 HD
ATOM     88  H   UNL     1       1.982   2.967  -4.037  0.00  0.00    +0.024 HD
ATOM     89  H   UNL     1       0.706   4.073  -3.512  0.00  0.00    +0.024 HD
ENDBRANCH  84  86
BRANCH  84  90
ATOM     90  C   UNL     1       1.912   4.888  -1.137  0.00  0.00    -0.053 C 
ATOM     91  H   UNL     1       2.273   4.750  -0.106  0.00  0.00    +0.024 HD
ATOM     92  H   UNL     1       2.394   5.782  -1.546  0.00  0.00    +0.024 HD
ATOM     93  H   UNL     1       0.834   5.080  -1.080  0.00  0.00    +0.024 HD
ENDBRANCH  84  90
ENDBRANCH  82  84
ENDBRANCH  81  82
ENDBRANCH   1  81
TORSDOF 32
