REMARK  Name = 2u_conf3
REMARK  31 active torsions:
REMARK  status: ('A' for Active; 'I' for Inactive)
REMARK    1  A    between atoms: C_2  and  C_3
REMARK    2  A    between atoms: C_2  and  O_8
REMARK    3  A    between atoms: O_8  and  C_9
REMARK    4  A    between atoms: C_9  and  C_10
REMARK    5  A    between atoms: C_9  and  C_29
REMARK    6  A    between atoms: C_10  and  C_11
REMARK    7  A    between atoms: C_11  and  C_12
REMARK    8  A    between atoms: C_12  and  C_13
REMARK    9  A    between atoms: C_12  and  C_14
REMARK   10  A    between atoms: C_14  and  O_15
REMARK   11  A    between atoms: C_14  and  C_17
REMARK   12  A    between atoms: O_15  and  C_16
REMARK   13  A    between atoms: C_17  and  C_18
REMARK   14  A    between atoms: C_18  and  O_19
REMARK   15  A    between atoms: C_18  and  C_26
REMARK   16  A    between atoms: O_19  and  C_20
REMARK   17  A    between atoms: C_20  and  C_21
REMARK   18  A    between atoms: C_21  and  C_22
REMARK   19  A    between atoms: C_22  and  C_23
REMARK   20  A    between atoms: C_23  and  N_24
REMARK   21  A    between atoms: C_26  and  C_27
REMARK   22  A    between atoms: C_26  and  C_28
REMARK   23  A    between atoms: C_29  and  C_30
REMARK   24  A    between atoms: C_29  and  C_31
REMARK   25  A    between atoms: C_31  and  O_32
REMARK   26  A    between atoms: C_31  and  C_34
REMARK   27  A    between atoms: O_32  and  C_33
REMARK   28  A    between atoms: C_34  and  C_35
REMARK   29  A    between atoms: C_34  and  C_36
REMARK   30  A    between atoms: C_37  and  N_38
REMARK   31  A    between atoms: N_38  and  C_39
REMARK                            x       y       z     vdW  Elec       q    Type
REMARK                         _______ _______ _______ _____ _____    ______ ____
ROOT
ATOM      1  C   UNL     1      -0.713  -0.646  -1.937  0.00  0.00    -0.015 C 
ATOM      2  H   UNL     1      -0.439  -0.498  -0.891  0.00  0.00    +0.030 HD
ATOM      3  H   UNL     1      -1.802  -0.681  -2.008  0.00  0.00    +0.030 HD
ENDROOT
BRANCH   1   4
ATOM      4  C   UNL     1      -0.207   0.552  -2.760  0.00  0.00    -0.045 C 
ATOM      5  H   UNL     1      -0.463   0.369  -3.812  0.00  0.00    +0.027 HD
ATOM      6  H   UNL     1       0.885   0.604  -2.735  0.00  0.00    +0.027 HD
BRANCH   4   7
ATOM      7  C   UNL     1      -0.792   1.917  -2.343  0.00  0.00    -0.017 C 
ATOM      8  H   UNL     1      -1.885   1.836  -2.400  0.00  0.00    +0.032 HD
BRANCH   7   9
ATOM      9  C   UNL     1      -0.346   2.953  -3.390  0.00  0.00    -0.060 C 
ATOM     10  H   UNL     1       0.742   3.081  -3.384  0.00  0.00    +0.023 HD
ATOM     11  H   UNL     1      -0.644   2.641  -4.396  0.00  0.00    +0.023 HD
ATOM     12  H   UNL     1      -0.807   3.929  -3.213  0.00  0.00    +0.023 HD
ENDBRANCH   7   9
BRANCH   7  13
ATOM     13  C   UNL     1      -0.419   2.361  -0.900  0.00  0.00    +0.064 C 
ATOM     14  H   UNL     1      -0.760   1.599  -0.189  0.00  0.00    +0.060 HD
BRANCH  13  15
ATOM     15  C   UNL     1      -1.106   3.704  -0.545  0.00  0.00    +0.011 C 
ATOM     16  H   UNL     1      -2.125   3.697  -0.952  0.00  0.00    +0.033 HD
ATOM     17  H   UNL     1      -0.568   4.521  -1.039  0.00  0.00    +0.033 HD
BRANCH  15  18
ATOM     18  C   UNL     1      -1.166   3.979   0.972  0.00  0.00    +0.108 C 
ATOM     19  H   UNL     1      -0.923   3.074   1.541  0.00  0.00    +0.074 HD
BRANCH  18  20
ATOM     20  C   UNL     1      -0.264   5.122   1.504  0.00  0.00    -0.009 C 
ATOM     21  H   UNL     1      -0.484   5.212   2.580  0.00  0.00    +0.033 HD
BRANCH  20  22
ATOM     22  C   UNL     1       1.233   4.824   1.377  0.00  0.00    -0.059 C 
ATOM     23  H   UNL     1       1.563   4.832   0.333  0.00  0.00    +0.023 HD
ATOM     24  H   UNL     1       1.476   3.851   1.820  0.00  0.00    +0.023 HD
ATOM     25  H   UNL     1       1.817   5.580   1.915  0.00  0.00    +0.023 HD
ENDBRANCH  20  22
BRANCH  20  26
ATOM     26  C   UNL     1      -0.584   6.493   0.888  0.00  0.00    -0.059 C 
ATOM     27  H   UNL     1      -0.005   7.277   1.391  0.00  0.00    +0.023 HD
ATOM     28  H   UNL     1      -1.646   6.749   0.999  0.00  0.00    +0.023 HD
ATOM     29  H   UNL     1      -0.333   6.533  -0.179  0.00  0.00    +0.023 HD
ENDBRANCH  20  26
ENDBRANCH  18  20
BRANCH  18  30
ATOM     30  O   UNL     1      -2.525   4.385   1.283  0.00  0.00    -0.461 OA
BRANCH  30  31
ATOM     31  C   UNL     1      -3.415   3.401   1.595  0.00  0.00    +0.307 C 
ATOM     32  O   UNL     1      -3.154   2.211   1.691  0.00  0.00    -0.251 OA
BRANCH  31  33
ATOM     33  C   UNL     1      -4.794   4.001   1.756  0.00  0.00    +0.046 C 
ATOM     34  H   UNL     1      -4.712   5.080   1.952  0.00  0.00    +0.038 HD
ATOM     35  H   UNL     1      -5.316   3.871   0.801  0.00  0.00    +0.038 HD
BRANCH  33  36
ATOM     36  C   UNL     1      -5.586   3.336   2.882  0.00  0.00    -0.031 C 
ATOM     37  H   UNL     1      -5.582   2.243   2.759  0.00  0.00    +0.028 HD
ATOM     38  H   UNL     1      -6.635   3.667   2.806  0.00  0.00    +0.028 HD
BRANCH  36  39
ATOM     39  C   UNL     1      -5.038   3.711   4.257  0.00  0.00    -0.006 C 
ATOM     40  H   UNL     1      -5.018   4.801   4.371  0.00  0.00    +0.042 HD
ATOM     41  H   UNL     1      -4.013   3.348   4.385  0.00  0.00    +0.042 HD
BRANCH  39  42
ATOM     42  N   UNL     1      -5.882   3.147   5.303  0.00  0.00    -0.330 NA
ATOM     43  H   UNL     1      -5.553   3.465   6.209  0.00  0.00    +0.118 HD
ATOM     44  H   UNL     1      -5.811   2.127   5.300  0.00  0.00    +0.118 HD
ENDBRANCH  39  42
ENDBRANCH  36  39
ENDBRANCH  33  36
ENDBRANCH  31  33
ENDBRANCH  30  31
ENDBRANCH  18  30
ENDBRANCH  15  18
ENDBRANCH  13  15
BRANCH  13  45
ATOM     45  O   UNL     1       0.992   2.572  -0.801  0.00  0.00    -0.379 OA
BRANCH  45  46
ATOM     46  C   UNL     1       1.685   1.563  -0.082  0.00  0.00    +0.037 C 
ATOM     47  H   UNL     1       2.727   1.877   0.021  0.00  0.00    +0.052 HD
ATOM     48  H   UNL     1       1.665   0.615  -0.626  0.00  0.00    +0.052 HD
ATOM     49  H   UNL     1       1.266   1.440   0.926  0.00  0.00    +0.052 HD
ENDBRANCH  45  46
ENDBRANCH  13  45
ENDBRANCH   7  13
ENDBRANCH   4   7
ENDBRANCH   1   4
BRANCH   1  50
ATOM     50  C   UNL     1      -0.093  -1.966  -2.443  0.00  0.00    +0.108 C 
ATOM     51  H   UNL     1      -0.313  -2.039  -3.519  0.00  0.00    +0.074 HD
BRANCH  50  52
ATOM     52  C   UNL     1      -0.630  -3.256  -1.745  0.00  0.00    +0.020 C 
ATOM     53  H   UNL     1      -0.122  -4.092  -2.241  0.00  0.00    +0.036 HD
BRANCH  52  54
ATOM     54  C   UNL     1      -2.135  -3.401  -2.024  0.00  0.00    -0.057 C 
ATOM     55  H   UNL     1      -2.479  -4.425  -1.830  0.00  0.00    +0.023 HD
ATOM     56  H   UNL     1      -2.366  -3.180  -3.071  0.00  0.00    +0.023 HD
ATOM     57  H   UNL     1      -2.725  -2.729  -1.395  0.00  0.00    +0.023 HD
ENDBRANCH  52  54
BRANCH  52  58
ATOM     58  C   UNL     1      -0.290  -3.368  -0.225  0.00  0.00    +0.070 C 
ATOM     59  H   UNL     1      -0.698  -2.481   0.278  0.00  0.00    +0.061 HD
BRANCH  58  60
ATOM     60  C   UNL     1      -0.921  -4.622   0.472  0.00  0.00    +0.002 C 
ATOM     61  H   UNL     1      -2.010  -4.501   0.406  0.00  0.00    +0.037 HD
BRANCH  60  62
ATOM     62  C   UNL     1      -0.606  -4.679   1.972  0.00  0.00    -0.057 C 
ATOM     63  H   UNL     1       0.458  -4.859   2.159  0.00  0.00    +0.024 HD
ATOM     64  H   UNL     1      -0.889  -3.742   2.463  0.00  0.00    +0.024 HD
ATOM     65  H   UNL     1      -1.160  -5.494   2.453  0.00  0.00    +0.024 HD
ENDBRANCH  60  62
BRANCH  60  66
ATOM     66  C   UNL     1      -0.609  -5.973  -0.154  0.00  0.00    -0.065 C 
ATOM     67  C   UNL     1       0.625  -6.443  -0.394  0.00  0.00    -0.005 C 
ATOM     68  H   UNL     1      -1.493  -6.566  -0.383  0.00  0.00    +0.059 HD
ATOM     69  H   UNL     1       1.483  -5.816  -0.137  0.00  0.00    +0.078 HD
BRANCH  67  70
ATOM     70  N   UNL     1       0.967  -7.679  -0.911  0.00  0.00    -0.284 N 
ATOM     71  C   UNL     1       0.070  -8.672  -1.290  0.00  0.00    +0.206 C 
ATOM     72  O   UNL     1       0.365  -9.794  -1.694  0.00  0.00    -0.279 OA
ATOM     73  H   UNL     1      -0.990  -8.383  -1.196  0.00  0.00    +0.126 HD
BRANCH  70  74
ATOM     74  C   UNL     1       2.394  -7.967  -1.031  0.00  0.00    +0.007 C 
ATOM     75  H   UNL     1       2.840  -7.964  -0.027  0.00  0.00    +0.043 HD
ATOM     76  H   UNL     1       2.865  -7.185  -1.641  0.00  0.00    +0.043 HD
ATOM     77  H   UNL     1       2.585  -8.933  -1.506  0.00  0.00    +0.043 HD
ENDBRANCH  70  74
ENDBRANCH  67  70
ENDBRANCH  60  66
ENDBRANCH  58  60
BRANCH  58  78
ATOM     78  O   UNL     1       1.137  -3.408  -0.061  0.00  0.00    -0.379 OA
BRANCH  78  79
ATOM     79  C   UNL     1       1.643  -2.421   0.832  0.00  0.00    +0.037 C 
ATOM     80  H   UNL     1       1.394  -1.417   0.476  0.00  0.00    +0.052 HD
ATOM     81  H   UNL     1       1.251  -2.568   1.842  0.00  0.00    +0.052 HD
ATOM     82  H   UNL     1       2.731  -2.521   0.868  0.00  0.00    +0.052 HD
ENDBRANCH  78  79
ENDBRANCH  58  78
ENDBRANCH  52  58
ENDBRANCH  50  52
BRANCH  50  83
ATOM     83  O   UNL     1       1.330  -1.825  -2.278  0.00  0.00    -0.459 OA
BRANCH  83  85
ATOM     84  O   UNL     1       1.734  -3.307  -3.989  0.00  0.00    -0.248 OA
ATOM     85  C   UNL     1       2.130  -2.535  -3.124  0.00  0.00    +0.337 C 
BRANCH  85  86
ATOM     86  C   UNL     1       3.608  -2.192  -2.896  0.00  0.00    +0.155 C 
ATOM     87  O   UNL     1       3.867  -1.163  -1.919  0.00  0.00    -0.365 OA
ATOM     88  C   UNL     1       4.509  -0.059  -2.574  0.00  0.00    +0.049 C 
ATOM     89  C   UNL     1       5.216  -0.666  -3.769  0.00  0.00    -0.027 C 
ATOM     90  C   UNL     1       4.223  -1.712  -4.212  0.00  0.00    -0.014 C 
ATOM     91  H   UNL     1       4.101  -3.101  -2.528  0.00  0.00    +0.071 HD
ATOM     92  H   UNL     1       5.197   0.426  -1.877  0.00  0.00    +0.056 HD
ATOM     93  H   UNL     1       3.744   0.663  -2.880  0.00  0.00    +0.056 HD
ATOM     94  H   UNL     1       6.144  -1.153  -3.454  0.00  0.00    +0.029 HD
ATOM     95  H   UNL     1       5.449   0.075  -4.541  0.00  0.00    +0.029 HD
ATOM     96  H   UNL     1       3.465  -1.253  -4.867  0.00  0.00    +0.030 HD
ATOM     97  H   UNL     1       4.688  -2.531  -4.775  0.00  0.00    +0.030 HD
ENDBRANCH  85  86
ENDBRANCH  83  85
ENDBRANCH  50  83
ENDBRANCH   1  50
TORSDOF 31
