REMARK  Name = Aplyronine A_conf3
REMARK  45 active torsions:
REMARK  status: ('A' for Active; 'I' for Inactive)
REMARK    1  A    between atoms: C_1  and  C_2
REMARK    2  A    between atoms: C_5  and  O_75
REMARK    3  A    between atoms: C_6  and  C_74
REMARK    4  A    between atoms: C_9  and  C_73
REMARK    5  A    between atoms: C_11  and  O_71
REMARK    6  A    between atoms: C_15  and  C_39
REMARK    7  A    between atoms: C_24  and  O_29
REMARK    8  A    between atoms: C_25  and  C_28
REMARK    9  A    between atoms: C_26  and  O_27
REMARK   10  A    between atoms: O_29  and  C_30
REMARK   11  A    between atoms: C_30  and  C_32
REMARK   12  A    between atoms: C_32  and  C_33
REMARK   13  A    between atoms: C_32  and  N_36
REMARK   14  A    between atoms: C_33  and  O_34
REMARK   15  A    between atoms: O_34  and  C_35
REMARK   16  A    between atoms: N_36  and  C_37
REMARK   17  A    between atoms: N_36  and  C_38
REMARK   18  A    between atoms: C_39  and  C_40
REMARK   19  A    between atoms: C_39  and  C_41
REMARK   20  A    between atoms: C_41  and  C_42
REMARK   21  A    between atoms: C_41  and  O_70
REMARK   22  A    between atoms: C_42  and  C_43
REMARK   23  A    between atoms: C_42  and  C_44
REMARK   24  A    between atoms: C_44  and  C_45
REMARK   25  A    between atoms: C_45  and  C_46
REMARK   26  A    between atoms: C_46  and  C_47
REMARK   27  A    between atoms: C_46  and  O_62
REMARK   28  A    between atoms: C_47  and  C_48
REMARK   29  A    between atoms: C_47  and  C_49
REMARK   30  A    between atoms: C_49  and  C_50
REMARK   31  A    between atoms: C_49  and  O_58
REMARK   32  A    between atoms: C_50  and  C_51
REMARK   33  A    between atoms: C_50  and  C_52
REMARK   34  A    between atoms: C_53  and  N_54
REMARK   35  A    between atoms: N_54  and  C_55
REMARK   36  A    between atoms: O_58  and  C_59
REMARK   37  A    between atoms: C_59  and  C_61
REMARK   38  A    between atoms: O_62  and  C_63
REMARK   39  A    between atoms: C_63  and  C_65
REMARK   40  A    between atoms: C_65  and  C_66
REMARK   41  A    between atoms: C_65  and  N_67
REMARK   42  A    between atoms: N_67  and  C_68
REMARK   43  A    between atoms: N_67  and  C_69
REMARK   44  A    between atoms: O_71  and  C_72
REMARK   45  A    between atoms: O_75  and  C_76
REMARK                            x       y       z     vdW  Elec       q    Type
REMARK                         _______ _______ _______ _____ _____    ______ ____
ROOT
ATOM      1  C   UNL     1       1.614  -2.387  -4.929  0.00  0.00    -0.017 C 
ATOM      2  C   UNL     1       2.371  -1.105  -4.516  0.00  0.00    -0.045 C 
ATOM      3  C   UNL     1       2.000  -0.564  -3.123  0.00  0.00    -0.022 C 
ATOM      4  C   UNL     1       1.514   0.908  -3.090  0.00  0.00    +0.079 C 
ATOM      5  C   UNL     1       2.603   1.979  -3.207  0.00  0.00    -0.048 C 
ATOM      6  C   UNL     1       2.662   2.968  -2.287  0.00  0.00    -0.082 C 
ATOM      7  C   UNL     1       3.590   4.150  -2.241  0.00  0.00    -0.032 C 
ATOM      8  C   UNL     1       4.892   3.939  -1.440  0.00  0.00    -0.038 C 
ATOM      9  C   UNL     1       4.646   3.541   0.038  0.00  0.00    -0.020 C 
ATOM     10  C   UNL     1       4.479   2.026   0.245  0.00  0.00    +0.077 C 
ATOM     11  C   UNL     1       4.188   1.715   1.689  0.00  0.00    -0.059 C 
ATOM     12  C   UNL     1       2.966   1.475   2.194  0.00  0.00    -0.082 C 
ATOM     13  C   UNL     1       2.753   1.024   3.618  0.00  0.00    +0.003 C 
ATOM     14  C   UNL     1       1.820  -0.201   3.778  0.00  0.00    +0.112 C 
ATOM     15  O   UNL     1       2.061  -1.148   2.706  0.00  0.00    -0.458 OA
ATOM     16  C   UNL     1       3.218  -1.846   2.684  0.00  0.00    +0.332 C 
ATOM     17  O   UNL     1       4.115  -1.825   3.506  0.00  0.00    -0.246 OA
ATOM     18  C   UNL     1       3.179  -2.629   1.437  0.00  0.00    +0.022 C 
ATOM     19  C   UNL     1       4.261  -3.203   0.895  0.00  0.00    -0.055 C 
ATOM     20  C   UNL     1       4.129  -3.914  -0.352  0.00  0.00    -0.065 C 
ATOM     21  C   UNL     1       5.087  -4.627  -0.962  0.00  0.00    -0.081 C 
ATOM     22  C   UNL     1       4.913  -5.467  -2.214  0.00  0.00    +0.003 C 
ATOM     23  C   UNL     1       3.592  -5.368  -3.032  0.00  0.00    +0.111 C 
ATOM     24  C   UNL     1       3.448  -4.013  -3.809  0.00  0.00    +0.020 C 
ATOM     25  C   UNL     1       1.958  -3.666  -4.108  0.00  0.00    +0.064 C 
ATOM     26  H   UNL     1       0.545  -2.198  -4.745  0.00  0.00    +0.032 HD
ATOM     27  H   UNL     1       2.175  -0.342  -5.275  0.00  0.00    +0.027 HD
ATOM     28  H   UNL     1       3.451  -1.278  -4.554  0.00  0.00    +0.027 HD
ATOM     29  H   UNL     1       1.188  -1.176  -2.712  0.00  0.00    +0.029 HD
ATOM     30  H   UNL     1       2.850  -0.688  -2.441  0.00  0.00    +0.029 HD
ATOM     31  H   UNL     1       1.008   1.021  -2.121  0.00  0.00    +0.064 HD
ATOM     32  H   UNL     1       1.933   2.962  -1.474  0.00  0.00    +0.057 HD
ATOM     33  H   UNL     1       3.029   4.990  -1.810  0.00  0.00    +0.031 HD
ATOM     34  H   UNL     1       3.835   4.477  -3.260  0.00  0.00    +0.031 HD
ATOM     35  H   UNL     1       5.487   3.161  -1.935  0.00  0.00    +0.030 HD
ATOM     36  H   UNL     1       3.773   4.081   0.426  0.00  0.00    +0.030 HD
ATOM     37  H   UNL     1       5.510   3.866   0.635  0.00  0.00    +0.030 HD
ATOM     38  H   UNL     1       3.680   1.629  -0.385  0.00  0.00    +0.064 HD
ATOM     39  H   UNL     1       5.062   1.632   2.333  0.00  0.00    +0.059 HD
ATOM     40  H   UNL     1       2.083   1.562   1.565  0.00  0.00    +0.057 HD
ATOM     41  H   UNL     1       2.423   1.866   4.231  0.00  0.00    +0.034 HD
ATOM     42  H   UNL     1       3.730   0.740   4.035  0.00  0.00    +0.034 HD
ATOM     43  H   UNL     1       2.063  -0.690   4.731  0.00  0.00    +0.074 HD
ATOM     44  H   UNL     1       2.206  -2.701   0.959  0.00  0.00    +0.069 HD
ATOM     45  H   UNL     1       5.231  -3.142   1.378  0.00  0.00    +0.062 HD
ATOM     46  H   UNL     1       3.130  -3.876  -0.778  0.00  0.00    +0.061 HD
ATOM     47  H   UNL     1       6.076  -4.675  -0.511  0.00  0.00    +0.057 HD
ATOM     48  H   UNL     1       5.765  -5.265  -2.872  0.00  0.00    +0.034 HD
ATOM     49  H   UNL     1       5.028  -6.509  -1.888  0.00  0.00    +0.034 HD
ATOM     50  H   UNL     1       3.584  -6.177  -3.776  0.00  0.00    +0.074 HD
ATOM     51  H   UNL     1       3.838  -3.207  -3.176  0.00  0.00    +0.036 HD
ATOM     52  H   UNL     1       1.480  -3.518  -3.132  0.00  0.00    +0.060 HD
ENDROOT
BRANCH   1  53
ATOM     53  C   UNL     1       1.694  -2.571  -6.454  0.00  0.00    -0.060 C 
ATOM     54  H   UNL     1       1.322  -1.673  -6.962  0.00  0.00    +0.023 HD
ATOM     55  H   UNL     1       1.065  -3.399  -6.793  0.00  0.00    +0.023 HD
ATOM     56  H   UNL     1       2.711  -2.743  -6.807  0.00  0.00    +0.023 HD
ENDBRANCH   1  53
BRANCH   5  57
ATOM     57  C   UNL     1       3.537   1.897  -4.383  0.00  0.00    -0.041 C 
ATOM     58  H   UNL     1       4.155   0.997  -4.320  0.00  0.00    +0.028 HD
ATOM     59  H   UNL     1       2.971   1.878  -5.321  0.00  0.00    +0.028 HD
ATOM     60  H   UNL     1       4.229   2.740  -4.448  0.00  0.00    +0.028 HD
ENDBRANCH   5  57
BRANCH  24  61
ATOM     61  C   UNL     1       4.328  -4.070  -5.066  0.00  0.00    -0.057 C 
ATOM     62  H   UNL     1       5.344  -4.403  -4.836  0.00  0.00    +0.023 HD
ATOM     63  H   UNL     1       3.917  -4.758  -5.809  0.00  0.00    +0.023 HD
ATOM     64  H   UNL     1       4.431  -3.084  -5.524  0.00  0.00    +0.023 HD
ENDBRANCH  24  61
BRANCH   8  65
ATOM     65  C   UNL     1       5.712   5.235  -1.487  0.00  0.00    -0.062 C 
ATOM     66  H   UNL     1       5.188   6.055  -0.986  0.00  0.00    +0.023 HD
ATOM     67  H   UNL     1       5.908   5.537  -2.522  0.00  0.00    +0.023 HD
ATOM     68  H   UNL     1       6.681   5.099  -0.994  0.00  0.00    +0.023 HD
ENDBRANCH   8  65
BRANCH  14  69
ATOM     69  C   UNL     1       0.274   0.058   3.763  0.00  0.00    +0.020 C 
ATOM     70  H   UNL     1      -0.003   0.376   2.748  0.00  0.00    +0.036 HD
BRANCH  69  71
ATOM     71  C   UNL     1      -0.422  -1.296   4.022  0.00  0.00    -0.057 C 
ATOM     72  H   UNL     1      -1.504  -1.236   3.878  0.00  0.00    +0.023 HD
ATOM     73  H   UNL     1      -0.228  -1.647   5.042  0.00  0.00    +0.023 HD
ATOM     74  H   UNL     1      -0.075  -2.074   3.333  0.00  0.00    +0.023 HD
ENDBRANCH  69  71
BRANCH  69  75
ATOM     75  C   UNL     1      -0.159   1.157   4.771  0.00  0.00    +0.064 C 
ATOM     76  H   UNL     1       0.485   1.072   5.656  0.00  0.00    +0.060 HD
BRANCH  75  77
ATOM     77  C   UNL     1      -1.635   1.122   5.248  0.00  0.00    -0.017 C 
ATOM     78  H   UNL     1      -1.826   0.118   5.647  0.00  0.00    +0.032 HD
BRANCH  77  79
ATOM     79  C   UNL     1      -1.850   2.054   6.455  0.00  0.00    -0.060 C 
ATOM     80  H   UNL     1      -1.610   3.097   6.238  0.00  0.00    +0.023 HD
ATOM     81  H   UNL     1      -1.213   1.743   7.292  0.00  0.00    +0.023 HD
ATOM     82  H   UNL     1      -2.889   2.008   6.799  0.00  0.00    +0.023 HD
ENDBRANCH  77  79
BRANCH  77  83
ATOM     83  C   UNL     1      -2.705   1.361   4.151  0.00  0.00    -0.045 C 
ATOM     84  H   UNL     1      -3.668   1.064   4.587  0.00  0.00    +0.027 HD
ATOM     85  H   UNL     1      -2.531   0.676   3.314  0.00  0.00    +0.027 HD
BRANCH  83  86
ATOM     86  C   UNL     1      -2.824   2.784   3.593  0.00  0.00    -0.015 C 
ATOM     87  H   UNL     1      -2.130   2.917   2.757  0.00  0.00    +0.030 HD
ATOM     88  H   UNL     1      -2.489   3.511   4.338  0.00  0.00    +0.030 HD
BRANCH  86  89
ATOM     89  C   UNL     1      -4.264   3.158   3.177  0.00  0.00    +0.109 C 
ATOM     90  H   UNL     1      -4.960   2.811   3.954  0.00  0.00    +0.074 HD
BRANCH  89  91
ATOM     91  C   UNL     1      -4.789   2.599   1.818  0.00  0.00    +0.031 C 
ATOM     92  H   UNL     1      -5.709   3.171   1.632  0.00  0.00    +0.037 HD
BRANCH  91  93
ATOM     93  C   UNL     1      -5.198   1.129   1.962  0.00  0.00    -0.056 C 
ATOM     94  H   UNL     1      -5.677   0.938   2.929  0.00  0.00    +0.023 HD
ATOM     95  H   UNL     1      -4.340   0.457   1.869  0.00  0.00    +0.023 HD
ATOM     96  H   UNL     1      -5.934   0.853   1.203  0.00  0.00    +0.023 HD
ENDBRANCH  91  93
BRANCH  91  97
ATOM     97  C   UNL     1      -3.844   2.835   0.599  0.00  0.00    +0.115 C 
ATOM     98  H   UNL     1      -2.955   2.205   0.740  0.00  0.00    +0.074 HD
BRANCH  97  99
ATOM     99  C   UNL     1      -4.439   2.555  -0.821  0.00  0.00    +0.013 C 
ATOM    100  H   UNL     1      -3.814   3.106  -1.539  0.00  0.00    +0.038 HD
BRANCH  99 101
ATOM    101  C   UNL     1      -5.844   3.134  -1.024  0.00  0.00    -0.056 C 
ATOM    102  H   UNL     1      -6.144   3.058  -2.076  0.00  0.00    +0.024 HD
ATOM    103  H   UNL     1      -5.874   4.194  -0.751  0.00  0.00    +0.024 HD
ATOM    104  H   UNL     1      -6.598   2.604  -0.434  0.00  0.00    +0.024 HD
ENDBRANCH  99 101
BRANCH  99 105
ATOM    105  C   UNL     1      -4.399   1.095  -1.229  0.00  0.00    -0.064 C 
ATOM    106  C   UNL     1      -3.501   0.623  -2.106  0.00  0.00    -0.005 C 
ATOM    107  H   UNL     1      -5.162   0.454  -0.804  0.00  0.00    +0.059 HD
ATOM    108  H   UNL     1      -2.768   1.316  -2.520  0.00  0.00    +0.078 HD
BRANCH 106 109
ATOM    109  N   UNL     1      -3.369  -0.679  -2.565  0.00  0.00    -0.284 N 
ATOM    110  C   UNL     1      -4.133  -1.759  -2.147  0.00  0.00    +0.206 C 
ATOM    111  O   UNL     1      -4.015  -2.921  -2.523  0.00  0.00    -0.279 OA
ATOM    112  H   UNL     1      -4.895  -1.500  -1.401  0.00  0.00    +0.126 HD
BRANCH 109 113
ATOM    113  C   UNL     1      -2.316  -0.929  -3.546  0.00  0.00    +0.007 C 
ATOM    114  H   UNL     1      -2.322  -1.965  -3.899  0.00  0.00    +0.043 HD
ATOM    115  H   UNL     1      -2.459  -0.267  -4.407  0.00  0.00    +0.043 HD
ATOM    116  H   UNL     1      -1.346  -0.726  -3.082  0.00  0.00    +0.043 HD
ENDBRANCH 109 113
ENDBRANCH 106 109
ENDBRANCH  99 105
ENDBRANCH  97  99
BRANCH  97 117
ATOM    117  O   UNL     1      -3.430   4.227   0.619  0.00  0.00    -0.461 OA
BRANCH 117 118
ATOM    118  C   UNL     1      -2.207   4.513   0.097  0.00  0.00    +0.304 C 
ATOM    119  O   UNL     1      -1.445   3.707  -0.419  0.00  0.00    -0.251 OA
BRANCH 118 120
ATOM    120  C   UNL     1      -1.924   5.976   0.238  0.00  0.00    +0.033 C 
ATOM    121  H   UNL     1      -0.958   6.204  -0.222  0.00  0.00    +0.034 HD
ATOM    122  H   UNL     1      -2.697   6.555  -0.275  0.00  0.00    +0.034 HD
ATOM    123  H   UNL     1      -1.881   6.244   1.297  0.00  0.00    +0.034 HD
ENDBRANCH 118 120
ENDBRANCH 117 118
ENDBRANCH  97 117
ENDBRANCH  91  97
ENDBRANCH  89  91
BRANCH  89 124
ATOM    124  O   UNL     1      -4.365   4.605   3.130  0.00  0.00    -0.460 OA
BRANCH 124 125
ATOM    125  C   UNL     1      -4.615   5.228   4.321  0.00  0.00    +0.324 C 
ATOM    126  O   UNL     1      -4.700   4.655   5.401  0.00  0.00    -0.249 OA
BRANCH 125 127
ATOM    127  C   UNL     1      -4.747   6.746   4.099  0.00  0.00    +0.105 C 
ATOM    128  H   UNL     1      -4.778   6.941   3.019  0.00  0.00    +0.058 HD
BRANCH 127 129
ATOM    129  C   UNL     1      -3.468   7.365   4.673  0.00  0.00    -0.039 C 
ATOM    130  H   UNL     1      -3.454   7.307   5.767  0.00  0.00    +0.025 HD
ATOM    131  H   UNL     1      -3.362   8.415   4.381  0.00  0.00    +0.025 HD
ATOM    132  H   UNL     1      -2.580   6.834   4.310  0.00  0.00    +0.025 HD
ENDBRANCH 127 129
BRANCH 127 133
ATOM    133  N   UNL     1      -5.995   7.266   4.730  0.00  0.00    -0.296 NA
BRANCH 133 134
ATOM    134  C   UNL     1      -6.101   8.724   4.635  0.00  0.00    -0.012 C 
ATOM    135  H   UNL     1      -7.047   9.070   5.066  0.00  0.00    +0.039 HD
ATOM    136  H   UNL     1      -6.049   9.072   3.598  0.00  0.00    +0.039 HD
ATOM    137  H   UNL     1      -5.314   9.217   5.213  0.00  0.00    +0.039 HD
ENDBRANCH 133 134
BRANCH 133 138
ATOM    138  C   UNL     1      -7.187   6.656   4.126  0.00  0.00    -0.012 C 
ATOM    139  H   UNL     1      -8.095   7.010   4.627  0.00  0.00    +0.039 HD
ATOM    140  H   UNL     1      -7.270   6.890   3.059  0.00  0.00    +0.039 HD
ATOM    141  H   UNL     1      -7.187   5.568   4.242  0.00  0.00    +0.039 HD
ENDBRANCH 133 138
ENDBRANCH 127 133
ENDBRANCH 125 127
ENDBRANCH 124 125
ENDBRANCH  89 124
ENDBRANCH  86  89
ENDBRANCH  83  86
ENDBRANCH  77  83
ENDBRANCH  75  77
BRANCH  75 142
ATOM    142  O   UNL     1       0.114   2.425   4.171  0.00  0.00    -0.391 OA
ATOM    143  H   UNL     1       0.043   3.107   4.859  0.00  0.00    +0.210 HD
ENDBRANCH  75 142
ENDBRANCH  69  75
ENDBRANCH  14  69
BRANCH  25 144
ATOM    144  O   UNL     1       1.291  -4.794  -4.685  0.00  0.00    -0.391 OA
ATOM    145  H   UNL     1       1.711  -4.996  -5.536  0.00  0.00    +0.210 HD
ENDBRANCH  25 144
BRANCH  23 146
ATOM    146  O   UNL     1       2.476  -5.545  -2.139  0.00  0.00    -0.460 OA
BRANCH 146 147
ATOM    147  C   UNL     1       2.108  -6.809  -1.809  0.00  0.00    +0.327 C 
ATOM    148  O   UNL     1       2.607  -7.829  -2.277  0.00  0.00    -0.249 OA
BRANCH 147 149
ATOM    149  C   UNL     1       1.034  -6.817  -0.711  0.00  0.00    +0.131 C 
ATOM    150  H   UNL     1       0.655  -7.849  -0.684  0.00  0.00    +0.060 HD
BRANCH 149 151
ATOM    151  C   UNL     1      -0.152  -5.937  -1.180  0.00  0.00    +0.073 C 
ATOM    152  H   UNL     1      -0.314  -6.064  -2.259  0.00  0.00    +0.058 HD
ATOM    153  H   UNL     1      -1.064  -6.260  -0.662  0.00  0.00    +0.058 HD
BRANCH 151 154
ATOM    154  O   UNL     1       0.049  -4.545  -0.896  0.00  0.00    -0.381 OA
BRANCH 154 155
ATOM    155  C   UNL     1      -1.021  -3.757  -1.402  0.00  0.00    +0.037 C 
ATOM    156  H   UNL     1      -1.071  -3.838  -2.491  0.00  0.00    +0.052 HD
ATOM    157  H   UNL     1      -1.969  -4.067  -0.953  0.00  0.00    +0.052 HD
ATOM    158  H   UNL     1      -0.832  -2.713  -1.138  0.00  0.00    +0.052 HD
ENDBRANCH 154 155
ENDBRANCH 151 154
ENDBRANCH 149 151
BRANCH 149 159
ATOM    159  N   UNL     1       1.626  -6.482   0.624  0.00  0.00    -0.294 NA
BRANCH 159 160
ATOM    160  C   UNL     1       2.666  -7.443   1.006  0.00  0.00    -0.012 C 
ATOM    161  H   UNL     1       2.281  -8.469   1.054  0.00  0.00    +0.039 HD
ATOM    162  H   UNL     1       3.084  -7.191   1.988  0.00  0.00    +0.039 HD
ATOM    163  H   UNL     1       3.510  -7.419   0.310  0.00  0.00    +0.039 HD
ENDBRANCH 159 160
BRANCH 159 164
ATOM    164  C   UNL     1       0.609  -6.419   1.675  0.00  0.00    -0.012 C 
ATOM    165  H   UNL     1       1.069  -6.183   2.643  0.00  0.00    +0.039 HD
ATOM    166  H   UNL     1      -0.114  -5.618   1.490  0.00  0.00    +0.039 HD
ATOM    167  H   UNL     1       0.064  -7.364   1.778  0.00  0.00    +0.039 HD
ENDBRANCH 159 164
ENDBRANCH 149 159
ENDBRANCH 147 149
ENDBRANCH 146 147
ENDBRANCH  23 146
BRANCH   4 168
ATOM    168  O   UNL     1       0.525   1.077  -4.119  0.00  0.00    -0.376 OA
BRANCH 168 169
ATOM    169  C   UNL     1      -0.249   2.262  -3.967  0.00  0.00    +0.037 C 
ATOM    170  H   UNL     1      -1.081   2.213  -4.673  0.00  0.00    +0.052 HD
ATOM    171  H   UNL     1       0.345   3.147  -4.207  0.00  0.00    +0.052 HD
ATOM    172  H   UNL     1      -0.656   2.338  -2.957  0.00  0.00    +0.052 HD
ENDBRANCH 168 169
ENDBRANCH   4 168
BRANCH  10 173
ATOM    173  O   UNL     1       5.722   1.407  -0.118  0.00  0.00    -0.376 OA
BRANCH 173 174
ATOM    174  C   UNL     1       5.595   0.021  -0.400  0.00  0.00    +0.037 C 
ATOM    175  H   UNL     1       5.269  -0.523   0.489  0.00  0.00    +0.052 HD
ATOM    176  H   UNL     1       6.576  -0.361  -0.697  0.00  0.00    +0.052 HD
ATOM    177  H   UNL     1       4.898  -0.141  -1.227  0.00  0.00    +0.052 HD
ENDBRANCH 173 174
ENDBRANCH  10 173
TORSDOF 45
