REMARK  Name = Bistramide A_conf3
REMARK  27 active torsions:
REMARK  status: ('A' for Active; 'I' for Inactive)
REMARK    1  A    between atoms: C_1  and  C_2
REMARK    2  A    between atoms: C_3  and  C_4
REMARK    3  A    between atoms: C_4  and  C_6
REMARK    4  A    between atoms: C_6  and  C_7
REMARK    5  A    between atoms: C_10  and  C_50
REMARK    6  A    between atoms: C_11  and  C_13
REMARK    7  A    between atoms: C_13  and  C_14
REMARK    8  A    between atoms: N_16  and  C_17
REMARK    9  A    between atoms: C_17  and  C_18
REMARK   10  A    between atoms: C_18  and  C_19
REMARK   11  A    between atoms: C_18  and  O_49
REMARK   12  A    between atoms: C_19  and  C_20
REMARK   13  A    between atoms: C_19  and  C_21
REMARK   14  A    between atoms: N_23  and  C_24
REMARK   15  A    between atoms: C_24  and  C_25
REMARK   16  A    between atoms: C_25  and  C_26
REMARK   17  A    between atoms: C_26  and  C_27
REMARK   18  A    between atoms: C_28  and  C_48
REMARK   19  A    between atoms: C_36  and  C_38
REMARK   20  A    between atoms: C_38  and  C_39
REMARK   21  A    between atoms: C_39  and  C_40
REMARK   22  A    between atoms: C_40  and  C_41
REMARK   23  A    between atoms: C_40  and  C_42
REMARK   24  A    between atoms: C_43  and  C_44
REMARK   25  A    between atoms: C_43  and  C_45
REMARK   26  A    between atoms: C_45  and  C_46
REMARK   27  A    between atoms: C_45  and  O_47
REMARK                            x       y       z     vdW  Elec       q    Type
REMARK                         _______ _______ _______ _____ _____    ______ ____
ROOT
ATOM      1  C   UNL     1       1.931  -2.215  -0.497  0.00  0.00    -0.035 C 
ATOM      2  H   UNL     1       0.954  -2.371  -0.026  0.00  0.00    +0.028 HD
ATOM      3  H   UNL     1       2.051  -3.010  -1.240  0.00  0.00    +0.028 HD
ENDROOT
BRANCH   1   4
ATOM      4  C   UNL     1       3.024  -2.364   0.562  0.00  0.00    +0.012 C 
ATOM      5  H   UNL     1       2.982  -3.365   1.002  0.00  0.00    +0.046 HD
ATOM      6  H   UNL     1       4.016  -2.237   0.114  0.00  0.00    +0.046 HD
BRANCH   4   9
ATOM      7  C   UNL     1       1.927  -1.493   2.602  0.00  0.00    +0.218 C 
ATOM      8  O   UNL     1       1.131  -2.430   2.653  0.00  0.00    -0.275 OA
ATOM      9  N   UNL     1       2.904  -1.391   1.628  0.00  0.00    -0.315 N 
ATOM     10  H   UNL     1       3.530  -0.593   1.623  0.00  0.00    +0.149 HD
BRANCH   7  11
ATOM     11  C   UNL     1       1.907  -0.304   3.561  0.00  0.00    +0.060 C 
ATOM     12  H   UNL     1       2.953  -0.086   3.818  0.00  0.00    +0.042 HD
BRANCH  11  13
ATOM     13  C   UNL     1       1.314   0.880   2.794  0.00  0.00    -0.052 C 
ATOM     14  H   UNL     1       0.241   0.743   2.614  0.00  0.00    +0.024 HD
ATOM     15  H   UNL     1       1.470   1.821   3.322  0.00  0.00    +0.024 HD
ATOM     16  H   UNL     1       1.780   1.007   1.814  0.00  0.00    +0.024 HD
ENDBRANCH  11  13
BRANCH  11  17
ATOM     17  C   UNL     1       1.136  -0.640   4.860  0.00  0.00    +0.081 C 
ATOM     18  H   UNL     1       0.111  -0.949   4.629  0.00  0.00    +0.062 HD
BRANCH  17  19
ATOM     19  C   UNL     1       1.092   0.495   5.904  0.00  0.00    +0.038 C 
ATOM     20  H   UNL     1       0.704   0.099   6.853  0.00  0.00    +0.049 HD
ATOM     21  H   UNL     1       2.117   0.826   6.128  0.00  0.00    +0.049 HD
BRANCH  19  24
ATOM     22  C   UNL     1       0.709   2.918   5.646  0.00  0.00    +0.216 C 
ATOM     23  O   UNL     1       1.857   3.202   5.971  0.00  0.00    -0.276 OA
ATOM     24  N   UNL     1       0.243   1.623   5.569  0.00  0.00    -0.313 N 
ATOM     25  H   UNL     1      -0.734   1.455   5.364  0.00  0.00    +0.149 HD
BRANCH  22  26
ATOM     26  C   UNL     1      -0.332   3.961   5.303  0.00  0.00    +0.050 C 
ATOM     27  H   UNL     1      -0.982   4.080   6.179  0.00  0.00    +0.038 HD
ATOM     28  H   UNL     1      -0.982   3.611   4.493  0.00  0.00    +0.038 HD
BRANCH  26  33
ATOM     29  C   UNL     1      -0.364   7.606   4.511  0.00  0.00    +0.066 C 
ATOM     30  C   UNL     1       1.149   7.782   4.352  0.00  0.00    -0.026 C 
ATOM     31  C   UNL     1       1.739   6.723   3.424  0.00  0.00    -0.046 C 
ATOM     32  C   UNL     1       1.119   5.325   3.648  0.00  0.00    -0.017 C 
ATOM     33  C   UNL     1       0.301   5.314   4.962  0.00  0.00    +0.070 C 
ATOM     34  O   UNL     1      -0.761   6.282   4.901  0.00  0.00    -0.372 OA
ATOM     35  H   UNL     1      -0.830   7.777   3.532  0.00  0.00    +0.060 HD
ATOM     36  H   UNL     1       1.393   8.778   3.970  0.00  0.00    +0.029 HD
ATOM     37  H   UNL     1       1.641   7.707   5.330  0.00  0.00    +0.029 HD
ATOM     38  H   UNL     1       1.616   7.049   2.382  0.00  0.00    +0.027 HD
ATOM     39  H   UNL     1       2.825   6.676   3.601  0.00  0.00    +0.027 HD
ATOM     40  H   UNL     1       1.947   4.608   3.728  0.00  0.00    +0.032 HD
ATOM     41  H   UNL     1       0.952   5.593   5.803  0.00  0.00    +0.060 HD
BRANCH  32  42
ATOM     42  C   UNL     1       0.293   4.924   2.419  0.00  0.00    -0.060 C 
ATOM     43  H   UNL     1      -0.056   3.890   2.487  0.00  0.00    +0.023 HD
ATOM     44  H   UNL     1      -0.585   5.564   2.295  0.00  0.00    +0.023 HD
ATOM     45  H   UNL     1       0.890   4.990   1.504  0.00  0.00    +0.023 HD
ENDBRANCH  32  42
BRANCH  29  46
ATOM     46  C   UNL     1      -0.958   8.580   5.525  0.00  0.00    +0.036 C 
ATOM     47  H   UNL     1      -0.388   8.559   6.462  0.00  0.00    +0.037 HD
ATOM     48  H   UNL     1      -1.971   8.282   5.823  0.00  0.00    +0.037 HD
BRANCH  46  49
ATOM     49  C   UNL     1      -0.963   9.997   5.000  0.00  0.00    +0.158 C 
ATOM     50  O   UNL     1      -0.048  10.776   5.269  0.00  0.00    -0.293 OA
BRANCH  49  52
ATOM     51  C   UNL     1      -3.142   9.777   3.755  0.00  0.00    -0.084 C 
ATOM     52  C   UNL     1      -2.054  10.479   4.112  0.00  0.00    -0.023 C 
ATOM     53  H   UNL     1      -3.308   8.759   4.101  0.00  0.00    +0.057 HD
ATOM     54  H   UNL     1      -1.910  11.499   3.760  0.00  0.00    +0.065 HD
BRANCH  51  55
ATOM     55  C   UNL     1      -4.199  10.328   2.852  0.00  0.00    -0.046 C 
ATOM     56  H   UNL     1      -5.126  10.466   3.411  0.00  0.00    +0.027 HD
ATOM     57  H   UNL     1      -4.383   9.630   2.028  0.00  0.00    +0.027 HD
ATOM     58  H   UNL     1      -3.913  11.294   2.425  0.00  0.00    +0.027 HD
ENDBRANCH  51  55
ENDBRANCH  49  52
ENDBRANCH  46  49
ENDBRANCH  29  46
ENDBRANCH  26  33
ENDBRANCH  22  26
ENDBRANCH  19  24
ENDBRANCH  17  19
BRANCH  17  59
ATOM     59  O   UNL     1       1.766  -1.751   5.528  0.00  0.00    -0.390 OA
ATOM     60  H   UNL     1       2.726  -1.598   5.561  0.00  0.00    +0.210 HD
ENDBRANCH  17  59
ENDBRANCH  11  17
ENDBRANCH   7  11
ENDBRANCH   4   9
ENDBRANCH   1   4
BRANCH   1  61
ATOM     61  C   UNL     1       1.967  -0.852  -1.204  0.00  0.00    -0.025 C 
ATOM     62  H   UNL     1       2.942  -0.733  -1.689  0.00  0.00    +0.029 HD
ATOM     63  H   UNL     1       1.877  -0.055  -0.455  0.00  0.00    +0.029 HD
BRANCH  61  64
ATOM     64  C   UNL     1       0.828  -0.703  -2.225  0.00  0.00    +0.065 C 
ATOM     65  C   UNL     1       0.818   0.683  -2.907  0.00  0.00    -0.017 C 
ATOM     66  C   UNL     1      -0.439   0.844  -3.777  0.00  0.00    -0.043 C 
ATOM     67  C   UNL     1      -1.698   0.489  -2.986  0.00  0.00    +0.002 C 
ATOM     68  C   UNL     1      -1.570  -0.893  -2.334  0.00  0.00    +0.171 C 
ATOM     69  O   UNL     1      -0.399  -0.904  -1.515  0.00  0.00    -0.345 OA
ATOM     70  C   UNL     1      -2.774  -1.145  -1.415  0.00  0.00    +0.002 C 
ATOM     71  C   UNL     1      -2.684  -2.523  -0.749  0.00  0.00    -0.046 C 
ATOM     72  C   UNL     1      -1.988  -3.544  -1.647  0.00  0.00    -0.026 C 
ATOM     73  C   UNL     1      -2.096  -3.137  -3.115  0.00  0.00    +0.062 C 
ATOM     74  O   UNL     1      -1.478  -1.871  -3.378  0.00  0.00    -0.345 OA
ATOM     75  H   UNL     1       0.946  -1.490  -2.976  0.00  0.00    +0.060 HD
ATOM     76  H   UNL     1       0.776   1.453  -2.127  0.00  0.00    +0.032 HD
ATOM     77  H   UNL     1      -0.519   1.873  -4.142  0.00  0.00    +0.027 HD
ATOM     78  H   UNL     1      -0.366   0.201  -4.665  0.00  0.00    +0.027 HD
ATOM     79  H   UNL     1      -2.564   0.519  -3.656  0.00  0.00    +0.032 HD
ATOM     80  H   UNL     1      -1.839   1.258  -2.215  0.00  0.00    +0.032 HD
ATOM     81  H   UNL     1      -3.699  -1.102  -2.006  0.00  0.00    +0.032 HD
ATOM     82  H   UNL     1      -2.846  -0.380  -0.630  0.00  0.00    +0.032 HD
ATOM     83  H   UNL     1      -2.142  -2.457   0.203  0.00  0.00    +0.027 HD
ATOM     84  H   UNL     1      -3.696  -2.864  -0.498  0.00  0.00    +0.027 HD
ATOM     85  H   UNL     1      -0.934  -3.593  -1.349  0.00  0.00    +0.029 HD
ATOM     86  H   UNL     1      -2.408  -4.540  -1.472  0.00  0.00    +0.029 HD
ATOM     87  H   UNL     1      -3.160  -3.035  -3.374  0.00  0.00    +0.060 HD
BRANCH  65  88
ATOM     88  C   UNL     1       2.064   0.933  -3.760  0.00  0.00    -0.060 C 
ATOM     89  H   UNL     1       1.977   1.870  -4.315  0.00  0.00    +0.023 HD
ATOM     90  H   UNL     1       2.214   0.127  -4.487  0.00  0.00    +0.023 HD
ATOM     91  H   UNL     1       2.965   1.002  -3.137  0.00  0.00    +0.023 HD
ENDBRANCH  65  88
BRANCH  73  92
ATOM     92  C   UNL     1      -1.499  -4.170  -4.085  0.00  0.00    -0.026 C 
ATOM     93  H   UNL     1      -1.620  -3.779  -5.097  0.00  0.00    +0.029 HD
ATOM     94  H   UNL     1      -2.087  -5.093  -4.022  0.00  0.00    +0.029 HD
BRANCH  92  95
ATOM     95  C   UNL     1      -0.016  -4.487  -3.841  0.00  0.00    -0.045 C 
ATOM     96  H   UNL     1       0.078  -5.000  -2.874  0.00  0.00    +0.027 HD
ATOM     97  H   UNL     1       0.539  -3.549  -3.753  0.00  0.00    +0.027 HD
BRANCH  95  98
ATOM     98  C   UNL     1       0.686  -5.357  -4.905  0.00  0.00    -0.025 C 
ATOM     99  H   UNL     1       1.732  -5.419  -4.587  0.00  0.00    +0.034 HD
BRANCH  98 100
ATOM    100  C   UNL     1       0.689  -4.701  -6.285  0.00  0.00    -0.059 C 
ATOM    101  H   UNL     1       1.342  -5.255  -6.969  0.00  0.00    +0.024 HD
ATOM    102  H   UNL     1       1.062  -3.675  -6.230  0.00  0.00    +0.024 HD
ATOM    103  H   UNL     1      -0.307  -4.676  -6.737  0.00  0.00    +0.024 HD
ENDBRANCH  98 100
BRANCH  98 104
ATOM    104  C   UNL     1       0.080  -6.744  -4.999  0.00  0.00    -0.080 C 
ATOM    105  C   UNL     1       0.692  -7.936  -4.829  0.00  0.00    -0.048 C 
ATOM    106  H   UNL     1      -0.978  -6.731  -5.247  0.00  0.00    +0.058 HD
BRANCH 105 107
ATOM    107  C   UNL     1       2.169  -8.092  -4.534  0.00  0.00    -0.041 C 
ATOM    108  H   UNL     1       2.740  -7.172  -4.659  0.00  0.00    +0.028 HD
ATOM    109  H   UNL     1       2.316  -8.442  -3.506  0.00  0.00    +0.028 HD
ATOM    110  H   UNL     1       2.615  -8.829  -5.211  0.00  0.00    +0.028 HD
ENDBRANCH 105 107
BRANCH 105 111
ATOM    111  C   UNL     1      -0.028  -9.274  -4.935  0.00  0.00    +0.073 C 
ATOM    112  H   UNL     1       0.503  -9.896  -5.664  0.00  0.00    +0.064 HD
BRANCH 111 113
ATOM    113  C   UNL     1      -1.506  -9.259  -5.330  0.00  0.00    -0.035 C 
ATOM    114  H   UNL     1      -1.656  -8.793  -6.309  0.00  0.00    +0.026 HD
ATOM    115  H   UNL     1      -1.888 -10.288  -5.371  0.00  0.00    +0.026 HD
ATOM    116  H   UNL     1      -2.112  -8.733  -4.585  0.00  0.00    +0.026 HD
ENDBRANCH 111 113
BRANCH 111 117
ATOM    117  O   UNL     1       0.071  -9.931  -3.672  0.00  0.00    -0.388 OA
ATOM    118  H   UNL     1      -0.240  -9.299  -3.002  0.00  0.00    +0.210 HD
ENDBRANCH 111 117
ENDBRANCH 105 111
ENDBRANCH  98 104
ENDBRANCH  95  98
ENDBRANCH  92  95
ENDBRANCH  73  92
ENDBRANCH  61  64
ENDBRANCH   1  61
TORSDOF 27
