REMARK  Name = Cytochalasin B_conf3
REMARK  6 active torsions:
REMARK  status: ('A' for Active; 'I' for Inactive)
REMARK    1  A    between atoms: C_1  and  C_2
REMARK    2  A    between atoms: C_6  and  O_35
REMARK    3  A    between atoms: C_17  and  O_34
REMARK    4  A    between atoms: C_20  and  C_33
REMARK    5  A    between atoms: C_22  and  C_26
REMARK    6  A    between atoms: C_26  and  C_27
REMARK                            x       y       z     vdW  Elec       q    Type
REMARK                         _______ _______ _______ _____ _____    ______ ____
ROOT
ATOM      1  C   UNL     1      -5.611   2.167   0.895  0.00  0.00    -0.040 C 
ATOM      2  C   UNL     1      -5.785   0.635   0.771  0.00  0.00    -0.050 C 
ATOM      3  C   UNL     1      -4.921   0.032  -0.332  0.00  0.00    -0.050 C 
ATOM      4  C   UNL     1      -4.938  -1.508  -0.326  0.00  0.00    -0.023 C 
ATOM      5  C   UNL     1      -3.933  -2.126  -1.321  0.00  0.00    +0.074 C 
ATOM      6  C   UNL     1      -2.561  -1.566  -1.069  0.00  0.00    -0.049 C 
ATOM      7  C   UNL     1      -1.951  -0.663  -1.858  0.00  0.00    +0.021 C 
ATOM      8  C   UNL     1      -0.838   0.190  -1.404  0.00  0.00    +0.333 C 
ATOM      9  O   UNL     1      -0.383   1.090  -2.094  0.00  0.00    -0.246 OA
ATOM     10  O   UNL     1      -0.485  -0.094  -0.130  0.00  0.00    -0.444 OA
ATOM     11  C   UNL     1       0.288   0.885   0.602  0.00  0.00    +0.202 C 
ATOM     12  C   UNL     1      -0.495   2.215   0.828  0.00  0.00    +0.056 C 
ATOM     13  C   UNL     1      -1.893   2.064   1.441  0.00  0.00    -0.078 C 
ATOM     14  C   UNL     1      -3.031   2.566   0.926  0.00  0.00    -0.087 C 
ATOM     15  C   UNL     1      -4.341   2.587   1.680  0.00  0.00    -0.032 C 
ATOM     16  C   UNL     1       0.350   3.188   1.706  0.00  0.00    +0.087 C 
ATOM     17  C   UNL     1       1.841   3.133   1.423  0.00  0.00    -0.045 C 
ATOM     18  C   UNL     1       2.724   3.565   2.342  0.00  0.00    -0.097 C 
ATOM     19  C   UNL     1       2.205   2.541   0.078  0.00  0.00    -0.012 C 
ATOM     20  C   UNL     1       1.719   1.071  -0.019  0.00  0.00    +0.033 C 
ATOM     21  C   UNL     1       2.596   0.027   0.707  0.00  0.00    +0.035 C 
ATOM     22  N   UNL     1       1.911  -0.209   1.945  0.00  0.00    -0.308 N 
ATOM     23  C   UNL     1       0.601   0.197   1.941  0.00  0.00    +0.258 C 
ATOM     24  O   UNL     1      -0.159  -0.014   2.873  0.00  0.00    -0.271 OA
ATOM     25  H   UNL     1      -5.584   2.612  -0.107  0.00  0.00    +0.030 HD
ATOM     26  H   UNL     1      -6.832   0.395   0.544  0.00  0.00    +0.027 HD
ATOM     27  H   UNL     1      -5.557   0.160   1.733  0.00  0.00    +0.027 HD
ATOM     28  H   UNL     1      -5.257   0.402  -1.308  0.00  0.00    +0.027 HD
ATOM     29  H   UNL     1      -3.901   0.386  -0.191  0.00  0.00    +0.027 HD
ATOM     30  H   UNL     1      -4.706  -1.867   0.685  0.00  0.00    +0.029 HD
ATOM     31  H   UNL     1      -5.952  -1.849  -0.570  0.00  0.00    +0.029 HD
ATOM     32  H   UNL     1      -3.907  -3.214  -1.204  0.00  0.00    +0.064 HD
ATOM     33  H   UNL     1      -2.149  -1.801  -0.089  0.00  0.00    +0.060 HD
ATOM     34  H   UNL     1      -2.372  -0.374  -2.816  0.00  0.00    +0.069 HD
ATOM     35  H   UNL     1      -0.647   2.691  -0.150  0.00  0.00    +0.042 HD
ATOM     36  H   UNL     1      -1.937   1.595   2.425  0.00  0.00    +0.057 HD
ATOM     37  H   UNL     1      -3.010   3.089  -0.028  0.00  0.00    +0.057 HD
ATOM     38  H   UNL     1      -4.469   3.627   2.008  0.00  0.00    +0.031 HD
ATOM     39  H   UNL     1      -4.266   1.990   2.598  0.00  0.00    +0.031 HD
ATOM     40  H   UNL     1       0.176   2.974   2.768  0.00  0.00    +0.065 HD
ATOM     41  H   UNL     1       2.381   3.979   3.288  0.00  0.00    +0.054 HD
ATOM     42  H   UNL     1       3.797   3.537   2.192  0.00  0.00    +0.054 HD
ATOM     43  H   UNL     1       1.625   3.112  -0.663  0.00  0.00    +0.035 HD
ATOM     44  H   UNL     1       1.732   0.826  -1.087  0.00  0.00    +0.037 HD
ATOM     45  H   UNL     1       3.589   0.406   0.958  0.00  0.00    +0.051 HD
ATOM     46  H   UNL     1       2.303  -0.707   2.736  0.00  0.00    +0.149 HD
ENDROOT
BRANCH   1  47
ATOM     47  C   UNL     1      -6.841   2.736   1.618  0.00  0.00    -0.062 C 
ATOM     48  H   UNL     1      -6.782   3.828   1.691  0.00  0.00    +0.023 HD
ATOM     49  H   UNL     1      -7.761   2.495   1.073  0.00  0.00    +0.023 HD
ATOM     50  H   UNL     1      -6.929   2.331   2.632  0.00  0.00    +0.023 HD
ENDBRANCH   1  47
BRANCH  19  51
ATOM     51  C   UNL     1       3.661   2.717  -0.374  0.00  0.00    -0.058 C 
ATOM     52  H   UNL     1       3.813   2.264  -1.360  0.00  0.00    +0.024 HD
ATOM     53  H   UNL     1       4.383   2.271   0.315  0.00  0.00    +0.024 HD
ATOM     54  H   UNL     1       3.908   3.782  -0.462  0.00  0.00    +0.024 HD
ENDBRANCH  19  51
BRANCH  21  55
ATOM     55  C   UNL     1       2.731  -1.271  -0.118  0.00  0.00    -0.009 C 
ATOM     56  H   UNL     1       3.135  -1.038  -1.112  0.00  0.00    +0.033 HD
ATOM     57  H   UNL     1       1.749  -1.730  -0.290  0.00  0.00    +0.033 HD
BRANCH  55  58
ATOM     58  C   UNL     1       3.644  -2.281   0.539  0.00  0.00    -0.046 A 
ATOM     59  C   UNL     1       3.112  -3.310   1.328  0.00  0.00    -0.059 A 
ATOM     60  C   UNL     1       3.955  -4.229   1.953  0.00  0.00    -0.062 A 
ATOM     61  C   UNL     1       5.336  -4.128   1.796  0.00  0.00    -0.062 A 
ATOM     62  C   UNL     1       5.875  -3.108   1.015  0.00  0.00    -0.062 A 
ATOM     63  C   UNL     1       5.034  -2.187   0.389  0.00  0.00    -0.059 A 
ATOM     64  H   UNL     1       2.036  -3.400   1.463  0.00  0.00    +0.062 HD
ATOM     65  H   UNL     1       3.534  -5.024   2.563  0.00  0.00    +0.062 HD
ATOM     66  H   UNL     1       5.992  -4.845   2.283  0.00  0.00    +0.062 HD
ATOM     67  H   UNL     1       6.953  -3.030   0.892  0.00  0.00    +0.062 HD
ATOM     68  H   UNL     1       5.472  -1.397  -0.217  0.00  0.00    +0.062 HD
ENDBRANCH  55  58
ENDBRANCH  21  55
BRANCH  16  69
ATOM     69  O   UNL     1      -0.077   4.534   1.481  0.00  0.00    -0.387 OA
ATOM     70  H   UNL     1       0.217   4.793   0.593  0.00  0.00    +0.210 HD
ENDBRANCH  16  69
BRANCH   5  71
ATOM     71  O   UNL     1      -4.341  -1.843  -2.653  0.00  0.00    -0.388 OA
ATOM     72  H   UNL     1      -5.231  -2.216  -2.765  0.00  0.00    +0.210 HD
ENDBRANCH   5  71
TORSDOF 6
