REMARK  Name = Cytochalasin D_conf2
REMARK  10 active torsions:
REMARK  status: ('A' for Active; 'I' for Inactive)
REMARK    1  A    between atoms: C_1  and  C_2
REMARK    2  A    between atoms: C_7  and  O_37
REMARK    3  A    between atoms: C_10  and  C_36
REMARK    4  A    between atoms: C_13  and  O_21
REMARK    5  A    between atoms: C_16  and  C_19
REMARK    6  A    between atoms: C_16  and  O_20
REMARK    7  A    between atoms: O_21  and  C_22
REMARK    8  A    between atoms: C_22  and  C_24
REMARK    9  A    between atoms: C_28  and  C_29
REMARK   10  A    between atoms: C_29  and  C_30
REMARK                            x       y       z     vdW  Elec       q    Type
REMARK                         _______ _______ _______ _____ _____    ______ ____
ROOT
ATOM      1  C   UNL     1      -4.300   1.630   1.797  0.00  0.00    +0.021 C 
ATOM      2  C   UNL     1      -3.275   2.776   1.818  0.00  0.00    -0.025 C 
ATOM      3  C   UNL     1      -2.186   2.599   0.792  0.00  0.00    -0.087 C 
ATOM      4  C   UNL     1      -0.916   2.279   1.096  0.00  0.00    -0.081 C 
ATOM      5  C   UNL     1       0.197   2.090   0.065  0.00  0.00    +0.025 C 
ATOM      6  C   UNL     1       1.274   3.194   0.272  0.00  0.00    +0.084 C 
ATOM      7  C   UNL     1       2.470   3.054  -0.648  0.00  0.00    -0.045 C 
ATOM      8  C   UNL     1       3.538   3.860  -0.499  0.00  0.00    -0.097 C 
ATOM      9  C   UNL     1       2.349   1.960  -1.690  0.00  0.00    -0.015 C 
ATOM     10  C   UNL     1       2.081   0.604  -0.988  0.00  0.00    +0.002 C 
ATOM     11  C   UNL     1       0.837   0.649   0.002  0.00  0.00    +0.101 C 
ATOM     12  C   UNL     1      -0.192  -0.456  -0.429  0.00  0.00    +0.136 C 
ATOM     13  C   UNL     1      -1.216  -0.844   0.621  0.00  0.00    -0.044 C 
ATOM     14  C   UNL     1      -2.547  -0.644   0.566  0.00  0.00    -0.046 C 
ATOM     15  C   UNL     1      -3.528  -0.911   1.678  0.00  0.00    +0.139 C 
ATOM     16  C   UNL     1      -3.730   0.395   2.496  0.00  0.00    +0.171 C 
ATOM     17  O   UNL     1      -3.426   0.425   3.696  0.00  0.00    -0.294 OA
ATOM     18  C   UNL     1       1.479   0.314   1.346  0.00  0.00    +0.224 C 
ATOM     19  O   UNL     1       0.943   0.299   2.443  0.00  0.00    -0.275 OA
ATOM     20  N   UNL     1       2.809   0.056   1.194  0.00  0.00    -0.311 N 
ATOM     21  C   UNL     1       3.287   0.110  -0.151  0.00  0.00    +0.032 C 
ATOM     22  H   UNL     1      -4.562   1.384   0.762  0.00  0.00    +0.038 HD
ATOM     23  H   UNL     1      -3.776   3.726   1.595  0.00  0.00    +0.031 HD
ATOM     24  H   UNL     1      -2.841   2.887   2.820  0.00  0.00    +0.031 HD
ATOM     25  H   UNL     1      -2.472   2.739  -0.249  0.00  0.00    +0.057 HD
ATOM     26  H   UNL     1      -0.645   2.143   2.143  0.00  0.00    +0.057 HD
ATOM     27  H   UNL     1      -0.265   2.291  -0.913  0.00  0.00    +0.038 HD
ATOM     28  H   UNL     1       1.619   3.200   1.314  0.00  0.00    +0.065 HD
ATOM     29  H   UNL     1       4.416   3.804  -1.132  0.00  0.00    +0.054 HD
ATOM     30  H   UNL     1       3.544   4.631   0.268  0.00  0.00    +0.054 HD
ATOM     31  H   UNL     1       1.467   2.198  -2.303  0.00  0.00    +0.035 HD
ATOM     32  H   UNL     1       1.898  -0.115  -1.790  0.00  0.00    +0.034 HD
ATOM     33  H   UNL     1       0.336  -1.383  -0.674  0.00  0.00    +0.079 HD
ATOM     34  H   UNL     1      -0.801  -1.310   1.514  0.00  0.00    +0.061 HD
ATOM     35  H   UNL     1      -2.968  -0.177  -0.321  0.00  0.00    +0.060 HD
ATOM     36  H   UNL     1       3.381  -0.143   2.006  0.00  0.00    +0.149 HD
ATOM     37  H   UNL     1       4.090   0.855  -0.138  0.00  0.00    +0.050 HD
ENDROOT
BRANCH   1  38
ATOM     38  C   UNL     1      -5.584   2.038   2.519  0.00  0.00    -0.055 C 
ATOM     39  H   UNL     1      -6.297   1.206   2.547  0.00  0.00    +0.024 HD
ATOM     40  H   UNL     1      -6.066   2.878   2.010  0.00  0.00    +0.024 HD
ATOM     41  H   UNL     1      -5.386   2.336   3.555  0.00  0.00    +0.024 HD
ENDBRANCH   1  38
BRANCH  15  42
ATOM     42  C   UNL     1      -4.860  -1.442   1.155  0.00  0.00    -0.025 C 
ATOM     43  H   UNL     1      -5.567  -1.588   1.980  0.00  0.00    +0.026 HD
ATOM     44  H   UNL     1      -4.732  -2.420   0.675  0.00  0.00    +0.026 HD
ATOM     45  H   UNL     1      -5.328  -0.766   0.432  0.00  0.00    +0.026 HD
ENDBRANCH  15  42
BRANCH   9  46
ATOM     46  C   UNL     1       3.502   1.852  -2.700  0.00  0.00    -0.058 C 
ATOM     47  H   UNL     1       4.465   1.646  -2.224  0.00  0.00    +0.024 HD
ATOM     48  H   UNL     1       3.603   2.781  -3.272  0.00  0.00    +0.024 HD
ATOM     49  H   UNL     1       3.307   1.048  -3.419  0.00  0.00    +0.024 HD
ENDBRANCH   9  46
BRANCH  21  50
ATOM     50  C   UNL     1       3.930  -1.213  -0.620  0.00  0.00    -0.009 C 
ATOM     51  H   UNL     1       4.302  -1.080  -1.644  0.00  0.00    +0.033 HD
ATOM     52  H   UNL     1       4.824  -1.405  -0.011  0.00  0.00    +0.033 HD
BRANCH  50  53
ATOM     53  C   UNL     1       3.070  -2.453  -0.554  0.00  0.00    -0.046 A 
ATOM     54  C   UNL     1       2.790  -3.073   0.672  0.00  0.00    -0.059 A 
ATOM     55  C   UNL     1       1.982  -4.210   0.728  0.00  0.00    -0.062 A 
ATOM     56  C   UNL     1       1.454  -4.749  -0.442  0.00  0.00    -0.062 A 
ATOM     57  C   UNL     1       1.740  -4.155  -1.668  0.00  0.00    -0.062 A 
ATOM     58  C   UNL     1       2.546  -3.016  -1.725  0.00  0.00    -0.059 A 
ATOM     59  H   UNL     1       3.194  -2.675   1.599  0.00  0.00    +0.062 HD
ATOM     60  H   UNL     1       1.761  -4.673   1.686  0.00  0.00    +0.062 HD
ATOM     61  H   UNL     1       0.820  -5.630  -0.399  0.00  0.00    +0.062 HD
ATOM     62  H   UNL     1       1.324  -4.566  -2.584  0.00  0.00    +0.062 HD
ATOM     63  H   UNL     1       2.739  -2.562  -2.695  0.00  0.00    +0.062 HD
ENDBRANCH  50  53
ENDBRANCH  21  50
BRANCH  15  64
ATOM     64  O   UNL     1      -3.000  -1.922   2.542  0.00  0.00    -0.377 OA
ATOM     65  H   UNL     1      -2.660  -1.447   3.328  0.00  0.00    +0.211 HD
ENDBRANCH  15  64
BRANCH   6  66
ATOM     66  O   UNL     1       0.703   4.476  -0.009  0.00  0.00    -0.387 OA
ATOM     67  H   UNL     1      -0.035   4.596   0.614  0.00  0.00    +0.210 HD
ENDBRANCH   6  66
BRANCH  12  68
ATOM     68  O   UNL     1      -0.922   0.027  -1.590  0.00  0.00    -0.456 OA
BRANCH  68  69
ATOM     69  C   UNL     1      -0.674  -0.515  -2.807  0.00  0.00    +0.305 C 
ATOM     70  O   UNL     1       0.168  -1.359  -3.067  0.00  0.00    -0.251 OA
BRANCH  69  71
ATOM     71  C   UNL     1      -1.608   0.074  -3.820  0.00  0.00    +0.033 C 
ATOM     72  H   UNL     1      -1.657   1.159  -3.701  0.00  0.00    +0.034 HD
ATOM     73  H   UNL     1      -2.599  -0.369  -3.707  0.00  0.00    +0.034 HD
ATOM     74  H   UNL     1      -1.230  -0.137  -4.825  0.00  0.00    +0.034 HD
ENDBRANCH  69  71
ENDBRANCH  68  69
ENDBRANCH  12  68
TORSDOF 10
