REMARK  Name = Cytochalasin B_conf2
REMARK  6 active torsions:
REMARK  status: ('A' for Active; 'I' for Inactive)
REMARK    1  A    between atoms: C_1  and  C_2
REMARK    2  A    between atoms: C_6  and  O_35
REMARK    3  A    between atoms: C_17  and  O_34
REMARK    4  A    between atoms: C_20  and  C_33
REMARK    5  A    between atoms: C_22  and  C_26
REMARK    6  A    between atoms: C_26  and  C_27
REMARK                            x       y       z     vdW  Elec       q    Type
REMARK                         _______ _______ _______ _____ _____    ______ ____
ROOT
ATOM      1  C   UNL     1      -1.305   5.244   0.108  0.00  0.00    -0.040 C 
ATOM      2  C   UNL     1      -1.986   3.939   0.564  0.00  0.00    -0.050 C 
ATOM      3  C   UNL     1      -3.302   4.088   1.329  0.00  0.00    -0.050 C 
ATOM      4  C   UNL     1      -4.204   2.840   1.297  0.00  0.00    -0.023 C 
ATOM      5  C   UNL     1      -3.600   1.517   1.810  0.00  0.00    +0.074 C 
ATOM      6  C   UNL     1      -2.499   0.958   0.959  0.00  0.00    -0.049 C 
ATOM      7  C   UNL     1      -2.644   0.610  -0.332  0.00  0.00    +0.021 C 
ATOM      8  C   UNL     1      -1.521   0.325  -1.245  0.00  0.00    +0.333 C 
ATOM      9  O   UNL     1      -1.668   0.275  -2.457  0.00  0.00    -0.246 OA
ATOM     10  O   UNL     1      -0.355   0.181  -0.579  0.00  0.00    -0.444 OA
ATOM     11  C   UNL     1       0.877   0.165  -1.339  0.00  0.00    +0.202 C 
ATOM     12  C   UNL     1       1.163   1.520  -2.054  0.00  0.00    +0.056 C 
ATOM     13  C   UNL     1       1.021   2.744  -1.151  0.00  0.00    -0.078 C 
ATOM     14  C   UNL     1       0.224   3.801  -1.386  0.00  0.00    -0.087 C 
ATOM     15  C   UNL     1       0.120   4.973  -0.440  0.00  0.00    -0.032 C 
ATOM     16  C   UNL     1       2.570   1.490  -2.717  0.00  0.00    +0.087 C 
ATOM     17  C   UNL     1       2.926   0.138  -3.315  0.00  0.00    -0.045 C 
ATOM     18  C   UNL     1       4.212  -0.190  -3.532  0.00  0.00    -0.097 C 
ATOM     19  C   UNL     1       1.738  -0.763  -3.593  0.00  0.00    -0.012 C 
ATOM     20  C   UNL     1       0.971  -1.087  -2.281  0.00  0.00    +0.033 C 
ATOM     21  C   UNL     1       1.596  -2.188  -1.395  0.00  0.00    +0.035 C 
ATOM     22  N   UNL     1       2.332  -1.461  -0.402  0.00  0.00    -0.308 N 
ATOM     23  C   UNL     1       1.954  -0.147  -0.284  0.00  0.00    +0.258 C 
ATOM     24  O   UNL     1       2.412   0.601   0.565  0.00  0.00    -0.271 OA
ATOM     25  H   UNL     1      -1.907   5.669  -0.707  0.00  0.00    +0.030 HD
ATOM     26  H   UNL     1      -2.183   3.355  -0.341  0.00  0.00    +0.027 HD
ATOM     27  H   UNL     1      -1.282   3.377   1.188  0.00  0.00    +0.027 HD
ATOM     28  H   UNL     1      -3.878   4.919   0.905  0.00  0.00    +0.027 HD
ATOM     29  H   UNL     1      -3.089   4.349   2.372  0.00  0.00    +0.027 HD
ATOM     30  H   UNL     1      -4.582   2.701   0.275  0.00  0.00    +0.029 HD
ATOM     31  H   UNL     1      -5.100   3.062   1.892  0.00  0.00    +0.029 HD
ATOM     32  H   UNL     1      -3.230   1.649   2.833  0.00  0.00    +0.064 HD
ATOM     33  H   UNL     1      -1.512   0.956   1.417  0.00  0.00    +0.060 HD
ATOM     34  H   UNL     1      -3.616   0.648  -0.813  0.00  0.00    +0.069 HD
ATOM     35  H   UNL     1       0.418   1.648  -2.851  0.00  0.00    +0.042 HD
ATOM     36  H   UNL     1       1.634   2.750  -0.250  0.00  0.00    +0.057 HD
ATOM     37  H   UNL     1      -0.383   3.840  -2.288  0.00  0.00    +0.057 HD
ATOM     38  H   UNL     1       0.474   5.868  -0.967  0.00  0.00    +0.031 HD
ATOM     39  H   UNL     1       0.806   4.826   0.405  0.00  0.00    +0.031 HD
ATOM     40  H   UNL     1       3.334   1.778  -1.984  0.00  0.00    +0.065 HD
ATOM     41  H   UNL     1       5.010   0.513  -3.304  0.00  0.00    +0.054 HD
ATOM     42  H   UNL     1       4.518  -1.145  -3.945  0.00  0.00    +0.054 HD
ATOM     43  H   UNL     1       1.053  -0.163  -4.212  0.00  0.00    +0.035 HD
ATOM     44  H   UNL     1      -0.019  -1.434  -2.594  0.00  0.00    +0.037 HD
ATOM     45  H   UNL     1       2.314  -2.811  -1.933  0.00  0.00    +0.051 HD
ATOM     46  H   UNL     1       3.015  -1.869   0.227  0.00  0.00    +0.149 HD
ENDROOT
BRANCH   1  47
ATOM     47  C   UNL     1      -1.226   6.290   1.222  0.00  0.00    -0.062 C 
ATOM     48  H   UNL     1      -0.690   7.182   0.880  0.00  0.00    +0.023 HD
ATOM     49  H   UNL     1      -2.223   6.613   1.538  0.00  0.00    +0.023 HD
ATOM     50  H   UNL     1      -0.703   5.895   2.100  0.00  0.00    +0.023 HD
ENDBRANCH   1  47
BRANCH  19  51
ATOM     51  C   UNL     1       2.012  -2.008  -4.447  0.00  0.00    -0.058 C 
ATOM     52  H   UNL     1       2.380  -1.718  -5.438  0.00  0.00    +0.024 HD
ATOM     53  H   UNL     1       2.757  -2.676  -4.006  0.00  0.00    +0.024 HD
ATOM     54  H   UNL     1       1.091  -2.582  -4.594  0.00  0.00    +0.024 HD
ENDBRANCH  19  51
BRANCH  21  55
ATOM     55  C   UNL     1       0.515  -3.085  -0.755  0.00  0.00    -0.009 C 
ATOM     56  H   UNL     1      -0.119  -3.520  -1.538  0.00  0.00    +0.033 HD
ATOM     57  H   UNL     1      -0.155  -2.497  -0.115  0.00  0.00    +0.033 HD
BRANCH  55  58
ATOM     58  C   UNL     1       1.109  -4.215   0.056  0.00  0.00    -0.046 A 
ATOM     59  C   UNL     1       1.257  -4.091   1.444  0.00  0.00    -0.059 A 
ATOM     60  C   UNL     1       1.826  -5.124   2.189  0.00  0.00    -0.062 A 
ATOM     61  C   UNL     1       2.254  -6.289   1.554  0.00  0.00    -0.062 A 
ATOM     62  C   UNL     1       2.113  -6.421   0.174  0.00  0.00    -0.062 A 
ATOM     63  C   UNL     1       1.545  -5.389  -0.574  0.00  0.00    -0.059 A 
ATOM     64  H   UNL     1       0.930  -3.186   1.954  0.00  0.00    +0.062 HD
ATOM     65  H   UNL     1       1.935  -5.020   3.265  0.00  0.00    +0.062 HD
ATOM     66  H   UNL     1       2.696  -7.093   2.136  0.00  0.00    +0.062 HD
ATOM     67  H   UNL     1       2.446  -7.331  -0.320  0.00  0.00    +0.062 HD
ATOM     68  H   UNL     1       1.442  -5.510  -1.649  0.00  0.00    +0.062 HD
ENDBRANCH  55  58
ENDBRANCH  21  55
BRANCH  16  69
ATOM     69  O   UNL     1       2.625   2.453  -3.772  0.00  0.00    -0.387 OA
ATOM     70  H   UNL     1       2.103   2.109  -4.515  0.00  0.00    +0.210 HD
ENDBRANCH  16  69
BRANCH   5  71
ATOM     71  O   UNL     1      -4.629   0.530   1.850  0.00  0.00    -0.388 OA
ATOM     72  H   UNL     1      -5.289   0.830   2.498  0.00  0.00    +0.210 HD
ENDBRANCH   5  71
TORSDOF 6
