REMARK  Name = Cytochalasin B_conf1
REMARK  6 active torsions:
REMARK  status: ('A' for Active; 'I' for Inactive)
REMARK    1  A    between atoms: C_1  and  C_2
REMARK    2  A    between atoms: C_6  and  O_35
REMARK    3  A    between atoms: C_17  and  O_34
REMARK    4  A    between atoms: C_20  and  C_33
REMARK    5  A    between atoms: C_22  and  C_26
REMARK    6  A    between atoms: C_26  and  C_27
REMARK                            x       y       z     vdW  Elec       q    Type
REMARK                         _______ _______ _______ _____ _____    ______ ____
ROOT
ATOM      1  C   UNL     1       0.612   2.003  -4.063  0.00  0.00    -0.040 C 
ATOM      2  C   UNL     1       1.835   1.193  -3.575  0.00  0.00    -0.050 C 
ATOM      3  C   UNL     1       3.161   1.964  -3.456  0.00  0.00    -0.050 C 
ATOM      4  C   UNL     1       3.165   3.210  -2.560  0.00  0.00    -0.023 C 
ATOM      5  C   UNL     1       3.329   2.963  -1.050  0.00  0.00    +0.074 C 
ATOM      6  C   UNL     1       2.255   2.105  -0.459  0.00  0.00    -0.049 C 
ATOM      7  C   UNL     1       1.141   2.546   0.147  0.00  0.00    +0.021 C 
ATOM      8  C   UNL     1       0.042   1.667   0.592  0.00  0.00    +0.333 C 
ATOM      9  O   UNL     1      -1.014   2.107   1.021  0.00  0.00    -0.246 OA
ATOM     10  O   UNL     1       0.353   0.363   0.422  0.00  0.00    -0.444 OA
ATOM     11  C   UNL     1      -0.705  -0.623   0.505  0.00  0.00    +0.202 C 
ATOM     12  C   UNL     1      -1.787  -0.438  -0.592  0.00  0.00    +0.056 C 
ATOM     13  C   UNL     1      -1.214  -0.242  -1.995  0.00  0.00    -0.078 C 
ATOM     14  C   UNL     1      -1.210   0.932  -2.648  0.00  0.00    -0.087 C 
ATOM     15  C   UNL     1      -0.667   1.134  -4.038  0.00  0.00    -0.032 C 
ATOM     16  C   UNL     1      -2.805  -1.613  -0.563  0.00  0.00    +0.087 C 
ATOM     17  C   UNL     1      -3.038  -2.171   0.831  0.00  0.00    -0.045 C 
ATOM     18  C   UNL     1      -3.395  -3.454   1.013  0.00  0.00    -0.097 C 
ATOM     19  C   UNL     1      -2.778  -1.170   1.942  0.00  0.00    -0.012 C 
ATOM     20  C   UNL     1      -1.279  -0.751   1.957  0.00  0.00    +0.033 C 
ATOM     21  C   UNL     1      -0.314  -1.739   2.651  0.00  0.00    +0.035 C 
ATOM     22  N   UNL     1       0.205  -2.534   1.574  0.00  0.00    -0.308 N 
ATOM     23  C   UNL     1       0.038  -1.960   0.336  0.00  0.00    +0.258 C 
ATOM     24  O   UNL     1       0.455  -2.462  -0.695  0.00  0.00    -0.271 OA
ATOM     25  H   UNL     1       0.452   2.861  -3.400  0.00  0.00    +0.030 HD
ATOM     26  H   UNL     1       2.003   0.360  -4.272  0.00  0.00    +0.027 HD
ATOM     27  H   UNL     1       1.605   0.718  -2.619  0.00  0.00    +0.027 HD
ATOM     28  H   UNL     1       3.939   1.272  -3.111  0.00  0.00    +0.027 HD
ATOM     29  H   UNL     1       3.469   2.271  -4.463  0.00  0.00    +0.027 HD
ATOM     30  H   UNL     1       2.286   3.837  -2.748  0.00  0.00    +0.029 HD
ATOM     31  H   UNL     1       4.012   3.836  -2.874  0.00  0.00    +0.029 HD
ATOM     32  H   UNL     1       4.299   2.496  -0.848  0.00  0.00    +0.064 HD
ATOM     33  H   UNL     1       2.412   1.035  -0.584  0.00  0.00    +0.060 HD
ATOM     34  H   UNL     1       0.951   3.607   0.272  0.00  0.00    +0.069 HD
ATOM     35  H   UNL     1      -2.344   0.482  -0.362  0.00  0.00    +0.042 HD
ATOM     36  H   UNL     1      -0.782  -1.118  -2.477  0.00  0.00    +0.057 HD
ATOM     37  H   UNL     1      -1.641   1.812  -2.172  0.00  0.00    +0.057 HD
ATOM     38  H   UNL     1      -1.459   1.622  -4.620  0.00  0.00    +0.031 HD
ATOM     39  H   UNL     1      -0.477   0.170  -4.527  0.00  0.00    +0.031 HD
ATOM     40  H   UNL     1      -2.480  -2.415  -1.238  0.00  0.00    +0.065 HD
ATOM     41  H   UNL     1      -3.547  -3.887   1.996  0.00  0.00    +0.054 HD
ATOM     42  H   UNL     1      -3.540  -4.124   0.169  0.00  0.00    +0.054 HD
ATOM     43  H   UNL     1      -3.348  -0.269   1.667  0.00  0.00    +0.035 HD
ATOM     44  H   UNL     1      -1.236   0.202   2.496  0.00  0.00    +0.037 HD
ATOM     45  H   UNL     1      -0.824  -2.420   3.336  0.00  0.00    +0.051 HD
ATOM     46  H   UNL     1       0.701  -3.410   1.685  0.00  0.00    +0.149 HD
ENDROOT
BRANCH   1  47
ATOM     47  C   UNL     1       0.836   2.539  -5.481  0.00  0.00    -0.062 C 
ATOM     48  H   UNL     1       1.041   1.726  -6.185  0.00  0.00    +0.023 HD
ATOM     49  H   UNL     1       1.675   3.240  -5.513  0.00  0.00    +0.023 HD
ATOM     50  H   UNL     1      -0.048   3.079  -5.836  0.00  0.00    +0.023 HD
ENDBRANCH   1  47
BRANCH  19  51
ATOM     51  C   UNL     1      -3.315  -1.539   3.330  0.00  0.00    -0.058 C 
ATOM     52  H   UNL     1      -4.406  -1.646   3.301  0.00  0.00    +0.024 HD
ATOM     53  H   UNL     1      -2.907  -2.477   3.715  0.00  0.00    +0.024 HD
ATOM     54  H   UNL     1      -3.083  -0.749   4.053  0.00  0.00    +0.024 HD
ENDBRANCH  19  51
BRANCH  21  55
ATOM     55  C   UNL     1       0.813  -1.005   3.409  0.00  0.00    -0.009 C 
ATOM     56  H   UNL     1       1.426  -0.405   2.725  0.00  0.00    +0.033 HD
ATOM     57  H   UNL     1       0.378  -0.296   4.126  0.00  0.00    +0.033 HD
BRANCH  55  58
ATOM     58  C   UNL     1       1.711  -1.956   4.168  0.00  0.00    -0.046 A 
ATOM     59  C   UNL     1       1.343  -2.420   5.438  0.00  0.00    -0.059 A 
ATOM     60  C   UNL     1       2.163  -3.315   6.127  0.00  0.00    -0.062 A 
ATOM     61  C   UNL     1       3.353  -3.757   5.552  0.00  0.00    -0.062 A 
ATOM     62  C   UNL     1       3.726  -3.304   4.289  0.00  0.00    -0.062 A 
ATOM     63  C   UNL     1       2.909  -2.408   3.598  0.00  0.00    -0.059 A 
ATOM     64  H   UNL     1       0.418  -2.085   5.902  0.00  0.00    +0.062 HD
ATOM     65  H   UNL     1       1.873  -3.668   7.114  0.00  0.00    +0.062 HD
ATOM     66  H   UNL     1       3.991  -4.453   6.090  0.00  0.00    +0.062 HD
ATOM     67  H   UNL     1       4.655  -3.647   3.840  0.00  0.00    +0.062 HD
ATOM     68  H   UNL     1       3.212  -2.065   2.611  0.00  0.00    +0.062 HD
ENDBRANCH  55  58
ENDBRANCH  21  55
BRANCH  16  69
ATOM     69  O   UNL     1      -4.065  -1.138  -1.042  0.00  0.00    -0.387 OA
ATOM     70  H   UNL     1      -4.702  -1.864  -0.931  0.00  0.00    +0.210 HD
ENDBRANCH  16  69
BRANCH   5  71
ATOM     71  O   UNL     1       3.325   4.225  -0.385  0.00  0.00    -0.388 OA
ATOM     72  H   UNL     1       4.079   4.733  -0.729  0.00  0.00    +0.210 HD
ENDBRANCH   5  71
TORSDOF 6
