REMARK  Name = Cytochalasin D_conf1
REMARK  10 active torsions:
REMARK  status: ('A' for Active; 'I' for Inactive)
REMARK    1  A    between atoms: C_1  and  C_2
REMARK    2  A    between atoms: C_7  and  O_37
REMARK    3  A    between atoms: C_10  and  C_36
REMARK    4  A    between atoms: C_13  and  O_21
REMARK    5  A    between atoms: C_16  and  C_19
REMARK    6  A    between atoms: C_16  and  O_20
REMARK    7  A    between atoms: O_21  and  C_22
REMARK    8  A    between atoms: C_22  and  C_24
REMARK    9  A    between atoms: C_28  and  C_29
REMARK   10  A    between atoms: C_29  and  C_30
REMARK                            x       y       z     vdW  Elec       q    Type
REMARK                         _______ _______ _______ _____ _____    ______ ____
ROOT
ATOM      1  C   UNL     1       2.129  -3.583   3.254  0.00  0.00    +0.021 C 
ATOM      2  C   UNL     1       2.576  -4.032   1.852  0.00  0.00    -0.025 C 
ATOM      3  C   UNL     1       2.447  -2.936   0.826  0.00  0.00    -0.087 C 
ATOM      4  C   UNL     1       1.522  -2.925  -0.149  0.00  0.00    -0.081 C 
ATOM      5  C   UNL     1       1.378  -1.812  -1.188  0.00  0.00    +0.025 C 
ATOM      6  C   UNL     1       1.692  -2.390  -2.598  0.00  0.00    +0.084 C 
ATOM      7  C   UNL     1       1.499  -1.390  -3.720  0.00  0.00    -0.045 C 
ATOM      8  C   UNL     1       1.601  -1.784  -5.003  0.00  0.00    -0.097 C 
ATOM      9  C   UNL     1       1.177   0.021  -3.268  0.00  0.00    -0.015 C 
ATOM     10  C   UNL     1      -0.092   0.002  -2.378  0.00  0.00    +0.002 C 
ATOM     11  C   UNL     1       0.011  -1.026  -1.167  0.00  0.00    +0.101 C 
ATOM     12  C   UNL     1      -0.223  -0.244   0.174  0.00  0.00    +0.136 C 
ATOM     13  C   UNL     1      -0.568  -1.095   1.380  0.00  0.00    -0.044 C 
ATOM     14  C   UNL     1       0.175  -1.270   2.489  0.00  0.00    -0.046 C 
ATOM     15  C   UNL     1      -0.126  -2.225   3.615  0.00  0.00    +0.139 C 
ATOM     16  C   UNL     1       0.602  -3.571   3.346  0.00  0.00    +0.171 C 
ATOM     17  O   UNL     1      -0.053  -4.611   3.204  0.00  0.00    -0.294 OA
ATOM     18  C   UNL     1      -1.140  -1.985  -1.455  0.00  0.00    +0.224 C 
ATOM     19  O   UNL     1      -1.431  -3.001  -0.844  0.00  0.00    -0.275 OA
ATOM     20  N   UNL     1      -1.834  -1.588  -2.561  0.00  0.00    -0.311 N 
ATOM     21  C   UNL     1      -1.372  -0.378  -3.163  0.00  0.00    +0.032 C 
ATOM     22  H   UNL     1       2.522  -2.583   3.466  0.00  0.00    +0.038 HD
ATOM     23  H   UNL     1       2.014  -4.920   1.535  0.00  0.00    +0.031 HD
ATOM     24  H   UNL     1       3.632  -4.329   1.876  0.00  0.00    +0.031 HD
ATOM     25  H   UNL     1       3.157  -2.114   0.904  0.00  0.00    +0.057 HD
ATOM     26  H   UNL     1       0.819  -3.756  -0.216  0.00  0.00    +0.057 HD
ATOM     27  H   UNL     1       2.179  -1.092  -0.967  0.00  0.00    +0.038 HD
ATOM     28  H   UNL     1       1.076  -3.277  -2.794  0.00  0.00    +0.065 HD
ATOM     29  H   UNL     1       1.845  -2.815  -5.247  0.00  0.00    +0.054 HD
ATOM     30  H   UNL     1       1.475  -1.109  -5.842  0.00  0.00    +0.054 HD
ATOM     31  H   UNL     1       2.018   0.357  -2.645  0.00  0.00    +0.035 HD
ATOM     32  H   UNL     1      -0.204   1.021  -1.998  0.00  0.00    +0.034 HD
ATOM     33  H   UNL     1      -1.061   0.450   0.059  0.00  0.00    +0.079 HD
ATOM     34  H   UNL     1      -1.516  -1.628   1.306  0.00  0.00    +0.061 HD
ATOM     35  H   UNL     1       1.124  -0.744   2.569  0.00  0.00    +0.060 HD
ATOM     36  H   UNL     1      -2.604  -2.151  -2.902  0.00  0.00    +0.149 HD
ATOM     37  H   UNL     1      -1.134  -0.648  -4.197  0.00  0.00    +0.050 HD
ENDROOT
BRANCH   1  38
ATOM     38  C   UNL     1       2.665  -4.533   4.325  0.00  0.00    -0.055 C 
ATOM     39  H   UNL     1       2.344  -5.565   4.145  0.00  0.00    +0.024 HD
ATOM     40  H   UNL     1       2.306  -4.243   5.318  0.00  0.00    +0.024 HD
ATOM     41  H   UNL     1       3.760  -4.518   4.345  0.00  0.00    +0.024 HD
ENDBRANCH   1  38
BRANCH  15  42
ATOM     42  C   UNL     1       0.265  -1.652   4.974  0.00  0.00    -0.025 C 
ATOM     43  H   UNL     1       1.325  -1.382   5.028  0.00  0.00    +0.026 HD
ATOM     44  H   UNL     1      -0.327  -0.759   5.209  0.00  0.00    +0.026 HD
ATOM     45  H   UNL     1       0.065  -2.378   5.771  0.00  0.00    +0.026 HD
ENDBRANCH  15  42
BRANCH   9  46
ATOM     46  C   UNL     1       1.071   1.081  -4.375  0.00  0.00    -0.058 C 
ATOM     47  H   UNL     1       0.855   2.064  -3.943  0.00  0.00    +0.024 HD
ATOM     48  H   UNL     1       2.018   1.167  -4.921  0.00  0.00    +0.024 HD
ATOM     49  H   UNL     1       0.284   0.858  -5.102  0.00  0.00    +0.024 HD
ENDBRANCH   9  46
BRANCH  21  50
ATOM     50  C   UNL     1      -2.460   0.715  -3.240  0.00  0.00    -0.009 C 
ATOM     51  H   UNL     1      -2.039   1.596  -3.741  0.00  0.00    +0.033 HD
ATOM     52  H   UNL     1      -3.264   0.363  -3.901  0.00  0.00    +0.033 HD
BRANCH  50  53
ATOM     53  C   UNL     1      -3.102   1.135  -1.940  0.00  0.00    -0.046 A 
ATOM     54  C   UNL     1      -2.783   2.367  -1.356  0.00  0.00    -0.059 A 
ATOM     55  C   UNL     1      -3.362   2.753  -0.146  0.00  0.00    -0.062 A 
ATOM     56  C   UNL     1      -4.275   1.917   0.491  0.00  0.00    -0.062 A 
ATOM     57  C   UNL     1      -4.615   0.697  -0.087  0.00  0.00    -0.062 A 
ATOM     58  C   UNL     1      -4.037   0.311  -1.297  0.00  0.00    -0.059 A 
ATOM     59  H   UNL     1      -2.059   3.033  -1.823  0.00  0.00    +0.062 HD
ATOM     60  H   UNL     1      -3.085   3.702   0.305  0.00  0.00    +0.062 HD
ATOM     61  H   UNL     1      -4.718   2.215   1.437  0.00  0.00    +0.062 HD
ATOM     62  H   UNL     1      -5.328   0.043   0.408  0.00  0.00    +0.062 HD
ATOM     63  H   UNL     1      -4.324  -0.644  -1.730  0.00  0.00    +0.062 HD
ENDBRANCH  50  53
ENDBRANCH  21  50
BRANCH  15  64
ATOM     64  O   UNL     1      -1.536  -2.463   3.668  0.00  0.00    -0.377 OA
ATOM     65  H   UNL     1      -1.673  -3.334   3.241  0.00  0.00    +0.211 HD
ENDBRANCH  15  64
BRANCH   6  66
ATOM     66  O   UNL     1       3.066  -2.789  -2.653  0.00  0.00    -0.387 OA
ATOM     67  H   UNL     1       3.180  -3.487  -1.985  0.00  0.00    +0.210 HD
ENDBRANCH   6  66
BRANCH  12  68
ATOM     68  O   UNL     1       0.996   0.485   0.487  0.00  0.00    -0.456 OA
BRANCH  68  69
ATOM     69  C   UNL     1       1.002   1.837   0.401  0.00  0.00    +0.305 C 
ATOM     70  O   UNL     1       0.085   2.542   0.010  0.00  0.00    -0.251 OA
BRANCH  69  71
ATOM     71  C   UNL     1       2.343   2.362   0.816  0.00  0.00    +0.033 C 
ATOM     72  H   UNL     1       3.083   2.125   0.048  0.00  0.00    +0.034 HD
ATOM     73  H   UNL     1       2.286   3.448   0.937  0.00  0.00    +0.034 HD
ATOM     74  H   UNL     1       2.633   1.928   1.777  0.00  0.00    +0.034 HD
ENDBRANCH  69  71
ENDBRANCH  68  69
ENDBRANCH  12  68
TORSDOF 10
