REMARK  Name = Cytochalasin D_conf3
REMARK  10 active torsions:
REMARK  status: ('A' for Active; 'I' for Inactive)
REMARK    1  A    between atoms: C_1  and  C_2
REMARK    2  A    between atoms: C_7  and  O_37
REMARK    3  A    between atoms: C_10  and  C_36
REMARK    4  A    between atoms: C_13  and  O_21
REMARK    5  A    between atoms: C_16  and  C_19
REMARK    6  A    between atoms: C_16  and  O_20
REMARK    7  A    between atoms: O_21  and  C_22
REMARK    8  A    between atoms: C_22  and  C_24
REMARK    9  A    between atoms: C_28  and  C_29
REMARK   10  A    between atoms: C_29  and  C_30
REMARK                            x       y       z     vdW  Elec       q    Type
REMARK                         _______ _______ _______ _____ _____    ______ ____
ROOT
ATOM      1  C   UNL     1       2.002  -2.959  -3.903  0.00  0.00    +0.021 C 
ATOM      2  C   UNL     1       0.833  -1.962  -3.910  0.00  0.00    -0.025 C 
ATOM      3  C   UNL     1       0.952  -0.831  -2.922  0.00  0.00    -0.087 C 
ATOM      4  C   UNL     1      -0.069  -0.448  -2.133  0.00  0.00    -0.081 C 
ATOM      5  C   UNL     1      -0.001   0.638  -1.058  0.00  0.00    +0.025 C 
ATOM      6  C   UNL     1      -0.847   1.849  -1.563  0.00  0.00    +0.084 C 
ATOM      7  C   UNL     1      -1.133   2.880  -0.497  0.00  0.00    -0.045 C 
ATOM      8  C   UNL     1      -2.156   3.743  -0.628  0.00  0.00    -0.097 C 
ATOM      9  C   UNL     1      -0.196   2.808   0.685  0.00  0.00    -0.015 C 
ATOM     10  C   UNL     1      -0.386   1.446   1.407  0.00  0.00    +0.002 C 
ATOM     11  C   UNL     1      -0.416   0.207   0.400  0.00  0.00    +0.101 C 
ATOM     12  C   UNL     1       0.438  -0.958   1.009  0.00  0.00    +0.136 C 
ATOM     13  C   UNL     1       0.468  -2.236   0.190  0.00  0.00    -0.044 C 
ATOM     14  C   UNL     1       1.558  -2.777  -0.387  0.00  0.00    -0.046 C 
ATOM     15  C   UNL     1       1.616  -3.895  -1.411  0.00  0.00    +0.139 C 
ATOM     16  C   UNL     1       2.559  -3.370  -2.539  0.00  0.00    +0.171 C 
ATOM     17  O   UNL     1       3.779  -3.260  -2.343  0.00  0.00    -0.294 OA
ATOM     18  C   UNL     1      -1.881  -0.205   0.446  0.00  0.00    +0.224 C 
ATOM     19  O   UNL     1      -2.445  -0.994  -0.294  0.00  0.00    -0.275 OA
ATOM     20  N   UNL     1      -2.512   0.423   1.481  0.00  0.00    -0.311 N 
ATOM     21  C   UNL     1      -1.698   1.343   2.226  0.00  0.00    +0.032 C 
ATOM     22  H   UNL     1       2.840  -2.449  -4.404  0.00  0.00    +0.038 HD
ATOM     23  H   UNL     1      -0.117  -2.492  -3.771  0.00  0.00    +0.031 HD
ATOM     24  H   UNL     1       0.773  -1.517  -4.913  0.00  0.00    +0.031 HD
ATOM     25  H   UNL     1       1.918  -0.335  -2.843  0.00  0.00    +0.057 HD
ATOM     26  H   UNL     1      -1.034  -0.940  -2.255  0.00  0.00    +0.057 HD
ATOM     27  H   UNL     1       1.050   0.959  -1.011  0.00  0.00    +0.038 HD
ATOM     28  H   UNL     1      -1.795   1.502  -1.996  0.00  0.00    +0.065 HD
ATOM     29  H   UNL     1      -2.781   3.735  -1.517  0.00  0.00    +0.054 HD
ATOM     30  H   UNL     1      -2.391   4.494   0.118  0.00  0.00    +0.054 HD
ATOM     31  H   UNL     1       0.825   2.818   0.276  0.00  0.00    +0.035 HD
ATOM     32  H   UNL     1       0.467   1.363   2.088  0.00  0.00    +0.034 HD
ATOM     33  H   UNL     1       0.012  -1.233   1.981  0.00  0.00    +0.079 HD
ATOM     34  H   UNL     1      -0.505  -2.698   0.035  0.00  0.00    +0.061 HD
ATOM     35  H   UNL     1       2.530  -2.321  -0.190  0.00  0.00    +0.060 HD
ATOM     36  H   UNL     1      -3.501   0.267   1.643  0.00  0.00    +0.149 HD
ATOM     37  H   UNL     1      -2.256   2.283   2.235  0.00  0.00    +0.050 HD
ENDROOT
BRANCH   1  38
ATOM     38  C   UNL     1       1.689  -4.200  -4.736  0.00  0.00    -0.055 C 
ATOM     39  H   UNL     1       2.538  -4.893  -4.739  0.00  0.00    +0.024 HD
ATOM     40  H   UNL     1       1.473  -3.925  -5.773  0.00  0.00    +0.024 HD
ATOM     41  H   UNL     1       0.823  -4.744  -4.346  0.00  0.00    +0.024 HD
ENDBRANCH   1  38
BRANCH  15  42
ATOM     42  C   UNL     1       2.244  -5.144  -0.790  0.00  0.00    -0.025 C 
ATOM     43  H   UNL     1       3.237  -4.949  -0.369  0.00  0.00    +0.026 HD
ATOM     44  H   UNL     1       2.349  -5.935  -1.542  0.00  0.00    +0.026 HD
ATOM     45  H   UNL     1       1.608  -5.550   0.006  0.00  0.00    +0.026 HD
ENDBRANCH  15  42
BRANCH   9  46
ATOM     46  C   UNL     1      -0.218   4.006   1.643  0.00  0.00    -0.058 C 
ATOM     47  H   UNL     1       0.519   3.871   2.442  0.00  0.00    +0.024 HD
ATOM     48  H   UNL     1      -1.194   4.167   2.109  0.00  0.00    +0.024 HD
ATOM     49  H   UNL     1       0.045   4.927   1.110  0.00  0.00    +0.024 HD
ENDBRANCH   9  46
BRANCH  21  50
ATOM     50  C   UNL     1      -1.511   0.848   3.674  0.00  0.00    -0.009 C 
ATOM     51  H   UNL     1      -2.490   0.585   4.100  0.00  0.00    +0.033 HD
ATOM     52  H   UNL     1      -0.936  -0.085   3.691  0.00  0.00    +0.033 HD
BRANCH  50  53
ATOM     53  C   UNL     1      -0.876   1.869   4.587  0.00  0.00    -0.046 A 
ATOM     54  C   UNL     1       0.410   1.660   5.101  0.00  0.00    -0.059 A 
ATOM     55  C   UNL     1       1.003   2.609   5.936  0.00  0.00    -0.062 A 
ATOM     56  C   UNL     1       0.314   3.772   6.271  0.00  0.00    -0.062 A 
ATOM     57  C   UNL     1      -0.972   3.984   5.778  0.00  0.00    -0.062 A 
ATOM     58  C   UNL     1      -1.566   3.036   4.944  0.00  0.00    -0.059 A 
ATOM     59  H   UNL     1       0.960   0.751   4.864  0.00  0.00    +0.062 HD
ATOM     60  H   UNL     1       2.001   2.435   6.331  0.00  0.00    +0.062 HD
ATOM     61  H   UNL     1       0.775   4.508   6.923  0.00  0.00    +0.062 HD
ATOM     62  H   UNL     1      -1.514   4.887   6.047  0.00  0.00    +0.062 HD
ATOM     63  H   UNL     1      -2.574   3.216   4.576  0.00  0.00    +0.062 HD
ENDBRANCH  50  53
ENDBRANCH  21  50
BRANCH  15  64
ATOM     64  O   UNL     1       0.322  -4.270  -1.849  0.00  0.00    -0.377 OA
ATOM     65  H   UNL     1      -0.225  -3.470  -1.902  0.00  0.00    +0.211 HD
ENDBRANCH  15  64
BRANCH   6  66
ATOM     66  O   UNL     1      -0.123   2.528  -2.592  0.00  0.00    -0.387 OA
ATOM     67  H   UNL     1      -0.006   1.891  -3.318  0.00  0.00    +0.210 HD
ENDBRANCH   6  66
BRANCH  12  68
ATOM     68  O   UNL     1       1.792  -0.470   1.162  0.00  0.00    -0.456 OA
BRANCH  68  69
ATOM     69  C   UNL     1       2.392  -0.671   2.365  0.00  0.00    +0.305 C 
ATOM     70  O   UNL     1       1.868  -1.166   3.352  0.00  0.00    -0.251 OA
BRANCH  69  71
ATOM     71  C   UNL     1       3.801  -0.164   2.321  0.00  0.00    +0.033 C 
ATOM     72  H   UNL     1       4.294  -0.379   3.273  0.00  0.00    +0.034 HD
ATOM     73  H   UNL     1       4.353  -0.669   1.524  0.00  0.00    +0.034 HD
ATOM     74  H   UNL     1       3.800   0.918   2.162  0.00  0.00    +0.034 HD
ENDBRANCH  69  71
ENDBRANCH  68  69
ENDBRANCH  12  68
TORSDOF 10
