REMARK  Name = Jasplakinolide_conf2
REMARK  10 active torsions:
REMARK  status: ('A' for Active; 'I' for Inactive)
REMARK    1  A    between atoms: C_1  and  C_2
REMARK    2  A    between atoms: C_4  and  C_47
REMARK    3  A    between atoms: C_9  and  C_40
REMARK    4  A    between atoms: C_13  and  C_29
REMARK    5  A    between atoms: N_14  and  C_28
REMARK    6  A    between atoms: C_17  and  C_27
REMARK    7  A    between atoms: C_21  and  C_26
REMARK    8  A    between atoms: C_23  and  C_25
REMARK    9  A    between atoms: C_29  and  C_30
REMARK   10  A    between atoms: C_43  and  O_46
REMARK                            x       y       z     vdW  Elec       q    Type
REMARK                         _______ _______ _______ _____ _____    ______ ____
ROOT
ATOM      1  C   UNL     1       5.638   0.799   1.614  0.00  0.00    -0.022 C 
ATOM      2  C   UNL     1       5.179   1.058   0.168  0.00  0.00    -0.010 C 
ATOM      3  C   UNL     1       4.062   0.122  -0.331  0.00  0.00    +0.101 C 
ATOM      4  O   UNL     1       3.586   0.689  -1.573  0.00  0.00    -0.462 OA
ATOM      5  C   UNL     1       2.325   0.334  -1.948  0.00  0.00    +0.309 C 
ATOM      6  O   UNL     1       1.621  -0.473  -1.358  0.00  0.00    -0.251 OA
ATOM      7  C   UNL     1       1.911   1.155  -3.146  0.00  0.00    +0.067 C 
ATOM      8  C   UNL     1       0.734   0.526  -3.900  0.00  0.00    +0.058 C 
ATOM      9  N   UNL     1      -0.478   0.508  -3.102  0.00  0.00    -0.306 N 
ATOM     10  C   UNL     1      -1.418  -0.500  -3.209  0.00  0.00    +0.234 C 
ATOM     11  O   UNL     1      -1.378  -1.383  -4.061  0.00  0.00    -0.274 OA
ATOM     12  C   UNL     1      -2.448  -0.474  -2.067  0.00  0.00    +0.106 C 
ATOM     13  N   UNL     1      -1.759  -0.941  -0.834  0.00  0.00    -0.291 N 
ATOM     14  C   UNL     1      -1.260   0.030   0.034  0.00  0.00    +0.236 C 
ATOM     15  O   UNL     1      -1.324   1.237  -0.245  0.00  0.00    -0.274 OA
ATOM     16  C   UNL     1      -0.643  -0.419   1.380  0.00  0.00    +0.097 C 
ATOM     17  N   UNL     1       0.002   0.743   1.996  0.00  0.00    -0.304 N 
ATOM     18  C   UNL     1       0.965   0.627   2.971  0.00  0.00    +0.217 C 
ATOM     19  O   UNL     1       1.385  -0.458   3.364  0.00  0.00    -0.275 OA
ATOM     20  C   UNL     1       1.380   1.961   3.584  0.00  0.00    +0.036 C 
ATOM     21  C   UNL     1       2.811   1.911   4.148  0.00  0.00    -0.021 C 
ATOM     22  C   UNL     1       3.884   2.043   3.074  0.00  0.00    -0.076 C 
ATOM     23  C   UNL     1       4.526   0.942   2.630  0.00  0.00    -0.082 C 
ATOM     24  H   UNL     1       5.965  -0.247   1.675  0.00  0.00    +0.034 HD
ATOM     25  H   UNL     1       6.040   0.974  -0.513  0.00  0.00    +0.031 HD
ATOM     26  H   UNL     1       4.839   2.095   0.058  0.00  0.00    +0.031 HD
ATOM     27  H   UNL     1       3.241   0.103   0.394  0.00  0.00    +0.073 HD
ATOM     28  H   UNL     1       2.774   1.231  -3.821  0.00  0.00    +0.040 HD
ATOM     29  H   UNL     1       1.667   2.160  -2.783  0.00  0.00    +0.040 HD
ATOM     30  H   UNL     1       0.999  -0.519  -4.112  0.00  0.00    +0.055 HD
ATOM     31  H   UNL     1      -0.585   1.166  -2.333  0.00  0.00    +0.149 HD
ATOM     32  H   UNL     1      -2.730   0.577  -1.933  0.00  0.00    +0.060 HD
ATOM     33  H   UNL     1       0.131  -1.172   1.208  0.00  0.00    +0.059 HD
ATOM     34  H   UNL     1      -0.252   1.648   1.618  0.00  0.00    +0.149 HD
ATOM     35  H   UNL     1       1.299   2.744   2.822  0.00  0.00    +0.039 HD
ATOM     36  H   UNL     1       2.959   2.725   4.870  0.00  0.00    +0.032 HD
ATOM     37  H   UNL     1       2.966   0.987   4.725  0.00  0.00    +0.032 HD
ATOM     38  H   UNL     1       4.213  -0.018   3.051  0.00  0.00    +0.057 HD
ENDROOT
BRANCH   8  39
ATOM     39  C   UNL     1       0.466   1.236  -5.218  0.00  0.00    -0.026 A 
ATOM     40  C   UNL     1       0.277   2.627  -5.286  0.00  0.00    -0.053 A 
ATOM     41  C   UNL     1       0.033   3.252  -6.510  0.00  0.00    -0.020 A 
ATOM     42  C   UNL     1      -0.040   2.493  -7.670  0.00  0.00    +0.117 A 
ATOM     43  C   UNL     1       0.122   1.113  -7.628  0.00  0.00    -0.020 A 
ATOM     44  C   UNL     1       0.370   0.488  -6.404  0.00  0.00    -0.053 A 
ATOM     45  H   UNL     1       0.307   3.238  -4.388  0.00  0.00    +0.062 HD
ATOM     46  H   UNL     1      -0.108   4.328  -6.557  0.00  0.00    +0.065 HD
ATOM     47  H   UNL     1       0.051   0.509  -8.527  0.00  0.00    +0.065 HD
ATOM     48  H   UNL     1       0.472  -0.596  -6.375  0.00  0.00    +0.062 HD
BRANCH  42  49
ATOM     49  O   UNL     1      -0.285   3.146  -8.842  0.00  0.00    -0.507 OA
ATOM     50  H   UNL     1      -0.344   2.486  -9.553  0.00  0.00    +0.292 HD
ENDBRANCH  42  49
ENDBRANCH   8  39
BRANCH   1  51
ATOM     51  C   UNL     1       6.880   1.623   1.966  0.00  0.00    -0.059 C 
ATOM     52  H   UNL     1       6.740   2.691   1.789  0.00  0.00    +0.024 HD
ATOM     53  H   UNL     1       7.731   1.306   1.354  0.00  0.00    +0.024 HD
ATOM     54  H   UNL     1       7.159   1.484   3.017  0.00  0.00    +0.024 HD
ENDBRANCH   1  51
BRANCH  22  55
ATOM     55  C   UNL     1       4.147   3.456   2.628  0.00  0.00    -0.044 C 
ATOM     56  H   UNL     1       3.205   3.986   2.446  0.00  0.00    +0.027 HD
ATOM     57  H   UNL     1       4.693   3.997   3.407  0.00  0.00    +0.027 HD
ATOM     58  H   UNL     1       4.718   3.521   1.703  0.00  0.00    +0.027 HD
ENDBRANCH  22  55
BRANCH  20  59
ATOM     59  C   UNL     1       0.382   2.284   4.700  0.00  0.00    -0.054 C 
ATOM     60  H   UNL     1       0.608   3.253   5.154  0.00  0.00    +0.024 HD
ATOM     61  H   UNL     1       0.404   1.521   5.487  0.00  0.00    +0.024 HD
ATOM     62  H   UNL     1      -0.643   2.326   4.316  0.00  0.00    +0.024 HD
ENDBRANCH  20  59
BRANCH  16  63
ATOM     63  C   UNL     1      -1.739  -0.947   2.304  0.00  0.00    -0.038 C 
ATOM     64  H   UNL     1      -2.268  -1.802   1.872  0.00  0.00    +0.025 HD
ATOM     65  H   UNL     1      -2.488  -0.171   2.503  0.00  0.00    +0.025 HD
ATOM     66  H   UNL     1      -1.324  -1.260   3.268  0.00  0.00    +0.025 HD
ENDBRANCH  16  63
BRANCH  13  67
ATOM     67  C   UNL     1      -1.269  -2.319  -0.811  0.00  0.00    +0.004 C 
ATOM     68  H   UNL     1      -1.020  -2.654   0.196  0.00  0.00    +0.043 HD
ATOM     69  H   UNL     1      -0.361  -2.378  -1.417  0.00  0.00    +0.043 HD
ATOM     70  H   UNL     1      -2.012  -3.003  -1.214  0.00  0.00    +0.043 HD
ENDBRANCH  13  67
BRANCH   3  71
ATOM     71  C   UNL     1       4.574  -1.295  -0.590  0.00  0.00    -0.028 C 
ATOM     72  H   UNL     1       4.941  -1.767   0.326  0.00  0.00    +0.027 HD
ATOM     73  H   UNL     1       5.381  -1.289  -1.331  0.00  0.00    +0.027 HD
ATOM     74  H   UNL     1       3.783  -1.930  -1.000  0.00  0.00    +0.027 HD
ENDBRANCH   3  71
BRANCH  12  75
ATOM     75  C   UNL     1      -3.729  -1.246  -2.431  0.00  0.00    +0.003 C 
ATOM     76  H   UNL     1      -3.543  -2.323  -2.520  0.00  0.00    +0.034 HD
ATOM     77  H   UNL     1      -4.066  -0.939  -3.429  0.00  0.00    +0.034 HD
BRANCH  75  78
ATOM     78  C   UNL     1      -4.846  -0.994  -1.452  0.00  0.00    -0.006 A 
ATOM     79  C   UNL     1      -5.672   0.111  -1.394  0.00  0.00    +0.087 A 
ATOM     80  N   UNL     1      -6.526  -0.021  -0.340  0.00  0.00    -0.349 N 
ATOM     81  C   UNL     1      -6.296  -1.211   0.307  0.00  0.00    +0.048 A 
ATOM     82  C   UNL     1      -6.923  -1.760   1.434  0.00  0.00    -0.038 A 
ATOM     83  C   UNL     1      -6.490  -3.012   1.871  0.00  0.00    -0.060 A 
ATOM     84  C   UNL     1      -5.472  -3.689   1.207  0.00  0.00    -0.061 A 
ATOM     85  C   UNL     1      -4.854  -3.125   0.084  0.00  0.00    -0.052 A 
ATOM     86  C   UNL     1      -5.261  -1.855  -0.377  0.00  0.00    +0.004 A 
ATOM     87 BR   UNL     1      -5.666   1.620  -2.553  0.00  0.00    -0.031 Br
ATOM     88  H   UNL     1      -7.224   0.659  -0.077  0.00  0.00    +0.166 HD
ATOM     89  H   UNL     1      -7.721  -1.237   1.952  0.00  0.00    +0.064 HD
ATOM     90  H   UNL     1      -6.959  -3.467   2.741  0.00  0.00    +0.062 HD
ATOM     91  H   UNL     1      -5.153  -4.667   1.560  0.00  0.00    +0.062 HD
ATOM     92  H   UNL     1      -4.072  -3.675  -0.428  0.00  0.00    +0.062 HD
ENDBRANCH  75  78
ENDBRANCH  12  75
TORSDOF 10
