REMARK  Name = Jasplakinolide_conf1
REMARK  10 active torsions:
REMARK  status: ('A' for Active; 'I' for Inactive)
REMARK    1  A    between atoms: C_1  and  C_2
REMARK    2  A    between atoms: C_4  and  C_47
REMARK    3  A    between atoms: C_9  and  C_40
REMARK    4  A    between atoms: C_13  and  C_29
REMARK    5  A    between atoms: N_14  and  C_28
REMARK    6  A    between atoms: C_17  and  C_27
REMARK    7  A    between atoms: C_21  and  C_26
REMARK    8  A    between atoms: C_23  and  C_25
REMARK    9  A    between atoms: C_29  and  C_30
REMARK   10  A    between atoms: C_43  and  O_46
REMARK                            x       y       z     vdW  Elec       q    Type
REMARK                         _______ _______ _______ _____ _____    ______ ____
ROOT
ATOM      1  C   UNL     1      -3.106  -3.023   0.011  0.00  0.00    -0.022 C 
ATOM      2  C   UNL     1      -4.165  -1.895   0.060  0.00  0.00    -0.010 C 
ATOM      3  C   UNL     1      -3.650  -0.473  -0.238  0.00  0.00    +0.101 C 
ATOM      4  O   UNL     1      -2.720  -0.118   0.805  0.00  0.00    -0.462 OA
ATOM      5  C   UNL     1      -2.528   1.209   1.017  0.00  0.00    +0.309 C 
ATOM      6  O   UNL     1      -3.112   2.110   0.428  0.00  0.00    -0.251 OA
ATOM      7  C   UNL     1      -1.566   1.456   2.146  0.00  0.00    +0.067 C 
ATOM      8  C   UNL     1      -0.243   0.700   1.982  0.00  0.00    +0.058 C 
ATOM      9  N   UNL     1       0.512   1.175   0.833  0.00  0.00    -0.306 N 
ATOM     10  C   UNL     1       1.216   0.321   0.005  0.00  0.00    +0.234 C 
ATOM     11  O   UNL     1       1.241  -0.897   0.175  0.00  0.00    -0.274 OA
ATOM     12  C   UNL     1       1.980   1.030  -1.141  0.00  0.00    +0.106 C 
ATOM     13  N   UNL     1       1.852   0.249  -2.396  0.00  0.00    -0.291 N 
ATOM     14  C   UNL     1       0.833   0.589  -3.277  0.00  0.00    +0.236 C 
ATOM     15  O   UNL     1      -0.019   1.435  -2.979  0.00  0.00    -0.274 OA
ATOM     16  C   UNL     1       0.748  -0.136  -4.640  0.00  0.00    +0.097 C 
ATOM     17  N   UNL     1      -0.452  -0.965  -4.613  0.00  0.00    -0.304 N 
ATOM     18  C   UNL     1      -0.404  -2.338  -4.630  0.00  0.00    +0.217 C 
ATOM     19  O   UNL     1       0.641  -2.970  -4.753  0.00  0.00    -0.275 OA
ATOM     20  C   UNL     1      -1.768  -3.008  -4.534  0.00  0.00    +0.036 C 
ATOM     21  C   UNL     1      -1.754  -4.158  -3.515  0.00  0.00    -0.021 C 
ATOM     22  C   UNL     1      -1.746  -3.670  -2.074  0.00  0.00    -0.076 C 
ATOM     23  C   UNL     1      -2.907  -3.530  -1.403  0.00  0.00    -0.082 C 
ATOM     24  H   UNL     1      -2.172  -2.640   0.434  0.00  0.00    +0.034 HD
ATOM     25  H   UNL     1      -4.997  -2.124  -0.618  0.00  0.00    +0.031 HD
ATOM     26  H   UNL     1      -4.590  -1.870   1.073  0.00  0.00    +0.031 HD
ATOM     27  H   UNL     1      -4.522   0.193  -0.187  0.00  0.00    +0.073 HD
ATOM     28  H   UNL     1      -2.073   1.174   3.076  0.00  0.00    +0.040 HD
ATOM     29  H   UNL     1      -1.393   2.539   2.185  0.00  0.00    +0.040 HD
ATOM     30  H   UNL     1      -0.473  -0.362   1.825  0.00  0.00    +0.055 HD
ATOM     31  H   UNL     1       0.640   2.175   0.725  0.00  0.00    +0.149 HD
ATOM     32  H   UNL     1       1.475   1.990  -1.305  0.00  0.00    +0.060 HD
ATOM     33  H   UNL     1       1.632  -0.748  -4.830  0.00  0.00    +0.059 HD
ATOM     34  H   UNL     1      -1.327  -0.494  -4.410  0.00  0.00    +0.149 HD
ATOM     35  H   UNL     1      -2.523  -2.269  -4.238  0.00  0.00    +0.039 HD
ATOM     36  H   UNL     1      -2.645  -4.781  -3.670  0.00  0.00    +0.032 HD
ATOM     37  H   UNL     1      -0.902  -4.828  -3.682  0.00  0.00    +0.032 HD
ATOM     38  H   UNL     1      -3.830  -3.790  -1.923  0.00  0.00    +0.057 HD
ENDROOT
BRANCH   8  39
ATOM     39  C   UNL     1       0.632   0.807   3.226  0.00  0.00    -0.026 A 
ATOM     40  C   UNL     1       0.845   2.028   3.890  0.00  0.00    -0.053 A 
ATOM     41  C   UNL     1       1.676   2.094   5.011  0.00  0.00    -0.020 A 
ATOM     42  C   UNL     1       2.315   0.948   5.465  0.00  0.00    +0.117 A 
ATOM     43  C   UNL     1       2.130  -0.271   4.823  0.00  0.00    -0.020 A 
ATOM     44  C   UNL     1       1.294  -0.337   3.704  0.00  0.00    -0.053 A 
ATOM     45  H   UNL     1       0.385   2.947   3.535  0.00  0.00    +0.062 HD
ATOM     46  H   UNL     1       1.832   3.042   5.518  0.00  0.00    +0.065 HD
ATOM     47  H   UNL     1       2.635  -1.171   5.159  0.00  0.00    +0.065 HD
ATOM     48  H   UNL     1       1.177  -1.289   3.187  0.00  0.00    +0.062 HD
BRANCH  42  49
ATOM     49  O   UNL     1       3.142   1.066   6.543  0.00  0.00    -0.507 OA
ATOM     50  H   UNL     1       3.461   0.179   6.782  0.00  0.00    +0.292 HD
ENDBRANCH  42  49
ENDBRANCH   8  39
BRANCH   1  51
ATOM     51  C   UNL     1      -3.557  -4.202   0.881  0.00  0.00    -0.059 C 
ATOM     52  H   UNL     1      -3.665  -3.894   1.927  0.00  0.00    +0.024 HD
ATOM     53  H   UNL     1      -2.824  -5.017   0.852  0.00  0.00    +0.024 HD
ATOM     54  H   UNL     1      -4.522  -4.604   0.547  0.00  0.00    +0.024 HD
ENDBRANCH   1  51
BRANCH  22  55
ATOM     55  C   UNL     1      -0.386  -3.406  -1.482  0.00  0.00    -0.044 C 
ATOM     56  H   UNL     1       0.323  -4.185  -1.785  0.00  0.00    +0.027 HD
ATOM     57  H   UNL     1      -0.005  -2.440  -1.823  0.00  0.00    +0.027 HD
ATOM     58  H   UNL     1      -0.390  -3.405  -0.389  0.00  0.00    +0.027 HD
ENDBRANCH  22  55
BRANCH  20  59
ATOM     59  C   UNL     1      -2.135  -3.521  -5.927  0.00  0.00    -0.054 C 
ATOM     60  H   UNL     1      -1.427  -4.285  -6.270  0.00  0.00    +0.024 HD
ATOM     61  H   UNL     1      -3.138  -3.959  -5.929  0.00  0.00    +0.024 HD
ATOM     62  H   UNL     1      -2.121  -2.705  -6.658  0.00  0.00    +0.024 HD
ENDBRANCH  20  59
BRANCH  16  63
ATOM     63  C   UNL     1       0.644   0.890  -5.764  0.00  0.00    -0.038 C 
ATOM     64  H   UNL     1       0.581   0.394  -6.738  0.00  0.00    +0.025 HD
ATOM     65  H   UNL     1      -0.247   1.520  -5.658  0.00  0.00    +0.025 HD
ATOM     66  H   UNL     1       1.518   1.549  -5.770  0.00  0.00    +0.025 HD
ENDBRANCH  16  63
BRANCH  13  67
ATOM     67  C   UNL     1       2.686  -0.937  -2.565  0.00  0.00    +0.004 C 
ATOM     68  H   UNL     1       2.121  -1.752  -3.020  0.00  0.00    +0.043 HD
ATOM     69  H   UNL     1       3.061  -1.297  -1.603  0.00  0.00    +0.043 HD
ATOM     70  H   UNL     1       3.532  -0.670  -3.209  0.00  0.00    +0.043 HD
ENDBRANCH  13  67
BRANCH   3  71
ATOM     71  C   UNL     1      -2.983  -0.316  -1.600  0.00  0.00    -0.028 C 
ATOM     72  H   UNL     1      -2.828   0.743  -1.831  0.00  0.00    +0.027 HD
ATOM     73  H   UNL     1      -1.989  -0.769  -1.614  0.00  0.00    +0.027 HD
ATOM     74  H   UNL     1      -3.597  -0.741  -2.397  0.00  0.00    +0.027 HD
ENDBRANCH   3  71
BRANCH  12  75
ATOM     75  C   UNL     1       3.442   1.341  -0.765  0.00  0.00    +0.003 C 
ATOM     76  H   UNL     1       4.013   0.415  -0.651  0.00  0.00    +0.034 HD
ATOM     77  H   UNL     1       3.917   1.873  -1.601  0.00  0.00    +0.034 HD
BRANCH  75  78
ATOM     78  C   UNL     1       3.597   2.174   0.473  0.00  0.00    -0.006 A 
ATOM     79  C   UNL     1       4.140   1.786   1.681  0.00  0.00    +0.087 A 
ATOM     80  N   UNL     1       4.051   2.819   2.564  0.00  0.00    -0.349 N 
ATOM     81  C   UNL     1       3.470   3.908   1.958  0.00  0.00    +0.048 A 
ATOM     82  C   UNL     1       3.173   5.173   2.478  0.00  0.00    -0.038 A 
ATOM     83  C   UNL     1       2.570   6.098   1.621  0.00  0.00    -0.060 A 
ATOM     84  C   UNL     1       2.284   5.770   0.299  0.00  0.00    -0.061 A 
ATOM     85  C   UNL     1       2.589   4.500  -0.204  0.00  0.00    -0.052 A 
ATOM     86  C   UNL     1       3.191   3.542   0.640  0.00  0.00    +0.004 A 
ATOM     87 BR   UNL     1       4.885   0.092   2.128  0.00  0.00    -0.031 Br
ATOM     88  H   UNL     1       4.341   2.773   3.531  0.00  0.00    +0.166 HD
ATOM     89  H   UNL     1       3.403   5.434   3.506  0.00  0.00    +0.064 HD
ATOM     90  H   UNL     1       2.328   7.091   1.993  0.00  0.00    +0.062 HD
ATOM     91  H   UNL     1       1.822   6.508  -0.352  0.00  0.00    +0.062 HD
ATOM     92  H   UNL     1       2.363   4.267  -1.240  0.00  0.00    +0.062 HD
ENDBRANCH  75  78
ENDBRANCH  12  75
TORSDOF 10
