REMARK  Name = Jasplakinolide_conf3
REMARK  10 active torsions:
REMARK  status: ('A' for Active; 'I' for Inactive)
REMARK    1  A    between atoms: C_1  and  C_2
REMARK    2  A    between atoms: C_4  and  C_47
REMARK    3  A    between atoms: C_9  and  C_40
REMARK    4  A    between atoms: C_13  and  C_29
REMARK    5  A    between atoms: N_14  and  C_28
REMARK    6  A    between atoms: C_17  and  C_27
REMARK    7  A    between atoms: C_21  and  C_26
REMARK    8  A    between atoms: C_23  and  C_25
REMARK    9  A    between atoms: C_29  and  C_30
REMARK   10  A    between atoms: C_43  and  O_46
REMARK                            x       y       z     vdW  Elec       q    Type
REMARK                         _______ _______ _______ _____ _____    ______ ____
ROOT
ATOM      1  C   UNL     1      -3.690  -0.145  -1.328  0.00  0.00    -0.022 C 
ATOM      2  C   UNL     1      -3.582  -0.915  -2.665  0.00  0.00    -0.010 C 
ATOM      3  C   UNL     1      -2.962  -0.067  -3.789  0.00  0.00    +0.101 C 
ATOM      4  O   UNL     1      -1.526  -0.198  -3.690  0.00  0.00    -0.462 OA
ATOM      5  C   UNL     1      -0.782   0.806  -4.235  0.00  0.00    +0.309 C 
ATOM      6  O   UNL     1      -1.229   1.842  -4.704  0.00  0.00    -0.251 OA
ATOM      7  C   UNL     1       0.665   0.393  -4.309  0.00  0.00    +0.067 C 
ATOM      8  C   UNL     1       1.603   1.478  -3.771  0.00  0.00    +0.058 C 
ATOM      9  N   UNL     1       1.821   1.310  -2.342  0.00  0.00    -0.306 N 
ATOM     10  C   UNL     1       1.357   2.187  -1.384  0.00  0.00    +0.234 C 
ATOM     11  O   UNL     1       0.809   3.248  -1.672  0.00  0.00    -0.274 OA
ATOM     12  C   UNL     1       1.777   1.806   0.060  0.00  0.00    +0.106 C 
ATOM     13  N   UNL     1       1.930   0.333   0.244  0.00  0.00    -0.291 N 
ATOM     14  C   UNL     1       0.799  -0.460   0.078  0.00  0.00    +0.236 C 
ATOM     15  O   UNL     1      -0.228   0.012  -0.421  0.00  0.00    -0.274 OA
ATOM     16  C   UNL     1       0.852  -1.960   0.435  0.00  0.00    +0.097 C 
ATOM     17  N   UNL     1      -0.525  -2.407   0.645  0.00  0.00    -0.304 N 
ATOM     18  C   UNL     1      -1.005  -2.858   1.850  0.00  0.00    +0.217 C 
ATOM     19  O   UNL     1      -0.303  -2.954   2.852  0.00  0.00    -0.275 OA
ATOM     20  C   UNL     1      -2.486  -3.240   1.822  0.00  0.00    +0.036 C 
ATOM     21  C   UNL     1      -3.392  -2.030   2.122  0.00  0.00    -0.021 C 
ATOM     22  C   UNL     1      -3.338  -0.922   1.086  0.00  0.00    -0.076 C 
ATOM     23  C   UNL     1      -3.787  -1.121  -0.171  0.00  0.00    -0.082 C 
ATOM     24  H   UNL     1      -2.785   0.463  -1.216  0.00  0.00    +0.034 HD
ATOM     25  H   UNL     1      -4.584  -1.257  -2.955  0.00  0.00    +0.031 HD
ATOM     26  H   UNL     1      -2.965  -1.813  -2.523  0.00  0.00    +0.031 HD
ATOM     27  H   UNL     1      -3.264   0.982  -3.696  0.00  0.00    +0.073 HD
ATOM     28  H   UNL     1       0.809  -0.552  -3.770  0.00  0.00    +0.040 HD
ATOM     29  H   UNL     1       0.853   0.186  -5.371  0.00  0.00    +0.040 HD
ATOM     30  H   UNL     1       1.157   2.464  -3.947  0.00  0.00    +0.055 HD
ATOM     31  H   UNL     1       2.333   0.501  -2.017  0.00  0.00    +0.149 HD
ATOM     32  H   UNL     1       2.787   2.232   0.147  0.00  0.00    +0.060 HD
ATOM     33  H   UNL     1       1.417  -2.104   1.359  0.00  0.00    +0.059 HD
ATOM     34  H   UNL     1      -1.196  -2.132  -0.067  0.00  0.00    +0.149 HD
ATOM     35  H   UNL     1      -2.717  -3.645   0.828  0.00  0.00    +0.039 HD
ATOM     36  H   UNL     1      -3.134  -1.621   3.108  0.00  0.00    +0.032 HD
ATOM     37  H   UNL     1      -4.435  -2.365   2.205  0.00  0.00    +0.032 HD
ATOM     38  H   UNL     1      -4.244  -2.082  -0.408  0.00  0.00    +0.057 HD
ENDROOT
BRANCH   8  39
ATOM     39  C   UNL     1       2.968   1.440  -4.447  0.00  0.00    -0.026 A 
ATOM     40  C   UNL     1       3.674   0.239  -4.636  0.00  0.00    -0.053 A 
ATOM     41  C   UNL     1       4.935   0.242  -5.235  0.00  0.00    -0.020 A 
ATOM     42  C   UNL     1       5.502   1.443  -5.641  0.00  0.00    +0.117 A 
ATOM     43  C   UNL     1       4.831   2.646  -5.454  0.00  0.00    -0.020 A 
ATOM     44  C   UNL     1       3.569   2.643  -4.854  0.00  0.00    -0.053 A 
ATOM     45  H   UNL     1       3.252  -0.712  -4.318  0.00  0.00    +0.062 HD
ATOM     46  H   UNL     1       5.474  -0.689  -5.385  0.00  0.00    +0.065 HD
ATOM     47  H   UNL     1       5.268   3.591  -5.762  0.00  0.00    +0.065 HD
ATOM     48  H   UNL     1       3.054   3.591  -4.700  0.00  0.00    +0.062 HD
BRANCH  42  49
ATOM     49  O   UNL     1       6.734   1.399  -6.222  0.00  0.00    -0.507 OA
ATOM     50  H   UNL     1       6.992   2.303  -6.468  0.00  0.00    +0.292 HD
ENDBRANCH  42  49
ENDBRANCH   8  39
BRANCH   1  51
ATOM     51  C   UNL     1      -4.912   0.780  -1.329  0.00  0.00    -0.059 C 
ATOM     52  H   UNL     1      -4.981   1.343  -0.391  0.00  0.00    +0.024 HD
ATOM     53  H   UNL     1      -5.843   0.214  -1.446  0.00  0.00    +0.024 HD
ATOM     54  H   UNL     1      -4.858   1.509  -2.143  0.00  0.00    +0.024 HD
ENDBRANCH   1  51
BRANCH  22  55
ATOM     55  C   UNL     1      -2.767   0.378   1.589  0.00  0.00    -0.044 C 
ATOM     56  H   UNL     1      -2.735   1.166   0.833  0.00  0.00    +0.027 HD
ATOM     57  H   UNL     1      -3.373   0.753   2.420  0.00  0.00    +0.027 HD
ATOM     58  H   UNL     1      -1.749   0.224   1.951  0.00  0.00    +0.027 HD
ENDBRANCH  22  55
BRANCH  20  59
ATOM     59  C   UNL     1      -2.749  -4.351   2.841  0.00  0.00    -0.054 C 
ATOM     60  H   UNL     1      -2.568  -4.008   3.866  0.00  0.00    +0.024 HD
ATOM     61  H   UNL     1      -2.092  -5.209   2.658  0.00  0.00    +0.024 HD
ATOM     62  H   UNL     1      -3.785  -4.700   2.777  0.00  0.00    +0.024 HD
ENDBRANCH  20  59
BRANCH  16  63
ATOM     63  C   UNL     1       1.470  -2.746  -0.715  0.00  0.00    -0.038 C 
ATOM     64  H   UNL     1       2.493  -2.422  -0.928  0.00  0.00    +0.025 HD
ATOM     65  H   UNL     1       1.492  -3.816  -0.484  0.00  0.00    +0.025 HD
ATOM     66  H   UNL     1       0.891  -2.618  -1.637  0.00  0.00    +0.025 HD
ENDBRANCH  16  63
BRANCH  13  67
ATOM     67  C   UNL     1       3.210  -0.125   0.772  0.00  0.00    +0.004 C 
ATOM     68  H   UNL     1       3.271  -1.208   0.857  0.00  0.00    +0.043 HD
ATOM     69  H   UNL     1       4.002   0.212   0.097  0.00  0.00    +0.043 HD
ATOM     70  H   UNL     1       3.370   0.312   1.760  0.00  0.00    +0.043 HD
ENDBRANCH  13  67
BRANCH   3  71
ATOM     71  C   UNL     1      -3.389  -0.606  -5.154  0.00  0.00    -0.028 C 
ATOM     72  H   UNL     1      -2.926  -0.032  -5.963  0.00  0.00    +0.027 HD
ATOM     73  H   UNL     1      -4.475  -0.557  -5.277  0.00  0.00    +0.027 HD
ATOM     74  H   UNL     1      -3.066  -1.645  -5.282  0.00  0.00    +0.027 HD
ENDBRANCH   3  71
BRANCH  12  75
ATOM     75  C   UNL     1       0.872   2.476   1.116  0.00  0.00    +0.003 C 
ATOM     76  H   UNL     1      -0.065   1.922   1.240  0.00  0.00    +0.034 HD
ATOM     77  H   UNL     1       0.567   3.475   0.783  0.00  0.00    +0.034 HD
BRANCH  75  78
ATOM     78  C   UNL     1       1.544   2.615   2.457  0.00  0.00    -0.006 A 
ATOM     79  C   UNL     1       2.347   3.652   2.884  0.00  0.00    +0.087 A 
ATOM     80  N   UNL     1       2.753   3.409   4.162  0.00  0.00    -0.349 N 
ATOM     81  C   UNL     1       2.257   2.203   4.593  0.00  0.00    +0.048 A 
ATOM     82  C   UNL     1       2.430   1.541   5.815  0.00  0.00    -0.038 A 
ATOM     83  C   UNL     1       1.802   0.303   5.977  0.00  0.00    -0.060 A 
ATOM     84  C   UNL     1       1.029  -0.245   4.959  0.00  0.00    -0.061 A 
ATOM     85  C   UNL     1       0.861   0.435   3.748  0.00  0.00    -0.052 A 
ATOM     86  C   UNL     1       1.486   1.684   3.550  0.00  0.00    +0.004 A 
ATOM     87 BR   UNL     1       2.851   5.200   1.900  0.00  0.00    -0.031 Br
ATOM     88  H   UNL     1       3.342   4.022   4.707  0.00  0.00    +0.166 HD
ATOM     89  H   UNL     1       3.031   1.966   6.612  0.00  0.00    +0.064 HD
ATOM     90  H   UNL     1       1.918  -0.240   6.913  0.00  0.00    +0.062 HD
ATOM     91  H   UNL     1       0.549  -1.213   5.096  0.00  0.00    +0.062 HD
ATOM     92  H   UNL     1       0.255  -0.014   2.969  0.00  0.00    +0.062 HD
ENDBRANCH  75  78
ENDBRANCH  12  75
TORSDOF 10
