REMARK  Name = Kabiramide C_conf1
REMARK  29 active torsions:
REMARK  status: ('A' for Active; 'I' for Inactive)
REMARK    1  A    between atoms: C_1  and  C_2
REMARK    2  A    between atoms: C_4  and  O_64
REMARK    3  A    between atoms: C_9  and  C_41
REMARK    4  A    between atoms: C_10  and  C_40
REMARK    5  A    between atoms: C_11  and  O_38
REMARK    6  A    between atoms: C_30  and  O_36
REMARK    7  A    between atoms: C_31  and  C_35
REMARK    8  A    between atoms: C_32  and  O_34
REMARK    9  A    between atoms: O_36  and  C_37
REMARK   10  A    between atoms: O_38  and  C_39
REMARK   11  A    between atoms: C_41  and  C_42
REMARK   12  A    between atoms: C_42  and  C_43
REMARK   13  A    between atoms: C_42  and  O_62
REMARK   14  A    between atoms: C_43  and  C_44
REMARK   15  A    between atoms: C_43  and  C_45
REMARK   16  A    between atoms: C_45  and  C_46
REMARK   17  A    between atoms: C_46  and  C_47
REMARK   18  A    between atoms: C_47  and  C_49
REMARK   19  A    between atoms: C_49  and  C_50
REMARK   20  A    between atoms: C_49  and  C_51
REMARK   21  A    between atoms: C_51  and  C_52
REMARK   22  A    between atoms: C_51  and  O_60
REMARK   23  A    between atoms: C_52  and  C_53
REMARK   24  A    between atoms: C_52  and  C_54
REMARK   25  A    between atoms: C_55  and  N_56
REMARK   26  A    between atoms: N_56  and  C_57
REMARK   27  A    between atoms: O_60  and  C_61
REMARK   28  A    between atoms: O_62  and  C_63
REMARK   29  A    between atoms: O_64  and  C_65
REMARK                            x       y       z     vdW  Elec       q    Type
REMARK                         _______ _______ _______ _____ _____    ______ ____
ROOT
ATOM      1  C   UNL     1       0.112   4.207   1.767  0.00  0.00    -0.038 C 
ATOM      2  C   UNL     1       1.230   3.509   0.932  0.00  0.00    -0.012 C 
ATOM      3  C   UNL     1       1.050   2.032   0.486  0.00  0.00    +0.115 C 
ATOM      4  C   UNL     1       1.518   0.996   1.508  0.00  0.00    +0.082 C 
ATOM      5  C   UNL     1       3.005   0.759   1.490  0.00  0.00    +0.311 C 
ATOM      6  O   UNL     1       3.807   1.459   2.095  0.00  0.00    -0.251 OA
ATOM      7  O   UNL     1       3.303  -0.375   0.795  0.00  0.00    -0.461 OA
ATOM      8  C   UNL     1       4.604  -0.975   1.013  0.00  0.00    +0.110 C 
ATOM      9  C   UNL     1       5.585  -0.696  -0.167  0.00  0.00    +0.020 C 
ATOM     10  C   UNL     1       5.349  -1.456  -1.506  0.00  0.00    +0.068 C 
ATOM     11  C   UNL     1       3.937  -1.349  -2.115  0.00  0.00    -0.008 C 
ATOM     12  C   UNL     1       3.561  -0.039  -2.737  0.00  0.00    -0.077 C 
ATOM     13  C   UNL     1       4.252   0.603  -3.696  0.00  0.00    -0.003 C 
ATOM     14  C   UNL     1       3.737   1.798  -4.274  0.00  0.00    +0.220 A 
ATOM     15  N   UNL     1       2.644   2.438  -3.890  0.00  0.00    -0.205 NA
ATOM     16  C   UNL     1       2.485   3.466  -4.779  0.00  0.00    +0.164 A 
ATOM     17  C   UNL     1       3.516   3.465  -5.675  0.00  0.00    +0.125 A 
ATOM     18  O   UNL     1       4.338   2.420  -5.363  0.00  0.00    -0.443 OA
ATOM     19  C   UNL     1       1.286   4.453  -4.736  0.00  0.00    +0.250 A 
ATOM     20  N   UNL     1       0.353   4.371  -3.808  0.00  0.00    -0.203 NA
ATOM     21  C   UNL     1      -0.518   5.383  -4.105  0.00  0.00    +0.164 A 
ATOM     22  C   UNL     1      -0.092   6.054  -5.221  0.00  0.00    +0.125 A 
ATOM     23  O   UNL     1       1.071   5.470  -5.641  0.00  0.00    -0.442 OA
ATOM     24  C   UNL     1      -1.791   5.691  -3.265  0.00  0.00    +0.249 A 
ATOM     25  N   UNL     1      -2.114   4.987  -2.196  0.00  0.00    -0.210 NA
ATOM     26  C   UNL     1      -3.246   5.584  -1.707  0.00  0.00    +0.109 A 
ATOM     27  C   UNL     1      -3.595   6.627  -2.532  0.00  0.00    +0.118 A 
ATOM     28  O   UNL     1      -2.673   6.709  -3.532  0.00  0.00    -0.442 OA
ATOM     29  C   UNL     1      -3.902   5.089  -0.450  0.00  0.00    +0.108 C 
ATOM     30  C   UNL     1      -3.383   5.900   0.786  0.00  0.00    +0.014 C 
ATOM     31  C   UNL     1      -2.363   5.093   1.649  0.00  0.00    +0.061 C 
ATOM     32  C   UNL     1      -1.098   4.659   0.888  0.00  0.00    -0.024 C 
ATOM     33  H   UNL     1       0.563   5.149   2.123  0.00  0.00    +0.030 HD
ATOM     34  H   UNL     1       2.185   3.603   1.467  0.00  0.00    +0.030 HD
ATOM     35  H   UNL     1       1.356   4.106   0.015  0.00  0.00    +0.030 HD
ATOM     36  H   UNL     1       1.618   1.902  -0.446  0.00  0.00    +0.074 HD
ATOM     37  H   UNL     1       1.018   0.029   1.343  0.00  0.00    +0.041 HD
ATOM     38  H   UNL     1       1.232   1.256   2.533  0.00  0.00    +0.041 HD
ATOM     39  H   UNL     1       5.061  -0.557   1.920  0.00  0.00    +0.074 HD
ATOM     40  H   UNL     1       6.563  -1.054   0.196  0.00  0.00    +0.036 HD
ATOM     41  H   UNL     1       6.085  -1.077  -2.228  0.00  0.00    +0.060 HD
ATOM     42  H   UNL     1       3.798  -2.115  -2.887  0.00  0.00    +0.033 HD
ATOM     43  H   UNL     1       3.180  -1.610  -1.369  0.00  0.00    +0.033 HD
ATOM     44  H   UNL     1       2.601   0.368  -2.404  0.00  0.00    +0.057 HD
ATOM     45  H   UNL     1       5.175   0.209  -4.099  0.00  0.00    +0.067 HD
ATOM     46  H   UNL     1       3.799   4.071  -6.523  0.00  0.00    +0.105 HD
ATOM     47  H   UNL     1      -0.449   6.892  -5.801  0.00  0.00    +0.105 HD
ATOM     48  H   UNL     1      -4.394   7.351  -2.549  0.00  0.00    +0.105 HD
ATOM     49  H   UNL     1      -3.651   4.029  -0.319  0.00  0.00    +0.067 HD
ATOM     50  H   UNL     1      -2.846   6.796   0.432  0.00  0.00    +0.035 HD
ATOM     51  H   UNL     1      -2.055   5.719   2.497  0.00  0.00    +0.060 HD
ATOM     52  H   UNL     1      -0.742   5.498   0.273  0.00  0.00    +0.029 HD
ATOM     53  H   UNL     1      -1.367   3.861   0.195  0.00  0.00    +0.029 HD
ENDROOT
BRANCH   1  54
ATOM     54  C   UNL     1      -0.249   3.427   3.030  0.00  0.00    -0.062 C 
ATOM     55  H   UNL     1      -0.791   2.502   2.804  0.00  0.00    +0.023 HD
ATOM     56  H   UNL     1      -0.873   4.028   3.704  0.00  0.00    +0.023 HD
ATOM     57  H   UNL     1       0.653   3.175   3.599  0.00  0.00    +0.023 HD
ENDBRANCH   1  54
BRANCH  30  58
ATOM     58  C   UNL     1      -4.528   6.417   1.674  0.00  0.00    -0.057 C 
ATOM     59  H   UNL     1      -4.135   6.936   2.551  0.00  0.00    +0.023 HD
ATOM     60  H   UNL     1      -5.172   5.602   2.020  0.00  0.00    +0.023 HD
ATOM     61  H   UNL     1      -5.146   7.131   1.123  0.00  0.00    +0.023 HD
ENDBRANCH  30  58
BRANCH   9  62
ATOM     62  C   UNL     1       5.759   0.811  -0.400  0.00  0.00    -0.057 C 
ATOM     63  H   UNL     1       6.119   1.301   0.514  0.00  0.00    +0.023 HD
ATOM     64  H   UNL     1       6.504   1.004  -1.178  0.00  0.00    +0.023 HD
ATOM     65  H   UNL     1       4.828   1.302  -0.694  0.00  0.00    +0.023 HD
ENDBRANCH   9  62
BRANCH   8  66
ATOM     66  C   UNL     1       4.381  -2.479   1.277  0.00  0.00    +0.011 C 
ATOM     67  H   UNL     1       5.361  -2.962   1.378  0.00  0.00    +0.033 HD
ATOM     68  H   UNL     1       3.863  -2.910   0.411  0.00  0.00    +0.033 HD
BRANCH  66  69
ATOM     69  C   UNL     1       3.519  -2.785   2.517  0.00  0.00    +0.064 C 
ATOM     70  H   UNL     1       2.674  -2.090   2.533  0.00  0.00    +0.060 HD
BRANCH  69  71
ATOM     71  C   UNL     1       2.975  -4.241   2.464  0.00  0.00    -0.017 C 
ATOM     72  H   UNL     1       2.524  -4.400   1.480  0.00  0.00    +0.032 HD
BRANCH  71  73
ATOM     73  C   UNL     1       4.082  -5.296   2.617  0.00  0.00    -0.060 C 
ATOM     74  H   UNL     1       4.886  -5.140   1.896  0.00  0.00    +0.023 HD
ATOM     75  H   UNL     1       4.512  -5.294   3.622  0.00  0.00    +0.023 HD
ATOM     76  H   UNL     1       3.675  -6.295   2.431  0.00  0.00    +0.023 HD
ENDBRANCH  71  73
BRANCH  71  77
ATOM     77  C   UNL     1       1.891  -4.512   3.538  0.00  0.00    -0.041 C 
ATOM     78  H   UNL     1       2.313  -4.333   4.535  0.00  0.00    +0.027 HD
ATOM     79  H   UNL     1       1.623  -5.577   3.502  0.00  0.00    +0.027 HD
BRANCH  77  80
ATOM     80  C   UNL     1       0.604  -3.698   3.403  0.00  0.00    +0.007 C 
ATOM     81  H   UNL     1      -0.019  -3.878   4.288  0.00  0.00    +0.034 HD
ATOM     82  H   UNL     1       0.782  -2.620   3.384  0.00  0.00    +0.034 HD
BRANCH  80  83
ATOM     83  C   UNL     1      -0.190  -4.073   2.164  0.00  0.00    +0.139 C 
ATOM     84  O   UNL     1       0.221  -3.768   1.044  0.00  0.00    -0.297 OA
BRANCH  83  85
ATOM     85  C   UNL     1      -1.531  -4.765   2.368  0.00  0.00    +0.041 C 
ATOM     86  H   UNL     1      -1.429  -5.382   3.270  0.00  0.00    +0.040 HD
BRANCH  85  87
ATOM     87  C   UNL     1      -1.820  -5.766   1.250  0.00  0.00    -0.053 C 
ATOM     88  H   UNL     1      -1.823  -5.313   0.257  0.00  0.00    +0.024 HD
ATOM     89  H   UNL     1      -1.043  -6.538   1.232  0.00  0.00    +0.024 HD
ATOM     90  H   UNL     1      -2.779  -6.269   1.401  0.00  0.00    +0.024 HD
ENDBRANCH  85  87
BRANCH  85  91
ATOM     91  C   UNL     1      -2.636  -3.711   2.636  0.00  0.00    +0.074 C 
ATOM     92  H   UNL     1      -2.405  -3.240   3.604  0.00  0.00    +0.061 HD
BRANCH  91  93
ATOM     93  C   UNL     1      -2.735  -2.536   1.612  0.00  0.00    +0.003 C 
ATOM     94  H   UNL     1      -1.767  -2.017   1.598  0.00  0.00    +0.037 HD
BRANCH  93  95
ATOM     95  C   UNL     1      -3.769  -1.502   2.079  0.00  0.00    -0.057 C 
ATOM     96  H   UNL     1      -3.792  -0.639   1.404  0.00  0.00    +0.024 HD
ATOM     97  H   UNL     1      -4.780  -1.925   2.121  0.00  0.00    +0.024 HD
ATOM     98  H   UNL     1      -3.516  -1.131   3.080  0.00  0.00    +0.024 HD
ENDBRANCH  93  95
BRANCH  93  99
ATOM     99  C   UNL     1      -3.097  -2.964   0.203  0.00  0.00    -0.065 C 
ATOM    100  C   UNL     1      -2.315  -2.696  -0.853  0.00  0.00    -0.005 C 
ATOM    101  H   UNL     1      -4.035  -3.502   0.113  0.00  0.00    +0.059 HD
ATOM    102  H   UNL     1      -1.382  -2.155  -0.689  0.00  0.00    +0.078 HD
BRANCH 100 103
ATOM    103  N   UNL     1      -2.538  -3.041  -2.177  0.00  0.00    -0.284 N 
ATOM    104  C   UNL     1      -3.592  -3.817  -2.639  0.00  0.00    +0.206 C 
ATOM    105  O   UNL     1      -3.814  -4.125  -3.805  0.00  0.00    -0.279 OA
ATOM    106  H   UNL     1      -4.263  -4.167  -1.843  0.00  0.00    +0.126 HD
BRANCH 103 107
ATOM    107  C   UNL     1      -1.560  -2.562  -3.152  0.00  0.00    +0.007 C 
ATOM    108  H   UNL     1      -1.774  -2.928  -4.162  0.00  0.00    +0.043 HD
ATOM    109  H   UNL     1      -1.582  -1.467  -3.166  0.00  0.00    +0.043 HD
ATOM    110  H   UNL     1      -0.562  -2.907  -2.862  0.00  0.00    +0.043 HD
ENDBRANCH 103 107
ENDBRANCH 100 103
ENDBRANCH  93  99
ENDBRANCH  91  93
BRANCH  91 111
ATOM    111  O   UNL     1      -3.929  -4.334   2.743  0.00  0.00    -0.379 OA
BRANCH 111 112
ATOM    112  C   UNL     1      -4.161  -4.971   3.991  0.00  0.00    +0.037 C 
ATOM    113  H   UNL     1      -5.181  -5.367   3.987  0.00  0.00    +0.052 HD
ATOM    114  H   UNL     1      -4.072  -4.256   4.814  0.00  0.00    +0.052 HD
ATOM    115  H   UNL     1      -3.473  -5.808   4.142  0.00  0.00    +0.052 HD
ENDBRANCH 111 112
ENDBRANCH  91 111
ENDBRANCH  85  91
ENDBRANCH  83  85
ENDBRANCH  80  83
ENDBRANCH  77  80
ENDBRANCH  71  77
ENDBRANCH  69  71
BRANCH  69 116
ATOM    116  O   UNL     1       4.322  -2.639   3.693  0.00  0.00    -0.379 OA
BRANCH 116 117
ATOM    117  C   UNL     1       3.918  -1.569   4.534  0.00  0.00    +0.037 C 
ATOM    118  H   UNL     1       2.880  -1.696   4.849  0.00  0.00    +0.052 HD
ATOM    119  H   UNL     1       4.553  -1.577   5.424  0.00  0.00    +0.052 HD
ATOM    120  H   UNL     1       4.043  -0.610   4.027  0.00  0.00    +0.052 HD
ENDBRANCH 116 117
ENDBRANCH  69 116
ENDBRANCH  66  69
ENDBRANCH   8  66
BRANCH  31 121
ATOM    121  O   UNL     1      -3.013   3.928   2.163  0.00  0.00    -0.391 OA
ATOM    122  H   UNL     1      -3.569   4.214   2.909  0.00  0.00    +0.210 HD
ENDBRANCH  31 121
BRANCH  29 123
ATOM    123  O   UNL     1      -5.336   5.199  -0.566  0.00  0.00    -0.373 OA
BRANCH 123 124
ATOM    124  C   UNL     1      -5.909   4.058  -1.199  0.00  0.00    +0.037 C 
ATOM    125  H   UNL     1      -6.972   4.250  -1.357  0.00  0.00    +0.052 HD
ATOM    126  H   UNL     1      -5.808   3.180  -0.553  0.00  0.00    +0.052 HD
ATOM    127  H   UNL     1      -5.443   3.864  -2.169  0.00  0.00    +0.052 HD
ENDBRANCH 123 124
ENDBRANCH  29 123
BRANCH  10 128
ATOM    128  O   UNL     1       5.680  -2.841  -1.263  0.00  0.00    -0.379 OA
BRANCH 128 129
ATOM    129  C   UNL     1       6.073  -3.565  -2.420  0.00  0.00    +0.037 C 
ATOM    130  H   UNL     1       5.264  -3.627  -3.152  0.00  0.00    +0.052 HD
ATOM    131  H   UNL     1       6.324  -4.587  -2.111  0.00  0.00    +0.052 HD
ATOM    132  H   UNL     1       6.963  -3.111  -2.870  0.00  0.00    +0.052 HD
ENDBRANCH 128 129
ENDBRANCH  10 128
BRANCH   3 133
ATOM    133  O   UNL     1      -0.349   1.810   0.229  0.00  0.00    -0.447 OA
BRANCH 133 134
ATOM    134  C   UNL     1      -0.688   0.853  -0.651  0.00  0.00    +0.398 C 
ATOM    135  O   UNL     1       0.069   0.088  -1.226  0.00  0.00    -0.227 OA
ATOM    136  N   UNL     1      -2.031   0.838  -0.791  0.00  0.00    -0.295 N 
ATOM    137  H   UNL     1      -2.579   1.512  -0.279  0.00  0.00    +0.148 HD
ATOM    138  H   UNL     1      -2.463   0.172  -1.409  0.00  0.00    +0.148 HD
ENDBRANCH 133 134
ENDBRANCH   3 133
TORSDOF 29
