REMARK  Name = Latrunculin B_conf3
REMARK  4 active torsions:
REMARK  status: ('A' for Active; 'I' for Inactive)
REMARK    1  A    between atoms: C_1  and  C_2
REMARK    2  A    between atoms: C_9  and  C_11
REMARK    3  A    between atoms: C_9  and  O_17
REMARK    4  A    between atoms: C_22  and  C_27
REMARK                            x       y       z     vdW  Elec       q    Type
REMARK                         _______ _______ _______ _____ _____    ______ ____
ROOT
ATOM      1  C   UNL     1      -0.925  -2.655   0.829  0.00  0.00    -0.026 C 
ATOM      2  C   UNL     1       0.593  -2.830   1.050  0.00  0.00    -0.045 C 
ATOM      3  C   UNL     1       1.214  -1.791   1.996  0.00  0.00    -0.026 C 
ATOM      4  C   UNL     1       1.243  -0.354   1.449  0.00  0.00    +0.065 C 
ATOM      5  C   UNL     1       2.190  -0.201   0.257  0.00  0.00    +0.011 C 
ATOM      6  C   UNL     1       2.249   1.258  -0.199  0.00  0.00    +0.111 C 
ATOM      7  C   UNL     1       2.578   2.169   0.986  0.00  0.00    +0.040 C 
ATOM      8  C   UNL     1       1.660   1.895   2.192  0.00  0.00    +0.190 C 
ATOM      9  O   UNL     1       1.687   0.498   2.512  0.00  0.00    -0.344 OA
ATOM     10  O   UNL     1       0.973   1.668  -0.738  0.00  0.00    -0.458 OA
ATOM     11  C   UNL     1       0.715   1.235  -2.000  0.00  0.00    +0.332 C 
ATOM     12  O   UNL     1       1.466   0.604  -2.723  0.00  0.00    -0.246 OA
ATOM     13  C   UNL     1      -0.660   1.632  -2.349  0.00  0.00    +0.021 C 
ATOM     14  C   UNL     1      -1.625   0.756  -2.694  0.00  0.00    -0.066 C 
ATOM     15  C   UNL     1      -1.449  -0.754  -2.721  0.00  0.00    -0.028 C 
ATOM     16  C   UNL     1      -2.374  -1.474  -1.729  0.00  0.00    -0.031 C 
ATOM     17  C   UNL     1      -1.953  -2.901  -1.501  0.00  0.00    -0.087 C 
ATOM     18  C   UNL     1      -1.355  -3.410  -0.410  0.00  0.00    -0.085 C 
ATOM     19  H   UNL     1      -1.142  -1.593   0.700  0.00  0.00    +0.034 HD
ATOM     20  H   UNL     1       1.121  -2.804   0.090  0.00  0.00    +0.027 HD
ATOM     21  H   UNL     1       0.784  -3.829   1.465  0.00  0.00    +0.027 HD
ATOM     22  H   UNL     1       2.242  -2.099   2.232  0.00  0.00    +0.029 HD
ATOM     23  H   UNL     1       0.690  -1.800   2.960  0.00  0.00    +0.029 HD
ATOM     24  H   UNL     1       0.226  -0.057   1.174  0.00  0.00    +0.060 HD
ATOM     25  H   UNL     1       1.865  -0.841  -0.567  0.00  0.00    +0.033 HD
ATOM     26  H   UNL     1       3.200  -0.515   0.548  0.00  0.00    +0.033 HD
ATOM     27  H   UNL     1       3.025   1.391  -0.963  0.00  0.00    +0.074 HD
ATOM     28  H   UNL     1       2.477   3.214   0.668  0.00  0.00    +0.035 HD
ATOM     29  H   UNL     1       3.621   1.990   1.273  0.00  0.00    +0.035 HD
ATOM     30  H   UNL     1      -0.847   2.699  -2.309  0.00  0.00    +0.069 HD
ATOM     31  H   UNL     1      -1.645  -1.116  -3.739  0.00  0.00    +0.031 HD
ATOM     32  H   UNL     1      -0.413  -1.032  -2.500  0.00  0.00    +0.031 HD
ATOM     33  H   UNL     1      -2.425  -0.919  -0.786  0.00  0.00    +0.031 HD
ATOM     34  H   UNL     1      -3.400  -1.484  -2.120  0.00  0.00    +0.031 HD
ATOM     35  H   UNL     1      -2.179  -3.586  -2.319  0.00  0.00    +0.057 HD
ATOM     36  H   UNL     1      -1.135  -4.478  -0.409  0.00  0.00    +0.057 HD
ENDROOT
BRANCH   8  37
ATOM     37  C   UNL     1       2.187   2.650   3.461  0.00  0.00    +0.087 C 
ATOM     38  C   UNL     1       1.271   2.470   4.676  0.00  0.00    +0.026 C 
ATOM     39  S   UNL     1       0.292   3.999   4.780  0.00  0.00    -0.066 S 
ATOM     40  C   UNL     1       1.412   4.906   3.799  0.00  0.00    +0.272 C 
ATOM     41  O   UNL     1       1.372   6.113   3.633  0.00  0.00    -0.263 OA
ATOM     42  N   UNL     1       2.358   4.080   3.272  0.00  0.00    -0.298 N 
ATOM     43  H   UNL     1       3.174   2.240   3.709  0.00  0.00    +0.056 HD
ATOM     44  H   UNL     1       0.629   1.587   4.628  0.00  0.00    +0.040 HD
ATOM     45  H   UNL     1       1.872   2.406   5.590  0.00  0.00    +0.040 HD
ATOM     46  H   UNL     1       3.084   4.496   2.705  0.00  0.00    +0.150 HD
ENDBRANCH   8  37
BRANCH   1  47
ATOM     47  C   UNL     1      -1.733  -3.143   2.033  0.00  0.00    -0.059 C 
ATOM     48  H   UNL     1      -2.808  -3.033   1.853  0.00  0.00    +0.024 HD
ATOM     49  H   UNL     1      -1.537  -4.199   2.248  0.00  0.00    +0.024 HD
ATOM     50  H   UNL     1      -1.492  -2.566   2.931  0.00  0.00    +0.024 HD
ENDBRANCH   1  47
BRANCH  14  51
ATOM     51  C   UNL     1      -2.988   1.260  -3.094  0.00  0.00    -0.043 C 
ATOM     52  H   UNL     1      -3.022   2.353  -3.155  0.00  0.00    +0.027 HD
ATOM     53  H   UNL     1      -3.745   0.946  -2.369  0.00  0.00    +0.027 HD
ATOM     54  H   UNL     1      -3.263   0.868  -4.079  0.00  0.00    +0.027 HD
ENDBRANCH  14  51
BRANCH   8  55
ATOM     55  O   UNL     1       0.327   2.317   1.927  0.00  0.00    -0.363 OA
ATOM     56  H   UNL     1       0.184   2.278   0.965  0.00  0.00    +0.213 HD
ENDBRANCH   8  55
TORSDOF 4
