REMARK  Name = Latrunculin B_conf1
REMARK  4 active torsions:
REMARK  status: ('A' for Active; 'I' for Inactive)
REMARK    1  A    between atoms: C_1  and  C_2
REMARK    2  A    between atoms: C_9  and  C_11
REMARK    3  A    between atoms: C_9  and  O_17
REMARK    4  A    between atoms: C_22  and  C_27
REMARK                            x       y       z     vdW  Elec       q    Type
REMARK                         _______ _______ _______ _____ _____    ______ ____
ROOT
ATOM      1  C   UNL     1      -2.747   0.588  -1.775  0.00  0.00    -0.026 C 
ATOM      2  C   UNL     1      -2.925  -0.903  -1.417  0.00  0.00    -0.045 C 
ATOM      3  C   UNL     1      -1.623  -1.721  -1.357  0.00  0.00    -0.026 C 
ATOM      4  C   UNL     1      -0.631  -1.218  -0.303  0.00  0.00    +0.065 C 
ATOM      5  C   UNL     1       0.658  -2.033  -0.325  0.00  0.00    +0.011 C 
ATOM      6  C   UNL     1       1.622  -1.494   0.733  0.00  0.00    +0.111 C 
ATOM      7  C   UNL     1       0.928  -1.471   2.100  0.00  0.00    +0.040 C 
ATOM      8  C   UNL     1      -0.466  -0.815   2.054  0.00  0.00    +0.190 C 
ATOM      9  O   UNL     1      -1.245  -1.332   0.982  0.00  0.00    -0.344 OA
ATOM     10  O   UNL     1       2.037  -0.153   0.412  0.00  0.00    -0.458 OA
ATOM     11  C   UNL     1       2.938  -0.021  -0.586  0.00  0.00    +0.332 C 
ATOM     12  O   UNL     1       3.503  -0.912  -1.196  0.00  0.00    -0.246 OA
ATOM     13  C   UNL     1       3.133   1.416  -0.839  0.00  0.00    +0.021 C 
ATOM     14  C   UNL     1       2.458   2.095  -1.788  0.00  0.00    -0.066 C 
ATOM     15  C   UNL     1       1.431   1.474  -2.718  0.00  0.00    -0.028 C 
ATOM     16  C   UNL     1       0.018   2.055  -2.545  0.00  0.00    -0.031 C 
ATOM     17  C   UNL     1      -0.967   1.375  -3.458  0.00  0.00    -0.087 C 
ATOM     18  C   UNL     1      -2.119   0.760  -3.139  0.00  0.00    -0.085 C 
ATOM     19  H   UNL     1      -2.140   1.067  -1.002  0.00  0.00    +0.034 HD
ATOM     20  H   UNL     1      -3.589  -1.379  -2.151  0.00  0.00    +0.027 HD
ATOM     21  H   UNL     1      -3.439  -0.981  -0.450  0.00  0.00    +0.027 HD
ATOM     22  H   UNL     1      -1.900  -2.757  -1.123  0.00  0.00    +0.029 HD
ATOM     23  H   UNL     1      -1.147  -1.735  -2.344  0.00  0.00    +0.029 HD
ATOM     24  H   UNL     1      -0.400  -0.168  -0.504  0.00  0.00    +0.060 HD
ATOM     25  H   UNL     1       1.106  -1.989  -1.323  0.00  0.00    +0.033 HD
ATOM     26  H   UNL     1       0.439  -3.085  -0.100  0.00  0.00    +0.033 HD
ATOM     27  H   UNL     1       2.511  -2.133   0.803  0.00  0.00    +0.074 HD
ATOM     28  H   UNL     1       0.838  -2.510   2.436  0.00  0.00    +0.035 HD
ATOM     29  H   UNL     1       1.562  -0.935   2.818  0.00  0.00    +0.035 HD
ATOM     30  H   UNL     1       3.863   1.890  -0.195  0.00  0.00    +0.069 HD
ATOM     31  H   UNL     1       1.385   0.387  -2.584  0.00  0.00    +0.031 HD
ATOM     32  H   UNL     1       1.768   1.629  -3.752  0.00  0.00    +0.031 HD
ATOM     33  H   UNL     1       0.020   3.122  -2.801  0.00  0.00    +0.031 HD
ATOM     34  H   UNL     1      -0.282   1.987  -1.496  0.00  0.00    +0.031 HD
ATOM     35  H   UNL     1      -0.702   1.405  -4.516  0.00  0.00    +0.057 HD
ATOM     36  H   UNL     1      -2.693   0.332  -3.963  0.00  0.00    +0.057 HD
ENDROOT
BRANCH   8  37
ATOM     37  C   UNL     1      -1.218  -1.041   3.413  0.00  0.00    +0.087 C 
ATOM     38  C   UNL     1      -1.752  -2.461   3.600  0.00  0.00    +0.026 C 
ATOM     39  S   UNL     1      -3.500  -2.390   3.106  0.00  0.00    -0.066 S 
ATOM     40  C   UNL     1      -3.602  -0.664   3.340  0.00  0.00    +0.272 C 
ATOM     41  O   UNL     1      -4.635  -0.020   3.333  0.00  0.00    -0.263 OA
ATOM     42  N   UNL     1      -2.361  -0.149   3.566  0.00  0.00    -0.298 N 
ATOM     43  H   UNL     1      -0.532  -0.783   4.229  0.00  0.00    +0.056 HD
ATOM     44  H   UNL     1      -1.212  -3.225   3.035  0.00  0.00    +0.040 HD
ATOM     45  H   UNL     1      -1.723  -2.735   4.660  0.00  0.00    +0.040 HD
ATOM     46  H   UNL     1      -2.276   0.836   3.782  0.00  0.00    +0.150 HD
ENDBRANCH   8  37
BRANCH   1  47
ATOM     47  C   UNL     1      -4.109   1.291  -1.755  0.00  0.00    -0.059 C 
ATOM     48  H   UNL     1      -4.571   1.210  -0.766  0.00  0.00    +0.024 HD
ATOM     49  H   UNL     1      -4.003   2.357  -1.986  0.00  0.00    +0.024 HD
ATOM     50  H   UNL     1      -4.800   0.854  -2.486  0.00  0.00    +0.024 HD
ENDBRANCH   1  47
BRANCH  14  51
ATOM     51  C   UNL     1       2.739   3.559  -2.003  0.00  0.00    -0.043 C 
ATOM     52  H   UNL     1       2.998   3.747  -3.050  0.00  0.00    +0.027 HD
ATOM     53  H   UNL     1       3.576   3.913  -1.391  0.00  0.00    +0.027 HD
ATOM     54  H   UNL     1       1.864   4.163  -1.744  0.00  0.00    +0.027 HD
ENDBRANCH  14  51
BRANCH   8  55
ATOM     55  O   UNL     1      -0.318   0.593   1.880  0.00  0.00    -0.363 OA
ATOM     56  H   UNL     1      -1.233   0.921   1.822  0.00  0.00    +0.213 HD
ENDBRANCH   8  55
TORSDOF 4
