REMARK  Name = Latrunculin B_conf2
REMARK  4 active torsions:
REMARK  status: ('A' for Active; 'I' for Inactive)
REMARK    1  A    between atoms: C_1  and  C_2
REMARK    2  A    between atoms: C_9  and  C_11
REMARK    3  A    between atoms: C_9  and  O_17
REMARK    4  A    between atoms: C_22  and  C_27
REMARK                            x       y       z     vdW  Elec       q    Type
REMARK                         _______ _______ _______ _____ _____    ______ ____
ROOT
ATOM      1  C   UNL     1      -0.904  -1.661  -2.704  0.00  0.00    -0.026 C 
ATOM      2  C   UNL     1      -0.793  -2.757  -1.623  0.00  0.00    -0.045 C 
ATOM      3  C   UNL     1      -1.604  -2.470  -0.351  0.00  0.00    -0.026 C 
ATOM      4  C   UNL     1      -1.088  -1.292   0.492  0.00  0.00    +0.065 C 
ATOM      5  C   UNL     1       0.272  -1.581   1.129  0.00  0.00    +0.011 C 
ATOM      6  C   UNL     1       0.705  -0.417   2.024  0.00  0.00    +0.111 C 
ATOM      7  C   UNL     1      -0.398  -0.086   3.031  0.00  0.00    +0.040 C 
ATOM      8  C   UNL     1      -1.766   0.083   2.346  0.00  0.00    +0.190 C 
ATOM      9  O   UNL     1      -2.051  -1.056   1.527  0.00  0.00    -0.344 OA
ATOM     10  O   UNL     1       0.952   0.763   1.227  0.00  0.00    -0.458 OA
ATOM     11  C   UNL     1       2.138   0.771   0.563  0.00  0.00    +0.332 C 
ATOM     12  O   UNL     1       3.015  -0.072   0.627  0.00  0.00    -0.246 OA
ATOM     13  C   UNL     1       2.180   1.974  -0.287  0.00  0.00    +0.021 C 
ATOM     14  C   UNL     1       2.328   1.936  -1.627  0.00  0.00    -0.066 C 
ATOM     15  C   UNL     1       2.418   0.659  -2.448  0.00  0.00    -0.028 C 
ATOM     16  C   UNL     1       1.266   0.522  -3.454  0.00  0.00    -0.031 C 
ATOM     17  C   UNL     1       1.159  -0.877  -3.999  0.00  0.00    -0.087 C 
ATOM     18  C   UNL     1       0.229  -1.800  -3.697  0.00  0.00    -0.085 C 
ATOM     19  H   UNL     1      -0.847  -0.684  -2.222  0.00  0.00    +0.034 HD
ATOM     20  H   UNL     1      -1.139  -3.712  -2.042  0.00  0.00    +0.027 HD
ATOM     21  H   UNL     1       0.257  -2.917  -1.353  0.00  0.00    +0.027 HD
ATOM     22  H   UNL     1      -2.656  -2.297  -0.608  0.00  0.00    +0.029 HD
ATOM     23  H   UNL     1      -1.612  -3.374   0.273  0.00  0.00    +0.029 HD
ATOM     24  H   UNL     1      -1.037  -0.398  -0.137  0.00  0.00    +0.060 HD
ATOM     25  H   UNL     1       0.205  -2.486   1.746  0.00  0.00    +0.033 HD
ATOM     26  H   UNL     1       1.021  -1.760   0.353  0.00  0.00    +0.033 HD
ATOM     27  H   UNL     1       1.615  -0.676   2.579  0.00  0.00    +0.074 HD
ATOM     28  H   UNL     1      -0.128   0.834   3.563  0.00  0.00    +0.035 HD
ATOM     29  H   UNL     1      -0.452  -0.907   3.756  0.00  0.00    +0.035 HD
ATOM     30  H   UNL     1       2.084   2.911   0.249  0.00  0.00    +0.069 HD
ATOM     31  H   UNL     1       3.378   0.647  -2.981  0.00  0.00    +0.031 HD
ATOM     32  H   UNL     1       2.425  -0.224  -1.800  0.00  0.00    +0.031 HD
ATOM     33  H   UNL     1       1.431   1.201  -4.301  0.00  0.00    +0.031 HD
ATOM     34  H   UNL     1       0.324   0.845  -2.999  0.00  0.00    +0.031 HD
ATOM     35  H   UNL     1       1.922  -1.149  -4.728  0.00  0.00    +0.057 HD
ATOM     36  H   UNL     1       0.294  -2.764  -4.203  0.00  0.00    +0.057 HD
ENDROOT
BRANCH   8  37
ATOM     37  C   UNL     1      -2.902   0.165   3.411  0.00  0.00    +0.087 C 
ATOM     38  C   UNL     1      -4.287   0.258   2.767  0.00  0.00    +0.026 C 
ATOM     39  S   UNL     1      -5.324   0.968   4.082  0.00  0.00    -0.066 S 
ATOM     40  C   UNL     1      -3.969   1.779   4.831  0.00  0.00    +0.272 C 
ATOM     41  O   UNL     1      -4.059   2.643   5.684  0.00  0.00    -0.263 OA
ATOM     42  N   UNL     1      -2.801   1.288   4.327  0.00  0.00    -0.298 N 
ATOM     43  H   UNL     1      -2.872  -0.745   4.028  0.00  0.00    +0.056 HD
ATOM     44  H   UNL     1      -4.665  -0.717   2.447  0.00  0.00    +0.040 HD
ATOM     45  H   UNL     1      -4.309   0.946   1.916  0.00  0.00    +0.040 HD
ATOM     46  H   UNL     1      -1.938   1.642   4.715  0.00  0.00    +0.150 HD
ENDBRANCH   8  37
BRANCH   1  47
ATOM     47  C   UNL     1      -2.244  -1.727  -3.442  0.00  0.00    -0.059 C 
ATOM     48  H   UNL     1      -3.081  -1.560  -2.757  0.00  0.00    +0.024 HD
ATOM     49  H   UNL     1      -2.391  -2.700  -3.924  0.00  0.00    +0.024 HD
ATOM     50  H   UNL     1      -2.299  -0.957  -4.220  0.00  0.00    +0.024 HD
ENDBRANCH   1  47
BRANCH  14  51
ATOM     51  C   UNL     1       2.423   3.221  -2.409  0.00  0.00    -0.043 C 
ATOM     52  H   UNL     1       3.334   3.228  -3.016  0.00  0.00    +0.027 HD
ATOM     53  H   UNL     1       2.456   4.099  -1.755  0.00  0.00    +0.027 HD
ATOM     54  H   UNL     1       1.559   3.336  -3.071  0.00  0.00    +0.027 HD
ENDBRANCH  14  51
BRANCH   8  55
ATOM     55  O   UNL     1      -1.804   1.276   1.566  0.00  0.00    -0.363 OA
ATOM     56  H   UNL     1      -0.899   1.456   1.254  0.00  0.00    +0.213 HD
ENDBRANCH   8  55
TORSDOF 4
