REMARK  Name = Lobophorolide_conf1
REMARK  23 active torsions:
REMARK  status: ('A' for Active; 'I' for Inactive)
REMARK    1  A    between atoms: C_1  and  C_2
REMARK    2  A    between atoms: C_4  and  O_53
REMARK    3  A    between atoms: C_6  and  C_8
REMARK    4  A    between atoms: C_8  and  C_9
REMARK    5  A    between atoms: C_9  and  C_10
REMARK    6  A    between atoms: C_10  and  C_11
REMARK    7  A    between atoms: C_10  and  C_12
REMARK    8  A    between atoms: C_12  and  C_13
REMARK    9  A    between atoms: C_12  and  O_52
REMARK   10  A    between atoms: C_13  and  C_14
REMARK   11  A    between atoms: C_13  and  C_15
REMARK   12  A    between atoms: C_16  and  C_51
REMARK   13  A    between atoms: C_17  and  O_49
REMARK   14  A    between atoms: C_19  and  O_47
REMARK   15  A    between atoms: C_23  and  O_45
REMARK   16  A    between atoms: C_32  and  O_43
REMARK   17  A    between atoms: C_33  and  O_42
REMARK   18  A    between atoms: C_35  and  C_41
REMARK   19  A    between atoms: O_43  and  C_44
REMARK   20  A    between atoms: O_45  and  C_46
REMARK   21  A    between atoms: O_47  and  C_48
REMARK   22  A    between atoms: O_49  and  C_50
REMARK   23  A    between atoms: O_53  and  C_54
REMARK                            x       y       z     vdW  Elec       q    Type
REMARK                         _______ _______ _______ _____ _____    ______ ____
ROOT
ATOM      1  C   UNL     1       0.805   3.760   0.612  0.00  0.00    +0.113 C 
ATOM      2  C   UNL     1      -0.291   3.631  -0.493  0.00  0.00    +0.020 C 
ATOM      3  C   UNL     1       0.334   3.172  -1.866  0.00  0.00    +0.067 C 
ATOM      4  C   UNL     1      -0.757   2.953  -2.933  0.00  0.00    +0.003 C 
ATOM      5  C   UNL     1      -0.333   2.079  -4.121  0.00  0.00    +0.094 C 
ATOM      6  C   UNL     1      -0.171   0.576  -3.860  0.00  0.00    +0.145 C 
ATOM      7  C   UNL     1       0.549  -0.169  -4.978  0.00  0.00    +0.083 C 
ATOM      8  O   UNL     1       1.208   0.159  -3.751  0.00  0.00    -0.363 OA
ATOM      9  C   UNL     1      -1.093  -0.146  -2.868  0.00  0.00    +0.094 C 
ATOM     10  C   UNL     1      -1.246  -1.669  -3.057  0.00  0.00    +0.003 C 
ATOM     11  C   UNL     1      -0.065  -2.582  -2.695  0.00  0.00    +0.065 C 
ATOM     12  C   UNL     1      -0.545  -4.052  -2.761  0.00  0.00    -0.008 C 
ATOM     13  C   UNL     1       0.364  -4.995  -2.041  0.00  0.00    -0.083 C 
ATOM     14  C   UNL     1       1.322  -4.536  -1.227  0.00  0.00    -0.059 C 
ATOM     15  C   UNL     1       1.567  -3.069  -0.983  0.00  0.00    +0.080 C 
ATOM     16  O   UNL     1       0.423  -2.275  -1.385  0.00  0.00    -0.369 OA
ATOM     17  C   UNL     1       2.847  -2.566  -1.671  0.00  0.00    +0.006 C 
ATOM     18  C   UNL     1       4.169  -3.225  -1.219  0.00  0.00    +0.090 C 
ATOM     19  C   UNL     1       4.540  -3.030   0.282  0.00  0.00    +0.100 C 
ATOM     20  C   UNL     1       4.261  -1.643   0.785  0.00  0.00    -0.051 C 
ATOM     21  C   UNL     1       5.069  -0.566   0.734  0.00  0.00    -0.052 C 
ATOM     22  C   UNL     1       4.556   0.749   1.085  0.00  0.00    -0.052 C 
ATOM     23  C   UNL     1       3.379   1.190   0.623  0.00  0.00    +0.023 C 
ATOM     24  C   UNL     1       2.861   2.536   0.919  0.00  0.00    +0.332 C 
ATOM     25  O   UNL     1       3.498   3.467   1.376  0.00  0.00    -0.246 OA
ATOM     26  O   UNL     1       1.557   2.522   0.558  0.00  0.00    -0.458 OA
ATOM     27  H   UNL     1       1.483   4.569   0.312  0.00  0.00    +0.074 HD
ATOM     28  H   UNL     1      -0.977   2.825  -0.209  0.00  0.00    +0.036 HD
ATOM     29  H   UNL     1       0.876   2.229  -1.714  0.00  0.00    +0.060 HD
ATOM     30  H   UNL     1      -1.049   3.932  -3.335  0.00  0.00    +0.032 HD
ATOM     31  H   UNL     1      -1.661   2.556  -2.470  0.00  0.00    +0.032 HD
ATOM     32  H   UNL     1       0.630   2.455  -4.491  0.00  0.00    +0.063 HD
ATOM     33  H   UNL     1       0.323  -1.202  -5.193  0.00  0.00    +0.059 HD
ATOM     34  H   UNL     1       0.840   0.381  -5.866  0.00  0.00    +0.059 HD
ATOM     35  H   UNL     1      -0.732   0.078  -1.856  0.00  0.00    +0.063 HD
ATOM     36  H   UNL     1      -2.090  -1.989  -2.433  0.00  0.00    +0.032 HD
ATOM     37  H   UNL     1      -1.571  -1.879  -4.085  0.00  0.00    +0.032 HD
ATOM     38  H   UNL     1       0.744  -2.443  -3.415  0.00  0.00    +0.060 HD
ATOM     39  H   UNL     1      -1.533  -4.160  -2.296  0.00  0.00    +0.033 HD
ATOM     40  H   UNL     1      -0.645  -4.356  -3.810  0.00  0.00    +0.033 HD
ATOM     41  H   UNL     1       0.210  -6.064  -2.155  0.00  0.00    +0.057 HD
ATOM     42  H   UNL     1       1.949  -5.237  -0.681  0.00  0.00    +0.059 HD
ATOM     43  H   UNL     1       1.640  -2.911   0.098  0.00  0.00    +0.064 HD
ATOM     44  H   UNL     1       2.768  -2.712  -2.757  0.00  0.00    +0.032 HD
ATOM     45  H   UNL     1       2.912  -1.474  -1.572  0.00  0.00    +0.032 HD
ATOM     46  H   UNL     1       4.093  -4.300  -1.426  0.00  0.00    +0.063 HD
ATOM     47  H   UNL     1       5.589  -3.287   0.447  0.00  0.00    +0.066 HD
ATOM     48  H   UNL     1       3.246  -1.517   1.169  0.00  0.00    +0.060 HD
ATOM     49  H   UNL     1       5.186   1.387   1.699  0.00  0.00    +0.062 HD
ATOM     50  H   UNL     1       2.755   0.580  -0.021  0.00  0.00    +0.069 HD
ENDROOT
BRANCH  21  51
ATOM     51  C   UNL     1       6.491  -0.566   0.247  0.00  0.00    -0.040 C 
ATOM     52  H   UNL     1       6.592   0.074  -0.634  0.00  0.00    +0.028 HD
ATOM     53  H   UNL     1       6.854  -1.558  -0.026  0.00  0.00    +0.028 HD
ATOM     54  H   UNL     1       7.158  -0.186   1.026  0.00  0.00    +0.028 HD
ENDBRANCH  21  51
BRANCH   2  55
ATOM     55  C   UNL     1      -1.094   4.927  -0.656  0.00  0.00    -0.057 C 
ATOM     56  H   UNL     1      -0.436   5.795  -0.774  0.00  0.00    +0.023 HD
ATOM     57  H   UNL     1      -1.742   5.099   0.199  0.00  0.00    +0.023 HD
ATOM     58  H   UNL     1      -1.765   4.897  -1.517  0.00  0.00    +0.023 HD
ENDBRANCH   2  55
BRANCH   1  59
ATOM     59  C   UNL     1       0.370   4.006   2.097  0.00  0.00    +0.020 C 
ATOM     60  H   UNL     1       1.269   3.837   2.700  0.00  0.00    +0.036 HD
BRANCH  59  61
ATOM     61  C   UNL     1       0.024   5.477   2.362  0.00  0.00    -0.057 C 
ATOM     62  H   UNL     1       0.791   6.140   1.952  0.00  0.00    +0.023 HD
ATOM     63  H   UNL     1      -0.941   5.777   1.959  0.00  0.00    +0.023 HD
ATOM     64  H   UNL     1      -0.018   5.659   3.441  0.00  0.00    +0.023 HD
ENDBRANCH  59  61
BRANCH  59  65
ATOM     65  C   UNL     1      -0.716   3.060   2.689  0.00  0.00    +0.064 C 
ATOM     66  H   UNL     1      -0.906   3.372   3.725  0.00  0.00    +0.060 HD
BRANCH  65  67
ATOM     67  C   UNL     1      -0.333   1.555   2.745  0.00  0.00    -0.017 C 
ATOM     68  H   UNL     1       0.008   1.225   1.761  0.00  0.00    +0.032 HD
BRANCH  67  69
ATOM     69  C   UNL     1       0.812   1.323   3.742  0.00  0.00    -0.060 C 
ATOM     70  H   UNL     1       1.099   0.264   3.765  0.00  0.00    +0.023 HD
ATOM     71  H   UNL     1       0.513   1.613   4.755  0.00  0.00    +0.023 HD
ATOM     72  H   UNL     1       1.711   1.884   3.481  0.00  0.00    +0.023 HD
ENDBRANCH  67  69
BRANCH  67  73
ATOM     73  C   UNL     1      -1.515   0.632   3.139  0.00  0.00    -0.046 C 
ATOM     74  H   UNL     1      -1.116  -0.278   3.606  0.00  0.00    +0.027 HD
ATOM     75  H   UNL     1      -2.135   1.121   3.900  0.00  0.00    +0.027 HD
BRANCH  73  76
ATOM     76  C   UNL     1      -2.368   0.203   1.940  0.00  0.00    -0.026 C 
ATOM     77  H   UNL     1      -2.987   1.033   1.583  0.00  0.00    +0.029 HD
ATOM     78  H   UNL     1      -1.717  -0.064   1.097  0.00  0.00    +0.029 HD
BRANCH  76  83
ATOM     79  C   UNL     1      -4.577  -2.647   1.110  0.00  0.00    +0.059 C 
ATOM     80  C   UNL     1      -5.084  -2.972   2.519  0.00  0.00    -0.000 C 
ATOM     81  C   UNL     1      -5.492  -1.689   3.236  0.00  0.00    +0.063 C 
ATOM     82  C   UNL     1      -4.295  -0.732   3.334  0.00  0.00    -0.000 C 
ATOM     83  C   UNL     1      -3.256  -1.007   2.244  0.00  0.00    +0.061 C 
ATOM     84  O   UNL     1      -3.931  -1.369   1.034  0.00  0.00    -0.373 OA
ATOM     85  H   UNL     1      -5.441  -2.582   0.439  0.00  0.00    +0.059 HD
ATOM     86  H   UNL     1      -5.921  -3.679   2.476  0.00  0.00    +0.032 HD
ATOM     87  H   UNL     1      -4.309  -3.479   3.112  0.00  0.00    +0.032 HD
ATOM     88  H   UNL     1      -6.302  -1.215   2.665  0.00  0.00    +0.060 HD
ATOM     89  H   UNL     1      -4.679   0.296   3.240  0.00  0.00    +0.032 HD
ATOM     90  H   UNL     1      -3.818  -0.784   4.322  0.00  0.00    +0.032 HD
ATOM     91  H   UNL     1      -2.604  -1.839   2.546  0.00  0.00    +0.060 HD
BRANCH  79  92
ATOM     92  C   UNL     1      -3.644  -3.723   0.573  0.00  0.00    -0.039 C 
ATOM     93  H   UNL     1      -4.133  -4.702   0.565  0.00  0.00    +0.025 HD
ATOM     94  H   UNL     1      -3.333  -3.474  -0.447  0.00  0.00    +0.025 HD
ATOM     95  H   UNL     1      -2.729  -3.792   1.171  0.00  0.00    +0.025 HD
ENDBRANCH  79  92
BRANCH  81  96
ATOM     96  O   UNL     1      -5.978  -2.040   4.537  0.00  0.00    -0.380 OA
BRANCH  96  97
ATOM     97  C   UNL     1      -6.702  -0.987   5.162  0.00  0.00    +0.037 C 
ATOM     98  H   UNL     1      -7.073  -1.355   6.122  0.00  0.00    +0.052 HD
ATOM     99  H   UNL     1      -7.558  -0.691   4.549  0.00  0.00    +0.052 HD
ATOM    100  H   UNL     1      -6.055  -0.125   5.351  0.00  0.00    +0.052 HD
ENDBRANCH  96  97
ENDBRANCH  81  96
ENDBRANCH  76  83
ENDBRANCH  73  76
ENDBRANCH  67  73
ENDBRANCH  65  67
BRANCH  65 101
ATOM    101  O   UNL     1      -1.949   3.224   2.001  0.00  0.00    -0.391 OA
ATOM    102  H   UNL     1      -2.317   4.089   2.248  0.00  0.00    +0.210 HD
ENDBRANCH  65 101
ENDBRANCH  59  65
ENDBRANCH   1  59
BRANCH  19 103
ATOM    103  O   UNL     1       3.764  -3.927   1.081  0.00  0.00    -0.385 OA
ATOM    104  H   UNL     1       4.388  -4.457   1.606  0.00  0.00    +0.210 HD
ENDBRANCH  19 103
BRANCH  18 105
ATOM    105  O   UNL     1       5.203  -2.669  -2.055  0.00  0.00    -0.377 OA
BRANCH 105 106
ATOM    106  C   UNL     1       6.244  -3.593  -2.350  0.00  0.00    +0.037 C 
ATOM    107  H   UNL     1       5.854  -4.418  -2.955  0.00  0.00    +0.052 HD
ATOM    108  H   UNL     1       6.700  -3.981  -1.436  0.00  0.00    +0.052 HD
ATOM    109  H   UNL     1       7.013  -3.073  -2.928  0.00  0.00    +0.052 HD
ENDBRANCH 105 106
ENDBRANCH  18 105
BRANCH   9 110
ATOM    110  O   UNL     1      -2.423   0.393  -3.027  0.00  0.00    -0.377 OA
BRANCH 110 111
ATOM    111  C   UNL     1      -3.191   0.393  -1.828  0.00  0.00    +0.037 C 
ATOM    112  H   UNL     1      -4.135   0.911  -2.026  0.00  0.00    +0.052 HD
ATOM    113  H   UNL     1      -2.667   0.934  -1.035  0.00  0.00    +0.052 HD
ATOM    114  H   UNL     1      -3.423  -0.624  -1.507  0.00  0.00    +0.052 HD
ENDBRANCH 110 111
ENDBRANCH   9 110
BRANCH   5 115
ATOM    115  O   UNL     1      -1.292   2.220  -5.188  0.00  0.00    -0.377 OA
BRANCH 115 116
ATOM    116  C   UNL     1      -0.993   3.289  -6.074  0.00  0.00    +0.037 C 
ATOM    117  H   UNL     1      -1.774   3.326  -6.835  0.00  0.00    +0.052 HD
ATOM    118  H   UNL     1      -0.973   4.245  -5.549  0.00  0.00    +0.052 HD
ATOM    119  H   UNL     1      -0.034   3.114  -6.572  0.00  0.00    +0.052 HD
ENDBRANCH 115 116
ENDBRANCH   5 115
BRANCH   3 120
ATOM    120  O   UNL     1       1.211   4.210  -2.338  0.00  0.00    -0.379 OA
BRANCH 120 121
ATOM    121  C   UNL     1       2.524   3.755  -2.632  0.00  0.00    +0.037 C 
ATOM    122  H   UNL     1       3.097   4.600  -3.031  0.00  0.00    +0.052 HD
ATOM    123  H   UNL     1       2.508   2.962  -3.387  0.00  0.00    +0.052 HD
ATOM    124  H   UNL     1       3.024   3.400  -1.724  0.00  0.00    +0.052 HD
ENDBRANCH 120 121
ENDBRANCH   3 120
TORSDOF 23
