REMARK  Name = Lobophorolide_conf2
REMARK  23 active torsions:
REMARK  status: ('A' for Active; 'I' for Inactive)
REMARK    1  A    between atoms: C_1  and  C_2
REMARK    2  A    between atoms: C_4  and  O_53
REMARK    3  A    between atoms: C_6  and  C_8
REMARK    4  A    between atoms: C_8  and  C_9
REMARK    5  A    between atoms: C_9  and  C_10
REMARK    6  A    between atoms: C_10  and  C_11
REMARK    7  A    between atoms: C_10  and  C_12
REMARK    8  A    between atoms: C_12  and  C_13
REMARK    9  A    between atoms: C_12  and  O_52
REMARK   10  A    between atoms: C_13  and  C_14
REMARK   11  A    between atoms: C_13  and  C_15
REMARK   12  A    between atoms: C_16  and  C_51
REMARK   13  A    between atoms: C_17  and  O_49
REMARK   14  A    between atoms: C_19  and  O_47
REMARK   15  A    between atoms: C_23  and  O_45
REMARK   16  A    between atoms: C_32  and  O_43
REMARK   17  A    between atoms: C_33  and  O_42
REMARK   18  A    between atoms: C_35  and  C_41
REMARK   19  A    between atoms: O_43  and  C_44
REMARK   20  A    between atoms: O_45  and  C_46
REMARK   21  A    between atoms: O_47  and  C_48
REMARK   22  A    between atoms: O_49  and  C_50
REMARK   23  A    between atoms: O_53  and  C_54
REMARK                            x       y       z     vdW  Elec       q    Type
REMARK                         _______ _______ _______ _____ _____    ______ ____
ROOT
ATOM      1  C   UNL     1       0.899   3.092   1.216  0.00  0.00    +0.113 C 
ATOM      2  C   UNL     1       0.020   2.941   2.494  0.00  0.00    +0.020 C 
ATOM      3  C   UNL     1      -1.479   2.665   2.131  0.00  0.00    +0.067 C 
ATOM      4  C   UNL     1      -2.144   1.706   3.151  0.00  0.00    +0.003 C 
ATOM      5  C   UNL     1      -2.416   0.286   2.594  0.00  0.00    +0.094 C 
ATOM      6  C   UNL     1      -3.595   0.167   1.631  0.00  0.00    +0.145 C 
ATOM      7  C   UNL     1      -4.890   0.911   1.955  0.00  0.00    +0.083 C 
ATOM      8  O   UNL     1      -3.980   1.375   0.952  0.00  0.00    -0.363 OA
ATOM      9  C   UNL     1      -3.735  -1.134   0.831  0.00  0.00    +0.094 C 
ATOM     10  C   UNL     1      -4.308  -0.898  -0.582  0.00  0.00    +0.003 C 
ATOM     11  C   UNL     1      -4.732  -2.125  -1.405  0.00  0.00    +0.065 C 
ATOM     12  C   UNL     1      -6.123  -2.653  -1.015  0.00  0.00    -0.008 C 
ATOM     13  C   UNL     1      -6.453  -3.875  -1.814  0.00  0.00    -0.083 C 
ATOM     14  C   UNL     1      -5.479  -4.581  -2.400  0.00  0.00    -0.059 C 
ATOM     15  C   UNL     1      -4.010  -4.249  -2.271  0.00  0.00    +0.080 C 
ATOM     16  O   UNL     1      -3.755  -3.175  -1.341  0.00  0.00    -0.369 OA
ATOM     17  C   UNL     1      -3.368  -3.926  -3.630  0.00  0.00    +0.006 C 
ATOM     18  C   UNL     1      -1.858  -4.225  -3.604  0.00  0.00    +0.090 C 
ATOM     19  C   UNL     1      -1.047  -3.197  -4.432  0.00  0.00    +0.100 C 
ATOM     20  C   UNL     1      -0.892  -1.852  -3.773  0.00  0.00    -0.051 C 
ATOM     21  C   UNL     1      -0.234  -1.547  -2.634  0.00  0.00    -0.052 C 
ATOM     22  C   UNL     1      -0.231  -0.159  -2.167  0.00  0.00    -0.052 C 
ATOM     23  C   UNL     1       0.349   0.277  -1.040  0.00  0.00    +0.023 C 
ATOM     24  C   UNL     1       0.294   1.699  -0.648  0.00  0.00    +0.332 C 
ATOM     25  O   UNL     1      -0.210   2.601  -1.294  0.00  0.00    -0.246 OA
ATOM     26  O   UNL     1       0.895   1.802   0.565  0.00  0.00    -0.458 OA
ATOM     27  H   UNL     1       0.453   3.861   0.574  0.00  0.00    +0.074 HD
ATOM     28  H   UNL     1       0.395   2.051   3.015  0.00  0.00    +0.036 HD
ATOM     29  H   UNL     1      -1.572   2.237   1.128  0.00  0.00    +0.060 HD
ATOM     30  H   UNL     1      -3.064   2.145   3.545  0.00  0.00    +0.032 HD
ATOM     31  H   UNL     1      -1.487   1.599   4.023  0.00  0.00    +0.032 HD
ATOM     32  H   UNL     1      -2.662  -0.365   3.443  0.00  0.00    +0.063 HD
ATOM     33  H   UNL     1      -4.978   1.478   2.870  0.00  0.00    +0.059 HD
ATOM     34  H   UNL     1      -5.832   0.484   1.626  0.00  0.00    +0.059 HD
ATOM     35  H   UNL     1      -2.752  -1.605   0.702  0.00  0.00    +0.063 HD
ATOM     36  H   UNL     1      -3.536  -0.358  -1.148  0.00  0.00    +0.032 HD
ATOM     37  H   UNL     1      -5.175  -0.228  -0.542  0.00  0.00    +0.032 HD
ATOM     38  H   UNL     1      -4.789  -1.772  -2.443  0.00  0.00    +0.060 HD
ATOM     39  H   UNL     1      -6.876  -1.878  -1.200  0.00  0.00    +0.033 HD
ATOM     40  H   UNL     1      -6.182  -2.929   0.041  0.00  0.00    +0.033 HD
ATOM     41  H   UNL     1      -7.492  -4.174  -1.901  0.00  0.00    +0.057 HD
ATOM     42  H   UNL     1      -5.734  -5.465  -2.979  0.00  0.00    +0.059 HD
ATOM     43  H   UNL     1      -3.529  -5.136  -1.842  0.00  0.00    +0.064 HD
ATOM     44  H   UNL     1      -3.841  -4.520  -4.422  0.00  0.00    +0.032 HD
ATOM     45  H   UNL     1      -3.538  -2.871  -3.869  0.00  0.00    +0.032 HD
ATOM     46  H   UNL     1      -1.488  -4.248  -2.572  0.00  0.00    +0.063 HD
ATOM     47  H   UNL     1      -1.531  -3.058  -5.408  0.00  0.00    +0.066 HD
ATOM     48  H   UNL     1      -1.398  -1.052  -4.311  0.00  0.00    +0.060 HD
ATOM     49  H   UNL     1      -0.748   0.565  -2.795  0.00  0.00    +0.062 HD
ATOM     50  H   UNL     1       0.876  -0.374  -0.355  0.00  0.00    +0.069 HD
ENDROOT
BRANCH  21  51
ATOM     51  C   UNL     1       0.513  -2.562  -1.803  0.00  0.00    -0.040 C 
ATOM     52  H   UNL     1      -0.024  -2.758  -0.869  0.00  0.00    +0.028 HD
ATOM     53  H   UNL     1       1.518  -2.208  -1.560  0.00  0.00    +0.028 HD
ATOM     54  H   UNL     1       0.655  -3.520  -2.306  0.00  0.00    +0.028 HD
ENDBRANCH  21  51
BRANCH   2  55
ATOM     55  C   UNL     1       0.143   4.135   3.453  0.00  0.00    -0.057 C 
ATOM     56  H   UNL     1      -0.556   4.038   4.290  0.00  0.00    +0.023 HD
ATOM     57  H   UNL     1       1.142   4.207   3.889  0.00  0.00    +0.023 HD
ATOM     58  H   UNL     1      -0.065   5.080   2.938  0.00  0.00    +0.023 HD
ENDBRANCH   2  55
BRANCH   1  59
ATOM     59  C   UNL     1       2.380   3.506   1.476  0.00  0.00    +0.020 C 
ATOM     60  H   UNL     1       2.357   4.477   1.984  0.00  0.00    +0.036 HD
BRANCH  59  61
ATOM     61  C   UNL     1       3.100   2.548   2.428  0.00  0.00    -0.057 C 
ATOM     62  H   UNL     1       4.152   2.823   2.551  0.00  0.00    +0.023 HD
ATOM     63  H   UNL     1       2.658   2.570   3.427  0.00  0.00    +0.023 HD
ATOM     64  H   UNL     1       3.039   1.515   2.081  0.00  0.00    +0.023 HD
ENDBRANCH  59  61
BRANCH  59  65
ATOM     65  C   UNL     1       3.158   3.745   0.145  0.00  0.00    +0.064 C 
ATOM     66  H   UNL     1       2.466   4.256  -0.537  0.00  0.00    +0.060 HD
BRANCH  65  67
ATOM     67  C   UNL     1       3.761   2.515  -0.603  0.00  0.00    -0.017 C 
ATOM     68  H   UNL     1       3.067   1.676  -0.525  0.00  0.00    +0.032 HD
BRANCH  67  69
ATOM     69  C   UNL     1       3.849   2.873  -2.098  0.00  0.00    -0.060 C 
ATOM     70  H   UNL     1       4.251   2.044  -2.686  0.00  0.00    +0.023 HD
ATOM     71  H   UNL     1       4.492   3.747  -2.266  0.00  0.00    +0.023 HD
ATOM     72  H   UNL     1       2.855   3.103  -2.500  0.00  0.00    +0.023 HD
ENDBRANCH  67  69
BRANCH  67  73
ATOM     73  C   UNL     1       5.167   2.070  -0.119  0.00  0.00    -0.046 C 
ATOM     74  H   UNL     1       5.481   2.671   0.737  0.00  0.00    +0.027 HD
ATOM     75  H   UNL     1       5.924   2.249  -0.893  0.00  0.00    +0.027 HD
BRANCH  73  76
ATOM     76  C   UNL     1       5.261   0.596   0.320  0.00  0.00    -0.026 C 
ATOM     77  H   UNL     1       6.147   0.497   0.961  0.00  0.00    +0.029 HD
ATOM     78  H   UNL     1       4.393   0.344   0.938  0.00  0.00    +0.029 HD
BRANCH  76  83
ATOM     79  C   UNL     1       4.206  -1.284  -2.742  0.00  0.00    +0.059 C 
ATOM     80  C   UNL     1       4.551  -2.711  -2.315  0.00  0.00    -0.000 C 
ATOM     81  C   UNL     1       4.559  -2.848  -0.800  0.00  0.00    +0.063 C 
ATOM     82  C   UNL     1       5.551  -1.845  -0.219  0.00  0.00    -0.000 C 
ATOM     83  C   UNL     1       5.380  -0.438  -0.815  0.00  0.00    +0.061 C 
ATOM     84  O   UNL     1       4.214  -0.375  -1.635  0.00  0.00    -0.373 OA
ATOM     85  H   UNL     1       3.173  -1.277  -3.113  0.00  0.00    +0.059 HD
ATOM     86  H   UNL     1       3.834  -3.417  -2.758  0.00  0.00    +0.032 HD
ATOM     87  H   UNL     1       5.526  -3.023  -2.719  0.00  0.00    +0.032 HD
ATOM     88  H   UNL     1       3.551  -2.650  -0.415  0.00  0.00    +0.060 HD
ATOM     89  H   UNL     1       5.456  -1.828   0.874  0.00  0.00    +0.032 HD
ATOM     90  H   UNL     1       6.581  -2.185  -0.394  0.00  0.00    +0.032 HD
ATOM     91  H   UNL     1       6.259  -0.181  -1.417  0.00  0.00    +0.060 HD
BRANCH  79  92
ATOM     92  C   UNL     1       5.092  -0.795  -3.885  0.00  0.00    -0.039 C 
ATOM     93  H   UNL     1       6.144  -0.748  -3.589  0.00  0.00    +0.025 HD
ATOM     94  H   UNL     1       5.012  -1.464  -4.746  0.00  0.00    +0.025 HD
ATOM     95  H   UNL     1       4.800   0.214  -4.194  0.00  0.00    +0.025 HD
ENDBRANCH  79  92
BRANCH  81  96
ATOM     96  O   UNL     1       4.928  -4.195  -0.482  0.00  0.00    -0.380 OA
BRANCH  96  97
ATOM     97  C   UNL     1       4.626  -4.560   0.861  0.00  0.00    +0.037 C 
ATOM     98  H   UNL     1       3.565  -4.401   1.077  0.00  0.00    +0.052 HD
ATOM     99  H   UNL     1       4.849  -5.623   0.982  0.00  0.00    +0.052 HD
ATOM    100  H   UNL     1       5.246  -3.998   1.565  0.00  0.00    +0.052 HD
ENDBRANCH  96  97
ENDBRANCH  81  96
ENDBRANCH  76  83
ENDBRANCH  73  76
ENDBRANCH  67  73
ENDBRANCH  65  67
BRANCH  65 101
ATOM    101  O   UNL     1       4.211   4.690   0.393  0.00  0.00    -0.391 OA
ATOM    102  H   UNL     1       3.794   5.545   0.593  0.00  0.00    +0.210 HD
ENDBRANCH  65 101
ENDBRANCH  59  65
ENDBRANCH   1  59
BRANCH  19 103
ATOM    103  O   UNL     1       0.255  -3.708  -4.723  0.00  0.00    -0.385 OA
ATOM    104  H   UNL     1       0.096  -4.621  -5.027  0.00  0.00    +0.210 HD
ENDBRANCH  19 103
BRANCH  18 105
ATOM    105  O   UNL     1      -1.665  -5.527  -4.215  0.00  0.00    -0.377 OA
BRANCH 105 106
ATOM    106  C   UNL     1      -1.047  -6.459  -3.332  0.00  0.00    +0.037 C 
ATOM    107  H   UNL     1      -0.064  -6.095  -3.015  0.00  0.00    +0.052 HD
ATOM    108  H   UNL     1      -0.911  -7.401  -3.870  0.00  0.00    +0.052 HD
ATOM    109  H   UNL     1      -1.684  -6.642  -2.461  0.00  0.00    +0.052 HD
ENDBRANCH 105 106
ENDBRANCH  18 105
BRANCH   9 110
ATOM    110  O   UNL     1      -4.604  -1.993   1.582  0.00  0.00    -0.377 OA
BRANCH 110 111
ATOM    111  C   UNL     1      -3.928  -3.128   2.102  0.00  0.00    +0.037 C 
ATOM    112  H   UNL     1      -4.654  -3.749   2.632  0.00  0.00    +0.052 HD
ATOM    113  H   UNL     1      -3.152  -2.819   2.808  0.00  0.00    +0.052 HD
ATOM    114  H   UNL     1      -3.488  -3.723   1.297  0.00  0.00    +0.052 HD
ENDBRANCH 110 111
ENDBRANCH   9 110
BRANCH   5 115
ATOM    115  O   UNL     1      -1.230  -0.204   1.948  0.00  0.00    -0.377 OA
BRANCH 115 116
ATOM    116  C   UNL     1      -0.351  -0.887   2.832  0.00  0.00    +0.037 C 
ATOM    117  H   UNL     1      -0.825  -1.797   3.212  0.00  0.00    +0.052 HD
ATOM    118  H   UNL     1      -0.049  -0.244   3.664  0.00  0.00    +0.052 HD
ATOM    119  H   UNL     1       0.541  -1.172   2.269  0.00  0.00    +0.052 HD
ENDBRANCH 115 116
ENDBRANCH   5 115
BRANCH   3 120
ATOM    120  O   UNL     1      -2.227   3.898   2.188  0.00  0.00    -0.379 OA
BRANCH 120 121
ATOM    121  C   UNL     1      -2.506   4.450   0.907  0.00  0.00    +0.037 C 
ATOM    122  H   UNL     1      -1.584   4.736   0.397  0.00  0.00    +0.052 HD
ATOM    123  H   UNL     1      -3.078   3.747   0.295  0.00  0.00    +0.052 HD
ATOM    124  H   UNL     1      -3.112   5.349   1.048  0.00  0.00    +0.052 HD
ENDBRANCH 120 121
ENDBRANCH   3 120
TORSDOF 23
