REMARK  Name = Lobophorolide_conf3
REMARK  23 active torsions:
REMARK  status: ('A' for Active; 'I' for Inactive)
REMARK    1  A    between atoms: C_1  and  C_2
REMARK    2  A    between atoms: C_4  and  O_53
REMARK    3  A    between atoms: C_6  and  C_8
REMARK    4  A    between atoms: C_8  and  C_9
REMARK    5  A    between atoms: C_9  and  C_10
REMARK    6  A    between atoms: C_10  and  C_11
REMARK    7  A    between atoms: C_10  and  C_12
REMARK    8  A    between atoms: C_12  and  C_13
REMARK    9  A    between atoms: C_12  and  O_52
REMARK   10  A    between atoms: C_13  and  C_14
REMARK   11  A    between atoms: C_13  and  C_15
REMARK   12  A    between atoms: C_16  and  C_51
REMARK   13  A    between atoms: C_17  and  O_49
REMARK   14  A    between atoms: C_19  and  O_47
REMARK   15  A    between atoms: C_23  and  O_45
REMARK   16  A    between atoms: C_32  and  O_43
REMARK   17  A    between atoms: C_33  and  O_42
REMARK   18  A    between atoms: C_35  and  C_41
REMARK   19  A    between atoms: O_43  and  C_44
REMARK   20  A    between atoms: O_45  and  C_46
REMARK   21  A    between atoms: O_47  and  C_48
REMARK   22  A    between atoms: O_49  and  C_50
REMARK   23  A    between atoms: O_53  and  C_54
REMARK                            x       y       z     vdW  Elec       q    Type
REMARK                         _______ _______ _______ _____ _____    ______ ____
ROOT
ATOM      1  C   UNL     1       0.177   1.388  -0.242  0.00  0.00    +0.113 C 
ATOM      2  C   UNL     1       0.677   1.480   1.237  0.00  0.00    +0.020 C 
ATOM      3  C   UNL     1       1.890   0.602   1.658  0.00  0.00    +0.067 C 
ATOM      4  C   UNL     1       1.740  -0.911   1.374  0.00  0.00    +0.003 C 
ATOM      5  C   UNL     1       2.944  -1.719   1.913  0.00  0.00    +0.094 C 
ATOM      6  C   UNL     1       2.599  -3.199   2.111  0.00  0.00    +0.145 C 
ATOM      7  C   UNL     1       2.829  -4.167   0.955  0.00  0.00    +0.083 C 
ATOM      8  O   UNL     1       3.752  -4.077   2.042  0.00  0.00    -0.363 OA
ATOM      9  C   UNL     1       1.692  -3.597   3.280  0.00  0.00    +0.094 C 
ATOM     10  C   UNL     1       0.329  -4.124   2.802  0.00  0.00    +0.003 C 
ATOM     11  C   UNL     1      -0.662  -4.473   3.934  0.00  0.00    +0.065 C 
ATOM     12  C   UNL     1      -0.177  -5.495   4.976  0.00  0.00    -0.008 C 
ATOM     13  C   UNL     1      -0.190  -6.888   4.429  0.00  0.00    -0.083 C 
ATOM     14  C   UNL     1      -0.968  -7.192   3.380  0.00  0.00    -0.059 C 
ATOM     15  C   UNL     1      -1.871  -6.184   2.695  0.00  0.00    +0.080 C 
ATOM     16  O   UNL     1      -1.917  -4.933   3.397  0.00  0.00    -0.369 OA
ATOM     17  C   UNL     1      -3.292  -6.755   2.587  0.00  0.00    +0.006 C 
ATOM     18  C   UNL     1      -4.344  -5.895   1.848  0.00  0.00    +0.090 C 
ATOM     19  C   UNL     1      -3.936  -5.412   0.424  0.00  0.00    +0.100 C 
ATOM     20  C   UNL     1      -3.142  -4.130   0.358  0.00  0.00    -0.051 C 
ATOM     21  C   UNL     1      -3.168  -3.210  -0.629  0.00  0.00    -0.052 C 
ATOM     22  C   UNL     1      -2.418  -1.969  -0.453  0.00  0.00    -0.052 C 
ATOM     23  C   UNL     1      -2.569  -0.871  -1.207  0.00  0.00    +0.023 C 
ATOM     24  C   UNL     1      -1.849   0.394  -0.994  0.00  0.00    +0.332 C 
ATOM     25  O   UNL     1      -2.297   1.453  -1.406  0.00  0.00    -0.246 OA
ATOM     26  O   UNL     1      -0.649   0.204  -0.383  0.00  0.00    -0.458 OA
ATOM     27  H   UNL     1      -0.449   2.276  -0.373  0.00  0.00    +0.074 HD
ATOM     28  H   UNL     1       0.992   2.525   1.369  0.00  0.00    +0.036 HD
ATOM     29  H   UNL     1       2.014   0.701   2.745  0.00  0.00    +0.060 HD
ATOM     30  H   UNL     1       1.662  -1.093   0.296  0.00  0.00    +0.032 HD
ATOM     31  H   UNL     1       0.813  -1.264   1.836  0.00  0.00    +0.032 HD
ATOM     32  H   UNL     1       3.267  -1.293   2.870  0.00  0.00    +0.063 HD
ATOM     33  H   UNL     1       2.255  -5.080   0.874  0.00  0.00    +0.059 HD
ATOM     34  H   UNL     1       3.138  -3.768  -0.005  0.00  0.00    +0.059 HD
ATOM     35  H   UNL     1       2.188  -4.398   3.846  0.00  0.00    +0.063 HD
ATOM     36  H   UNL     1       0.485  -4.995   2.159  0.00  0.00    +0.032 HD
ATOM     37  H   UNL     1      -0.151  -3.376   2.159  0.00  0.00    +0.032 HD
ATOM     38  H   UNL     1      -0.895  -3.544   4.469  0.00  0.00    +0.060 HD
ATOM     39  H   UNL     1      -0.863  -5.481   5.832  0.00  0.00    +0.033 HD
ATOM     40  H   UNL     1       0.813  -5.242   5.361  0.00  0.00    +0.033 HD
ATOM     41  H   UNL     1       0.422  -7.648   4.905  0.00  0.00    +0.057 HD
ATOM     42  H   UNL     1      -0.952  -8.201   2.975  0.00  0.00    +0.059 HD
ATOM     43  H   UNL     1      -1.468  -6.011   1.693  0.00  0.00    +0.064 HD
ATOM     44  H   UNL     1      -3.243  -7.729   2.081  0.00  0.00    +0.032 HD
ATOM     45  H   UNL     1      -3.658  -6.948   3.602  0.00  0.00    +0.032 HD
ATOM     46  H   UNL     1      -5.205  -6.562   1.692  0.00  0.00    +0.063 HD
ATOM     47  H   UNL     1      -4.878  -5.252  -0.114  0.00  0.00    +0.066 HD
ATOM     48  H   UNL     1      -2.586  -3.898   1.261  0.00  0.00    +0.060 HD
ATOM     49  H   UNL     1      -1.728  -1.938   0.388  0.00  0.00    +0.062 HD
ATOM     50  H   UNL     1      -3.294  -0.815  -2.009  0.00  0.00    +0.069 HD
ENDROOT
BRANCH  21  51
ATOM     51  C   UNL     1      -3.935  -3.399  -1.914  0.00  0.00    -0.040 C 
ATOM     52  H   UNL     1      -4.254  -4.434  -2.074  0.00  0.00    +0.028 HD
ATOM     53  H   UNL     1      -4.835  -2.772  -1.916  0.00  0.00    +0.028 HD
ATOM     54  H   UNL     1      -3.322  -3.136  -2.784  0.00  0.00    +0.028 HD
ENDBRANCH  21  51
BRANCH   2  55
ATOM     55  C   UNL     1      -0.491   1.270   2.215  0.00  0.00    -0.057 C 
ATOM     56  H   UNL     1      -1.322   1.944   1.972  0.00  0.00    +0.023 HD
ATOM     57  H   UNL     1      -0.873   0.246   2.192  0.00  0.00    +0.023 HD
ATOM     58  H   UNL     1      -0.179   1.490   3.242  0.00  0.00    +0.023 HD
ENDBRANCH   2  55
BRANCH   1  59
ATOM     59  C   UNL     1       1.270   1.399  -1.351  0.00  0.00    +0.020 C 
ATOM     60  H   UNL     1       1.969   0.593  -1.106  0.00  0.00    +0.036 HD
BRANCH  59  61
ATOM     61  C   UNL     1       0.756   0.974  -2.736  0.00  0.00    -0.057 C 
ATOM     62  H   UNL     1       1.559   1.020  -3.480  0.00  0.00    +0.023 HD
ATOM     63  H   UNL     1       0.405  -0.064  -2.720  0.00  0.00    +0.023 HD
ATOM     64  H   UNL     1      -0.069   1.601  -3.083  0.00  0.00    +0.023 HD
ENDBRANCH  59  61
BRANCH  59  65
ATOM     65  C   UNL     1       2.083   2.726  -1.412  0.00  0.00    +0.064 C 
ATOM     66  H   UNL     1       2.175   3.163  -0.413  0.00  0.00    +0.060 HD
BRANCH  65  67
ATOM     67  C   UNL     1       1.589   3.852  -2.378  0.00  0.00    -0.017 C 
ATOM     68  H   UNL     1       1.523   3.425  -3.380  0.00  0.00    +0.032 HD
BRANCH  67  69
ATOM     69  C   UNL     1       0.207   4.372  -1.977  0.00  0.00    -0.060 C 
ATOM     70  H   UNL     1      -0.142   5.165  -2.644  0.00  0.00    +0.023 HD
ATOM     71  H   UNL     1       0.213   4.767  -0.956  0.00  0.00    +0.023 HD
ATOM     72  H   UNL     1      -0.552   3.591  -2.042  0.00  0.00    +0.023 HD
ENDBRANCH  67  69
BRANCH  67  73
ATOM     73  C   UNL     1       2.637   4.997  -2.441  0.00  0.00    -0.046 C 
ATOM     74  H   UNL     1       2.850   5.303  -1.407  0.00  0.00    +0.027 HD
ATOM     75  H   UNL     1       3.583   4.608  -2.840  0.00  0.00    +0.027 HD
BRANCH  73  76
ATOM     76  C   UNL     1       2.289   6.273  -3.218  0.00  0.00    -0.026 C 
ATOM     77  H   UNL     1       1.313   6.672  -2.920  0.00  0.00    +0.029 HD
ATOM     78  H   UNL     1       2.995   7.047  -2.881  0.00  0.00    +0.029 HD
BRANCH  76  83
ATOM     79  C   UNL     1       1.058   7.855  -5.945  0.00  0.00    +0.059 C 
ATOM     80  C   UNL     1       1.095   7.028  -7.226  0.00  0.00    -0.000 C 
ATOM     81  C   UNL     1       1.243   5.532  -6.923  0.00  0.00    +0.063 C 
ATOM     82  C   UNL     1       1.425   5.253  -5.430  0.00  0.00    -0.000 C 
ATOM     83  C   UNL     1       2.395   6.228  -4.755  0.00  0.00    +0.061 C 
ATOM     84  O   UNL     1       2.241   7.590  -5.195  0.00  0.00    -0.373 OA
ATOM     85  H   UNL     1       0.177   7.611  -5.339  0.00  0.00    +0.059 HD
ATOM     86  H   UNL     1       0.183   7.197  -7.808  0.00  0.00    +0.032 HD
ATOM     87  H   UNL     1       1.935   7.363  -7.849  0.00  0.00    +0.032 HD
ATOM     88  H   UNL     1       0.344   4.996  -7.253  0.00  0.00    +0.060 HD
ATOM     89  H   UNL     1       0.443   5.324  -4.950  0.00  0.00    +0.032 HD
ATOM     90  H   UNL     1       1.784   4.229  -5.297  0.00  0.00    +0.032 HD
ATOM     91  H   UNL     1       3.420   5.944  -5.022  0.00  0.00    +0.060 HD
BRANCH  79  92
ATOM     92  C   UNL     1       1.024   9.346  -6.255  0.00  0.00    -0.039 C 
ATOM     93  H   UNL     1       0.152   9.608  -6.859  0.00  0.00    +0.025 HD
ATOM     94  H   UNL     1       0.996   9.925  -5.329  0.00  0.00    +0.025 HD
ATOM     95  H   UNL     1       1.930   9.655  -6.792  0.00  0.00    +0.025 HD
ENDBRANCH  79  92
BRANCH  81  96
ATOM     96  O   UNL     1       2.371   4.988  -7.623  0.00  0.00    -0.380 OA
BRANCH  96  97
ATOM     97  C   UNL     1       2.097   4.711  -8.992  0.00  0.00    +0.037 C 
ATOM     98  H   UNL     1       1.365   3.899  -9.070  0.00  0.00    +0.052 HD
ATOM     99  H   UNL     1       3.026   4.390  -9.471  0.00  0.00    +0.052 HD
ATOM    100  H   UNL     1       1.726   5.600  -9.514  0.00  0.00    +0.052 HD
ENDBRANCH  96  97
ENDBRANCH  81  96
ENDBRANCH  76  83
ENDBRANCH  73  76
ENDBRANCH  67  73
ENDBRANCH  65  67
BRANCH  65 101
ATOM    101  O   UNL     1       3.418   2.369  -1.807  0.00  0.00    -0.391 OA
ATOM    102  H   UNL     1       3.758   1.765  -1.114  0.00  0.00    +0.210 HD
ENDBRANCH  65 101
ENDBRANCH  59  65
ENDBRANCH   1  59
BRANCH  19 103
ATOM    103  O   UNL     1      -3.226  -6.440  -0.265  0.00  0.00    -0.385 OA
ATOM    104  H   UNL     1      -2.697  -6.011  -0.962  0.00  0.00    +0.210 HD
ENDBRANCH  19 103
BRANCH  18 105
ATOM    105  O   UNL     1      -4.786  -4.774   2.627  0.00  0.00    -0.377 OA
BRANCH 105 106
ATOM    106  C   UNL     1      -5.826  -5.088   3.542  0.00  0.00    +0.037 C 
ATOM    107  H   UNL     1      -5.566  -5.935   4.186  0.00  0.00    +0.052 HD
ATOM    108  H   UNL     1      -6.000  -4.213   4.175  0.00  0.00    +0.052 HD
ATOM    109  H   UNL     1      -6.749  -5.306   2.994  0.00  0.00    +0.052 HD
ENDBRANCH 105 106
ENDBRANCH  18 105
BRANCH   9 110
ATOM    110  O   UNL     1       1.460  -2.476   4.147  0.00  0.00    -0.377 OA
BRANCH 110 111
ATOM    111  C   UNL     1       2.356  -2.446   5.252  0.00  0.00    +0.037 C 
ATOM    112  H   UNL     1       2.127  -3.258   5.947  0.00  0.00    +0.052 HD
ATOM    113  H   UNL     1       2.223  -1.496   5.775  0.00  0.00    +0.052 HD
ATOM    114  H   UNL     1       3.397  -2.518   4.920  0.00  0.00    +0.052 HD
ENDBRANCH 110 111
ENDBRANCH   9 110
BRANCH   5 115
ATOM    115  O   UNL     1       4.009  -1.581   0.950  0.00  0.00    -0.377 OA
BRANCH 115 116
ATOM    116  C   UNL     1       5.288  -1.427   1.551  0.00  0.00    +0.037 C 
ATOM    117  H   UNL     1       5.322  -0.513   2.151  0.00  0.00    +0.052 HD
ATOM    118  H   UNL     1       5.538  -2.288   2.176  0.00  0.00    +0.052 HD
ATOM    119  H   UNL     1       6.032  -1.345   0.755  0.00  0.00    +0.052 HD
ENDBRANCH 115 116
ENDBRANCH   5 115
BRANCH   3 120
ATOM    120  O   UNL     1       3.080   1.105   1.026  0.00  0.00    -0.379 OA
BRANCH 120 121
ATOM    121  C   UNL     1       3.755   2.088   1.801  0.00  0.00    +0.037 C 
ATOM    122  H   UNL     1       4.625   2.430   1.235  0.00  0.00    +0.052 HD
ATOM    123  H   UNL     1       4.104   1.657   2.743  0.00  0.00    +0.052 HD
ATOM    124  H   UNL     1       3.109   2.948   1.997  0.00  0.00    +0.052 HD
ENDBRANCH 120 121
ENDBRANCH   3 120
TORSDOF 23
