REMARK  Name = Mycalolide B_conf1
REMARK  35 active torsions:
REMARK  status: ('A' for Active; 'I' for Inactive)
REMARK    1  A    between atoms: C_1  and  C_2
REMARK    2  A    between atoms: C_3  and  O_72
REMARK    3  A    between atoms: C_22  and  O_70
REMARK    4  A    between atoms: C_23  and  C_69
REMARK    5  A    between atoms: C_29  and  O_68
REMARK    6  A    between atoms: C_34  and  C_35
REMARK    7  A    between atoms: C_35  and  C_36
REMARK    8  A    between atoms: C_36  and  C_37
REMARK    9  A    between atoms: C_36  and  O_66
REMARK   10  A    between atoms: C_37  and  C_38
REMARK   11  A    between atoms: C_37  and  C_39
REMARK   12  A    between atoms: C_39  and  C_40
REMARK   13  A    between atoms: C_40  and  C_41
REMARK   14  A    between atoms: C_41  and  C_42
REMARK   15  A    between atoms: C_41  and  O_57
REMARK   16  A    between atoms: C_42  and  C_43
REMARK   17  A    between atoms: C_42  and  C_44
REMARK   18  A    between atoms: C_44  and  C_45
REMARK   19  A    between atoms: C_44  and  O_53
REMARK   20  A    between atoms: C_45  and  C_46
REMARK   21  A    between atoms: C_45  and  C_47
REMARK   22  A    between atoms: C_48  and  N_49
REMARK   23  A    between atoms: N_49  and  C_50
REMARK   24  A    between atoms: O_53  and  C_54
REMARK   25  A    between atoms: C_54  and  C_56
REMARK   26  A    between atoms: O_57  and  C_58
REMARK   27  A    between atoms: C_58  and  C_60
REMARK   28  A    between atoms: C_60  and  C_61
REMARK   29  A    between atoms: C_60  and  O_64
REMARK   30  A    between atoms: C_61  and  O_62
REMARK   31  A    between atoms: O_62  and  C_63
REMARK   32  A    between atoms: O_64  and  C_65
REMARK   33  A    between atoms: O_66  and  C_67
REMARK   34  A    between atoms: O_70  and  C_71
REMARK   35  A    between atoms: O_72  and  C_73
REMARK                            x       y       z     vdW  Elec       q    Type
REMARK                         _______ _______ _______ _____ _____    ______ ____
ROOT
ATOM      1  C   UNL     1       1.138  -1.851  -3.108  0.00  0.00    +0.011 C 
ATOM      2  H   UNL     1       1.952  -2.511  -2.782  0.00  0.00    +0.033 HD
ATOM      3  H   UNL     1       1.410  -1.549  -4.125  0.00  0.00    +0.033 HD
ENDROOT
BRANCH   1  36
ATOM      4  C   UNL     1      -0.287  -3.668  -4.296  0.00  0.00    +0.020 C 
ATOM      5  C   UNL     1      -1.011  -3.188  -5.590  0.00  0.00    +0.068 C 
ATOM      6  C   UNL     1      -0.477  -1.901  -6.279  0.00  0.00    -0.008 C 
ATOM      7  C   UNL     1      -0.865  -0.609  -5.615  0.00  0.00    -0.077 C 
ATOM      8  C   UNL     1      -0.243   0.571  -5.771  0.00  0.00    -0.003 C 
ATOM      9  C   UNL     1      -0.701   1.711  -5.050  0.00  0.00    +0.220 A 
ATOM     10  N   UNL     1      -1.496   1.682  -3.991  0.00  0.00    -0.205 NA
ATOM     11  C   UNL     1      -1.685   2.990  -3.630  0.00  0.00    +0.164 A 
ATOM     12  C   UNL     1      -0.974   3.801  -4.471  0.00  0.00    +0.125 A 
ATOM     13  O   UNL     1      -0.325   3.006  -5.368  0.00  0.00    -0.443 OA
ATOM     14  C   UNL     1      -2.584   3.444  -2.441  0.00  0.00    +0.250 A 
ATOM     15  N   UNL     1      -3.208   2.585  -1.658  0.00  0.00    -0.203 NA
ATOM     16  C   UNL     1      -3.892   3.367  -0.763  0.00  0.00    +0.164 A 
ATOM     17  C   UNL     1      -3.660   4.690  -1.033  0.00  0.00    +0.125 A 
ATOM     18  O   UNL     1      -2.816   4.759  -2.103  0.00  0.00    -0.442 OA
ATOM     19  C   UNL     1      -4.798   2.821   0.384  0.00  0.00    +0.249 A 
ATOM     20  N   UNL     1      -4.973   1.529   0.614  0.00  0.00    -0.210 NA
ATOM     21  C   UNL     1      -5.801   1.472   1.713  0.00  0.00    +0.109 A 
ATOM     22  C   UNL     1      -6.111   2.755   2.104  0.00  0.00    +0.118 A 
ATOM     23  O   UNL     1      -5.483   3.625   1.266  0.00  0.00    -0.442 OA
ATOM     24  C   UNL     1      -6.181   0.162   2.338  0.00  0.00    +0.113 C 
ATOM     25  C   UNL     1      -4.928  -0.692   2.629  0.00  0.00    +0.051 C 
ATOM     26  C   UNL     1      -5.355  -1.978   3.323  0.00  0.00    +0.161 C 
ATOM     27  O   UNL     1      -6.153  -1.980   4.260  0.00  0.00    -0.292 OA
ATOM     28  C   UNL     1      -4.756  -3.283   2.913  0.00  0.00    -0.023 C 
ATOM     29  C   UNL     1      -3.565  -3.421   2.306  0.00  0.00    -0.078 C 
ATOM     30  C   UNL     1      -2.970  -4.756   1.944  0.00  0.00    -0.008 C 
ATOM     31  C   UNL     1      -2.653  -4.899   0.443  0.00  0.00    +0.069 C 
ATOM     32  C   UNL     1      -1.399  -4.119   0.029  0.00  0.00    +0.071 C 
ATOM     33  C   UNL     1      -1.513  -3.594  -1.382  0.00  0.00    +0.310 C 
ATOM     34  O   UNL     1      -2.563  -3.356  -1.959  0.00  0.00    -0.251 OA
ATOM     35  O   UNL     1      -0.268  -3.343  -1.878  0.00  0.00    -0.461 OA
ATOM     36  C   UNL     1      -0.195  -2.625  -3.140  0.00  0.00    +0.110 C 
ATOM     37  H   UNL     1      -0.881  -4.503  -3.903  0.00  0.00    +0.036 HD
ATOM     38  H   UNL     1      -0.907  -3.986  -6.338  0.00  0.00    +0.060 HD
ATOM     39  H   UNL     1       0.607  -1.964  -6.416  0.00  0.00    +0.033 HD
ATOM     40  H   UNL     1      -0.926  -1.871  -7.282  0.00  0.00    +0.033 HD
ATOM     41  H   UNL     1      -1.754  -0.652  -4.979  0.00  0.00    +0.057 HD
ATOM     42  H   UNL     1       0.605   0.688  -6.435  0.00  0.00    +0.067 HD
ATOM     43  H   UNL     1      -0.822   4.866  -4.565  0.00  0.00    +0.105 HD
ATOM     44  H   UNL     1      -3.983   5.624  -0.605  0.00  0.00    +0.105 HD
ATOM     45  H   UNL     1      -6.699   3.194   2.897  0.00  0.00    +0.105 HD
ATOM     46  H   UNL     1      -6.724   0.346   3.275  0.00  0.00    +0.067 HD
ATOM     47  H   UNL     1      -4.449  -0.943   1.676  0.00  0.00    +0.041 HD
ATOM     48  H   UNL     1      -5.350  -4.147   3.198  0.00  0.00    +0.065 HD
ATOM     49  H   UNL     1      -2.960  -2.549   2.071  0.00  0.00    +0.057 HD
ATOM     50  H   UNL     1      -2.055  -4.911   2.529  0.00  0.00    +0.033 HD
ATOM     51  H   UNL     1      -3.648  -5.565   2.245  0.00  0.00    +0.033 HD
ATOM     52  H   UNL     1      -3.533  -4.607  -0.141  0.00  0.00    +0.060 HD
ATOM     53  H   UNL     1      -0.516  -4.764   0.095  0.00  0.00    +0.040 HD
ATOM     54  H   UNL     1      -1.238  -3.240   0.662  0.00  0.00    +0.040 HD
ATOM     55  H   UNL     1      -1.027  -1.917  -3.181  0.00  0.00    +0.074 HD
BRANCH   4  56
ATOM     56  C   UNL     1       1.063  -4.313  -4.647  0.00  0.00    -0.057 C 
ATOM     57  H   UNL     1       1.752  -3.610  -5.126  0.00  0.00    +0.023 HD
ATOM     58  H   UNL     1       1.548  -4.718  -3.753  0.00  0.00    +0.023 HD
ATOM     59  H   UNL     1       0.919  -5.149  -5.343  0.00  0.00    +0.023 HD
ENDBRANCH   4  56
BRANCH  25  60
ATOM     60  C   UNL     1      -3.923   0.014   3.544  0.00  0.00    -0.053 C 
ATOM     61  H   UNL     1      -3.143  -0.674   3.888  0.00  0.00    +0.024 HD
ATOM     62  H   UNL     1      -4.419   0.417   4.431  0.00  0.00    +0.024 HD
ATOM     63  H   UNL     1      -3.425   0.839   3.026  0.00  0.00    +0.024 HD
ENDBRANCH  25  60
BRANCH  31  64
ATOM     64  O   UNL     1      -2.407  -6.285   0.168  0.00  0.00    -0.391 OA
ATOM     65  H   UNL     1      -3.261  -6.753   0.233  0.00  0.00    +0.210 HD
ENDBRANCH  31  64
BRANCH  24  66
ATOM     66  O   UNL     1      -7.022  -0.609   1.457  0.00  0.00    -0.373 OA
BRANCH  66  67
ATOM     67  C   UNL     1      -8.379  -0.188   1.472  0.00  0.00    +0.037 C 
ATOM     68  H   UNL     1      -8.478   0.836   1.104  0.00  0.00    +0.052 HD
ATOM     69  H   UNL     1      -8.793  -0.272   2.482  0.00  0.00    +0.052 HD
ATOM     70  H   UNL     1      -8.949  -0.848   0.813  0.00  0.00    +0.052 HD
ENDBRANCH  66  67
ENDBRANCH  24  66
BRANCH   5  71
ATOM     71  O   UNL     1      -2.418  -2.991  -5.374  0.00  0.00    -0.379 OA
BRANCH  71  72
ATOM     72  C   UNL     1      -3.176  -4.185  -5.251  0.00  0.00    +0.037 C 
ATOM     73  H   UNL     1      -4.237  -3.915  -5.229  0.00  0.00    +0.052 HD
ATOM     74  H   UNL     1      -3.007  -4.845  -6.108  0.00  0.00    +0.052 HD
ATOM     75  H   UNL     1      -2.947  -4.711  -4.323  0.00  0.00    +0.052 HD
ENDBRANCH  71  72
ENDBRANCH   5  71
ENDBRANCH   1  36
BRANCH   1  76
ATOM     76  C   UNL     1       1.170  -0.580  -2.233  0.00  0.00    +0.064 C 
ATOM     77  H   UNL     1       0.446   0.140  -2.635  0.00  0.00    +0.060 HD
BRANCH  76  78
ATOM     78  C   UNL     1       0.861  -0.754  -0.717  0.00  0.00    -0.017 C 
ATOM     79  H   UNL     1      -0.162  -1.127  -0.607  0.00  0.00    +0.032 HD
BRANCH  78  80
ATOM     80  C   UNL     1       1.827  -1.735  -0.032  0.00  0.00    -0.060 C 
ATOM     81  H   UNL     1       1.507  -1.949   0.992  0.00  0.00    +0.023 HD
ATOM     82  H   UNL     1       2.842  -1.329   0.010  0.00  0.00    +0.023 HD
ATOM     83  H   UNL     1       1.873  -2.697  -0.548  0.00  0.00    +0.023 HD
ENDBRANCH  78  80
BRANCH  78  84
ATOM     84  C   UNL     1       0.932   0.638  -0.037  0.00  0.00    -0.045 C 
ATOM     85  H   UNL     1       1.951   1.008  -0.153  0.00  0.00    +0.027 HD
ATOM     86  H   UNL     1       0.275   1.334  -0.573  0.00  0.00    +0.027 HD
BRANCH  84  87
ATOM     87  C   UNL     1       0.570   0.664   1.448  0.00  0.00    -0.015 C 
ATOM     88  H   UNL     1       1.205  -0.021   2.020  0.00  0.00    +0.030 HD
ATOM     89  H   UNL     1      -0.449   0.271   1.573  0.00  0.00    +0.030 HD
BRANCH  87  90
ATOM     90  C   UNL     1       0.632   2.066   2.089  0.00  0.00    +0.109 C 
ATOM     91  H   UNL     1      -0.120   2.691   1.593  0.00  0.00    +0.074 HD
BRANCH  90  92
ATOM     92  C   UNL     1       2.007   2.819   2.067  0.00  0.00    +0.031 C 
ATOM     93  H   UNL     1       1.937   3.561   2.874  0.00  0.00    +0.037 HD
BRANCH  92  94
ATOM     94  C   UNL     1       2.173   3.617   0.768  0.00  0.00    -0.056 C 
ATOM     95  H   UNL     1       2.525   3.008  -0.066  0.00  0.00    +0.023 HD
ATOM     96  H   UNL     1       1.232   4.087   0.466  0.00  0.00    +0.023 HD
ATOM     97  H   UNL     1       2.889   4.432   0.903  0.00  0.00    +0.023 HD
ENDBRANCH  92  94
BRANCH  92  98
ATOM     98  C   UNL     1       3.222   1.901   2.410  0.00  0.00    +0.115 C 
ATOM     99  H   UNL     1       3.265   1.100   1.665  0.00  0.00    +0.074 HD
BRANCH  98 100
ATOM    100  C   UNL     1       4.631   2.565   2.485  0.00  0.00    +0.013 C 
ATOM    101  H   UNL     1       5.287   1.870   3.030  0.00  0.00    +0.038 HD
BRANCH 100 102
ATOM    102  C   UNL     1       4.666   3.844   3.329  0.00  0.00    -0.056 C 
ATOM    103  H   UNL     1       4.098   4.661   2.873  0.00  0.00    +0.024 HD
ATOM    104  H   UNL     1       4.255   3.662   4.326  0.00  0.00    +0.024 HD
ATOM    105  H   UNL     1       5.697   4.194   3.456  0.00  0.00    +0.024 HD
ENDBRANCH 100 102
BRANCH 100 106
ATOM    106  C   UNL     1       5.262   2.777   1.124  0.00  0.00    -0.064 C 
ATOM    107  C   UNL     1       6.015   1.832   0.542  0.00  0.00    -0.005 C 
ATOM    108  H   UNL     1       5.076   3.732   0.647  0.00  0.00    +0.059 HD
ATOM    109  H   UNL     1       6.168   0.889   1.074  0.00  0.00    +0.078 HD
BRANCH 107 110
ATOM    110  N   UNL     1       6.638   1.887  -0.696  0.00  0.00    -0.284 N 
ATOM    111  C   UNL     1       6.528   2.932  -1.602  0.00  0.00    +0.206 C 
ATOM    112  O   UNL     1       7.069   2.998  -2.704  0.00  0.00    -0.279 OA
ATOM    113  H   UNL     1       5.877   3.749  -1.264  0.00  0.00    +0.126 HD
BRANCH 110 114
ATOM    114  C   UNL     1       7.451   0.736  -1.080  0.00  0.00    +0.007 C 
ATOM    115  H   UNL     1       8.016   0.923  -1.997  0.00  0.00    +0.043 HD
ATOM    116  H   UNL     1       8.157   0.504  -0.278  0.00  0.00    +0.043 HD
ATOM    117  H   UNL     1       6.789  -0.119  -1.243  0.00  0.00    +0.043 HD
ENDBRANCH 110 114
ENDBRANCH 107 110
ENDBRANCH 100 106
ENDBRANCH  98 100
BRANCH  98 118
ATOM    118  O   UNL     1       2.957   1.303   3.710  0.00  0.00    -0.461 OA
BRANCH 118 119
ATOM    119  C   UNL     1       3.489   0.072   3.944  0.00  0.00    +0.304 C 
ATOM    120  O   UNL     1       4.196  -0.554   3.170  0.00  0.00    -0.251 OA
BRANCH 119 121
ATOM    121  C   UNL     1       3.083  -0.409   5.304  0.00  0.00    +0.033 C 
ATOM    122  H   UNL     1       3.446   0.285   6.064  0.00  0.00    +0.034 HD
ATOM    123  H   UNL     1       3.531  -1.390   5.488  0.00  0.00    +0.034 HD
ATOM    124  H   UNL     1       1.996  -0.506   5.357  0.00  0.00    +0.034 HD
ENDBRANCH 119 121
ENDBRANCH 118 119
ENDBRANCH  98 118
ENDBRANCH  92  98
ENDBRANCH  90  92
BRANCH  90 125
ATOM    125  O   UNL     1       0.288   1.893   3.489  0.00  0.00    -0.459 OA
BRANCH 125 126
ATOM    126  C   UNL     1      -0.735   2.654   3.989  0.00  0.00    +0.339 C 
ATOM    127  O   UNL     1      -1.560   3.254   3.311  0.00  0.00    -0.248 OA
BRANCH 126 128
ATOM    128  C   UNL     1      -0.707   2.589   5.529  0.00  0.00    +0.178 C 
ATOM    129  H   UNL     1      -0.725   1.527   5.814  0.00  0.00    +0.074 HD
BRANCH 128 130
ATOM    130  C   UNL     1       0.615   3.199   6.028  0.00  0.00    +0.084 C 
ATOM    131  H   UNL     1       1.474   2.622   5.667  0.00  0.00    +0.059 HD
ATOM    132  H   UNL     1       0.625   3.187   7.124  0.00  0.00    +0.059 HD
BRANCH 130 133
ATOM    133  O   UNL     1       0.754   4.552   5.576  0.00  0.00    -0.380 OA
BRANCH 133 134
ATOM    134  C   UNL     1       1.830   5.219   6.220  0.00  0.00    +0.037 C 
ATOM    135  H   UNL     1       1.638   5.303   7.294  0.00  0.00    +0.052 HD
ATOM    136  H   UNL     1       2.772   4.690   6.045  0.00  0.00    +0.052 HD
ATOM    137  H   UNL     1       1.909   6.227   5.800  0.00  0.00    +0.052 HD
ENDBRANCH 133 134
ENDBRANCH 130 133
ENDBRANCH 128 130
BRANCH 128 138
ATOM    138  O   UNL     1      -1.766   3.246   6.232  0.00  0.00    -0.366 OA
BRANCH 138 139
ATOM    139  C   UNL     1      -3.033   2.634   6.045  0.00  0.00    +0.038 C 
ATOM    140  H   UNL     1      -2.991   1.565   6.281  0.00  0.00    +0.052 HD
ATOM    141  H   UNL     1      -3.391   2.783   5.023  0.00  0.00    +0.052 HD
ATOM    142  H   UNL     1      -3.745   3.110   6.726  0.00  0.00    +0.052 HD
ENDBRANCH 138 139
ENDBRANCH 128 138
ENDBRANCH 126 128
ENDBRANCH 125 126
ENDBRANCH  90 125
ENDBRANCH  87  90
ENDBRANCH  84  87
ENDBRANCH  78  84
ENDBRANCH  76  78
BRANCH  76 143
ATOM    143  O   UNL     1       2.502  -0.030  -2.330  0.00  0.00    -0.379 OA
BRANCH 143 144
ATOM    144  C   UNL     1       2.647   0.937  -3.361  0.00  0.00    +0.037 C 
ATOM    145  H   UNL     1       3.675   1.310  -3.338  0.00  0.00    +0.052 HD
ATOM    146  H   UNL     1       2.462   0.490  -4.342  0.00  0.00    +0.052 HD
ATOM    147  H   UNL     1       1.969   1.781  -3.191  0.00  0.00    +0.052 HD
ENDBRANCH 143 144
ENDBRANCH  76 143
ENDBRANCH   1  76
TORSDOF 35
