REMARK  Name = Phalloidin_conf3
REMARK  12 active torsions:
REMARK  status: ('A' for Active; 'I' for Inactive)
REMARK    1  A    between atoms: CB_1  and  CA_2
REMARK    2  A    between atoms: CG_24  and  OD_30
REMARK    3  A    between atoms: CA_34  and  CB_53
REMARK    4  A    between atoms: CA_38  and  CB_52
REMARK    5  A    between atoms: C_42  and  C_46
REMARK    6  A    between atoms: C_46  and  C_47
REMARK    7  A    between atoms: C_47  and  C_48
REMARK    8  A    between atoms: C_47  and  C_49
REMARK    9  A    between atoms: C_47  and  O_51
REMARK   10  A    between atoms: C_49  and  O_50
REMARK   11  A    between atoms: CB_53  and  CG2_54
REMARK   12  A    between atoms: CB_53  and  OG1_55
REMARK                            x       y       z     vdW  Elec       q    Type
REMARK                         _______ _______ _______ _____ _____    ______ ____
ROOT
ATOM      1  CA  ALA A   7      -3.434   2.291  -1.998  0.00  0.00    +0.097 C 
ATOM      2  C   ALA A   7      -3.313   0.747  -2.017  0.00  0.00    +0.234 C 
ATOM      3  O   ALA A   7      -4.183   0.030  -2.512  0.00  0.00    -0.274 OA
ATOM      4  N   UNK A   1      -2.123   0.252  -1.537  0.00  0.00    -0.302 N 
ATOM      5  C   UNK A   1      -1.758  -1.167  -1.567  0.00  0.00    +0.103 C 
ATOM      6  C   UNK A   1      -0.275  -1.360  -1.930  0.00  0.00    +0.002 C 
ATOM      7  C   UNK A   1       0.111  -0.861  -3.295  0.00  0.00    -0.006 A 
ATOM      8  C   UNK A   5       0.479   0.414  -3.679  0.00  0.00    +0.078 A 
ATOM      9  N   UNK A   5       0.729   0.413  -5.024  0.00  0.00    -0.349 N 
ATOM     10  C   UNK A   5       0.532  -0.843  -5.545  0.00  0.00    +0.048 A 
ATOM     11  C   UNK A   5       0.659  -1.305  -6.859  0.00  0.00    -0.038 A 
ATOM     12  C   UNK A   5       0.387  -2.655  -7.100  0.00  0.00    -0.060 A 
ATOM     13  C   UNK A   5       0.002  -3.503  -6.064  0.00  0.00    -0.061 A 
ATOM     14  C   UNK A   5      -0.121  -3.026  -4.755  0.00  0.00    -0.052 A 
ATOM     15  C   UNK A   5       0.147  -1.666  -4.486  0.00  0.00    +0.004 A 
ATOM     16  S   UNK A   5       0.573   1.928  -2.855  0.00  0.00    -0.105 S 
ATOM     17  C   UNK A   5       2.083   1.786  -1.836  0.00  0.00    +0.027 C 
ATOM     18  C   UNK A   5       1.899   1.761  -0.301  0.00  0.00    +0.109 C 
ATOM     19  C   UNK A   5       0.492   2.144   0.189  0.00  0.00    +0.237 C 
ATOM     20  O   UNK A   5      -0.301   1.262   0.551  0.00  0.00    -0.274 OA
ATOM     21  N   HYP A   6       0.086   3.459   0.156  0.00  0.00    -0.286 N 
ATOM     22  CD  HYP A   6       0.899   4.629  -0.126  0.00  0.00    +0.042 C 
ATOM     23  CG  HYP A   6       0.184   5.782   0.574  0.00  0.00    +0.073 C 
ATOM     24  CB  HYP A   6      -1.279   5.347   0.562  0.00  0.00    +0.002 C 
ATOM     25  CA  HYP A   6      -1.206   3.837   0.749  0.00  0.00    +0.105 C 
ATOM     26  C   HYP A   6      -2.431   3.157   0.110  0.00  0.00    +0.234 C 
ATOM     27  O   HYP A   6      -3.433   2.908   0.774  0.00  0.00    -0.274 OA
ATOM     28  N   ALA A   7      -2.356   2.942  -1.247  0.00  0.00    -0.303 N 
ATOM     29  N   UNK A   5       2.178   0.434   0.257  0.00  0.00    -0.302 N 
ATOM     30  C   THR A   4       3.457  -0.055   0.384  0.00  0.00    +0.237 C 
ATOM     31  O   THR A   4       4.431   0.610   0.032  0.00  0.00    -0.274 OA
ATOM     32  CA  THR A   4       3.552  -1.539   0.791  0.00  0.00    +0.125 C 
ATOM     33  N   THR A   4       2.451  -1.964   1.660  0.00  0.00    -0.300 N 
ATOM     34  C   ALA A   3       2.018  -3.281   1.659  0.00  0.00    +0.234 C 
ATOM     35  O   ALA A   3       2.464  -4.114   0.873  0.00  0.00    -0.274 OA
ATOM     36  CA  ALA A   3       0.940  -3.603   2.712  0.00  0.00    +0.097 C 
ATOM     37  N   ALA A   3      -0.313  -2.989   2.312  0.00  0.00    -0.303 N 
ATOM     38  C   UNK A   2      -0.691  -1.737   2.730  0.00  0.00    +0.234 C 
ATOM     39  O   UNK A   2       0.064  -1.001   3.376  0.00  0.00    -0.274 OA
ATOM     40  C   UNK A   2      -2.107  -1.295   2.286  0.00  0.00    +0.102 C 
ATOM     41  N   UNK A   2      -2.064  -0.937   0.866  0.00  0.00    -0.302 N 
ATOM     42  C   UNK A   1      -1.960  -1.825  -0.184  0.00  0.00    +0.234 C 
ATOM     43  O   UNK A   1      -1.853  -3.038  -0.008  0.00  0.00    -0.274 OA
ATOM     44  HA  ALA A   7      -4.385   2.524  -1.504  0.00  0.00    +0.059 HD
ATOM     45  H   UNK A   1      -1.450   0.906  -1.156  0.00  0.00    +0.150 HD
ATOM     46  H   UNK A   1      -2.401  -1.687  -2.288  0.00  0.00    +0.060 HD
ATOM     47  H   UNK A   1       0.361  -0.879  -1.182  0.00  0.00    +0.034 HD
ATOM     48  H   UNK A   1      -0.028  -2.427  -1.876  0.00  0.00    +0.034 HD
ATOM     49  H   UNK A   5       0.993   1.226  -5.559  0.00  0.00    +0.166 HD
ATOM     50  H   UNK A   5       0.963  -0.650  -7.670  0.00  0.00    +0.064 HD
ATOM     51  H   UNK A   5       0.487  -3.053  -8.108  0.00  0.00    +0.062 HD
ATOM     52  H   UNK A   5      -0.200  -4.555  -6.270  0.00  0.00    +0.062 HD
ATOM     53  H   UNK A   5      -0.404  -3.715  -3.967  0.00  0.00    +0.062 HD
ATOM     54  H   UNK A   5       2.661   2.684  -2.084  0.00  0.00    +0.040 HD
ATOM     55  H   UNK A   5       2.682   0.942  -2.188  0.00  0.00    +0.040 HD
ATOM     56  H   UNK A   5       2.630   2.437   0.159  0.00  0.00    +0.060 HD
ATOM     57  HD1 HYP A   6       1.918   4.505   0.248  0.00  0.00    +0.049 HD
ATOM     58  HD2 HYP A   6       0.950   4.779  -1.209  0.00  0.00    +0.049 HD
ATOM     59  HG  HYP A   6       0.532   5.895   1.610  0.00  0.00    +0.061 HD
ATOM     60  HB1 HYP A   6      -1.854   5.837   1.358  0.00  0.00    +0.031 HD
ATOM     61  HB2 HYP A   6      -1.759   5.629  -0.384  0.00  0.00    +0.031 HD
ATOM     62  HA  HYP A   6      -1.168   3.563   1.811  0.00  0.00    +0.060 HD
ATOM     63  H   ALA A   7      -1.477   3.134  -1.714  0.00  0.00    +0.149 HD
ATOM     64  H   UNK A   5       1.394  -0.133   0.576  0.00  0.00    +0.150 HD
ATOM     65  HA  THR A   4       3.448  -2.087  -0.158  0.00  0.00    +0.062 HD
ATOM     66  H   THR A   4       2.025  -1.321   2.332  0.00  0.00    +0.150 HD
ATOM     67  HA  ALA A   3       1.268  -3.165   3.666  0.00  0.00    +0.059 HD
ATOM     68  H   ALA A   3      -0.870  -3.438   1.576  0.00  0.00    +0.149 HD
ATOM     69  H   UNK A   2      -2.309  -0.346   2.793  0.00  0.00    +0.060 HD
ATOM     70  H   UNK A   2      -2.139   0.050   0.638  0.00  0.00    +0.150 HD
ENDROOT
BRANCH   1  71
ATOM     71  CB  ALA A   7      -3.457   2.815  -3.432  0.00  0.00    -0.038 C 
ATOM     72  HB1 ALA A   7      -2.530   2.564  -3.958  0.00  0.00    +0.025 HD
ATOM     73  HB2 ALA A   7      -3.565   3.906  -3.450  0.00  0.00    +0.025 HD
ATOM     74  HB3 ALA A   7      -4.287   2.380  -4.001  0.00  0.00    +0.025 HD
ENDBRANCH   1  71
BRANCH  36  75
ATOM     75  CB  ALA A   3       0.766  -5.104   2.905  0.00  0.00    -0.038 C 
ATOM     76  HB1 ALA A   3       0.046  -5.309   3.705  0.00  0.00    +0.025 HD
ATOM     77  HB2 ALA A   3       0.394  -5.592   1.998  0.00  0.00    +0.025 HD
ATOM     78  HB3 ALA A   3       1.721  -5.569   3.175  0.00  0.00    +0.025 HD
ENDBRANCH  36  75
BRANCH  40  79
ATOM     79  C   UNK A   2      -3.240  -2.279   2.629  0.00  0.00    +0.005 C 
ATOM     80  H   UNK A   2      -4.163  -1.907   2.166  0.00  0.00    +0.032 HD
ATOM     81  H   UNK A   2      -3.034  -3.254   2.164  0.00  0.00    +0.032 HD
BRANCH  79  82
ATOM     82  C   UNK A   2      -3.485  -2.510   4.140  0.00  0.00    +0.088 C 
BRANCH  82  83
ATOM     83  C   UNK A   2      -4.688  -3.453   4.301  0.00  0.00    -0.034 C 
ATOM     84  H   UNK A   2      -4.499  -4.399   3.780  0.00  0.00    +0.026 HD
ATOM     85  H   UNK A   2      -4.854  -3.709   5.357  0.00  0.00    +0.026 HD
ATOM     86  H   UNK A   2      -5.613  -3.019   3.904  0.00  0.00    +0.026 HD
ENDBRANCH  82  83
BRANCH  82  87
ATOM     87  C   UNK A   2      -3.735  -1.205   4.926  0.00  0.00    +0.073 C 
ATOM     88  H   UNK A   2      -4.005  -1.434   5.964  0.00  0.00    +0.059 HD
ATOM     89  H   UNK A   2      -2.830  -0.590   4.971  0.00  0.00    +0.059 HD
BRANCH  87  90
ATOM     90  O   UNK A   2      -4.783  -0.446   4.346  0.00  0.00    -0.392 OA
ATOM     91  H   UNK A   2      -4.881   0.362   4.878  0.00  0.00    +0.210 HD
ENDBRANCH  87  90
ENDBRANCH  82  87
BRANCH  82  92
ATOM     92  O   UNK A   2      -2.340  -3.175   4.693  0.00  0.00    -0.387 OA
ATOM     93  H   UNK A   2      -2.533  -3.382   5.624  0.00  0.00    +0.210 HD
ENDBRANCH  82  92
ENDBRANCH  79  82
ENDBRANCH  40  79
BRANCH  23  94
ATOM     94  OD  HYP A   6       0.333   7.008  -0.118  0.00  0.00    -0.390 OA
ATOM     95  HD  HYP A   6       1.161   7.435   0.173  0.00  0.00    +0.210 HD
ENDBRANCH  23  94
BRANCH  32  96
ATOM     96  CB  THR A   4       4.945  -1.881   1.375  0.00  0.00    +0.079 C 
ATOM     97  HB  THR A   4       4.987  -2.957   1.580  0.00  0.00    +0.061 HD
BRANCH  96  98
ATOM     98  CG2 THR A   4       5.271  -1.145   2.675  0.00  0.00    -0.037 C 
ATOM     99 HG21 THR A   4       5.334  -0.061   2.523  0.00  0.00    +0.026 HD
ATOM    100 HG22 THR A   4       4.528  -1.344   3.454  0.00  0.00    +0.026 HD
ATOM    101 HG23 THR A   4       6.256  -1.455   3.044  0.00  0.00    +0.026 HD
ENDBRANCH  96  98
BRANCH  96 102
ATOM    102  OG1 THR A   4       5.993  -1.621   0.435  0.00  0.00    -0.390 OA
ATOM    103  HG1 THR A   4       5.915  -0.685   0.157  0.00  0.00    +0.210 HD
ENDBRANCH  96 102
ENDBRANCH  32  96
TORSDOF 12
