REMARK  Name = Phalloidin_conf2
REMARK  12 active torsions:
REMARK  status: ('A' for Active; 'I' for Inactive)
REMARK    1  A    between atoms: CB_1  and  CA_2
REMARK    2  A    between atoms: CG_24  and  OD_30
REMARK    3  A    between atoms: CA_34  and  CB_53
REMARK    4  A    between atoms: CA_38  and  CB_52
REMARK    5  A    between atoms: C_42  and  C_46
REMARK    6  A    between atoms: C_46  and  C_47
REMARK    7  A    between atoms: C_47  and  C_48
REMARK    8  A    between atoms: C_47  and  C_49
REMARK    9  A    between atoms: C_47  and  O_51
REMARK   10  A    between atoms: C_49  and  O_50
REMARK   11  A    between atoms: CB_53  and  CG2_54
REMARK   12  A    between atoms: CB_53  and  OG1_55
REMARK                            x       y       z     vdW  Elec       q    Type
REMARK                         _______ _______ _______ _____ _____    ______ ____
ROOT
ATOM      1  CA  ALA A   7      -1.751  -4.602   0.967  0.00  0.00    +0.097 C 
ATOM      2  C   ALA A   7      -0.515  -3.683   1.015  0.00  0.00    +0.234 C 
ATOM      3  O   ALA A   7      -0.654  -2.464   0.892  0.00  0.00    -0.274 OA
ATOM      4  N   UNK A   1       0.729  -4.223   1.215  0.00  0.00    -0.302 N 
ATOM      5  C   UNK A   1       1.965  -3.469   0.907  0.00  0.00    +0.103 C 
ATOM      6  C   UNK A   1       2.062  -3.168  -0.610  0.00  0.00    +0.002 C 
ATOM      7  C   UNK A   1       2.989  -2.073  -1.052  0.00  0.00    -0.006 A 
ATOM      8  C   UNK A   5       2.679  -1.005  -1.876  0.00  0.00    +0.078 A 
ATOM      9  N   UNK A   5       3.799  -0.252  -2.067  0.00  0.00    -0.349 N 
ATOM     10  C   UNK A   5       4.863  -0.802  -1.397  0.00  0.00    +0.048 A 
ATOM     11  C   UNK A   5       6.193  -0.371  -1.318  0.00  0.00    -0.038 A 
ATOM     12  C   UNK A   5       7.083  -1.150  -0.574  0.00  0.00    -0.060 A 
ATOM     13  C   UNK A   5       6.658  -2.315   0.055  0.00  0.00    -0.061 A 
ATOM     14  C   UNK A   5       5.322  -2.729  -0.034  0.00  0.00    -0.052 A 
ATOM     15  C   UNK A   5       4.396  -1.958  -0.768  0.00  0.00    +0.004 A 
ATOM     16  S   UNK A   5       1.250  -0.516  -2.731  0.00  0.00    -0.105 S 
ATOM     17  C   UNK A   5       0.126  -0.100  -1.360  0.00  0.00    +0.027 C 
ATOM     18  C   UNK A   5      -1.312   0.240  -1.780  0.00  0.00    +0.109 C 
ATOM     19  C   UNK A   5      -2.287  -0.941  -1.521  0.00  0.00    +0.237 C 
ATOM     20  O   UNK A   5      -2.911  -1.049  -0.458  0.00  0.00    -0.274 OA
ATOM     21  N   HYP A   6      -2.444  -1.911  -2.490  0.00  0.00    -0.286 N 
ATOM     22  CD  HYP A   6      -2.010  -1.854  -3.880  0.00  0.00    +0.042 C 
ATOM     23  CG  HYP A   6      -2.457  -3.179  -4.504  0.00  0.00    +0.073 C 
ATOM     24  CB  HYP A   6      -3.609  -3.643  -3.618  0.00  0.00    +0.002 C 
ATOM     25  CA  HYP A   6      -3.266  -3.095  -2.231  0.00  0.00    +0.105 C 
ATOM     26  C   HYP A   6      -2.425  -4.085  -1.395  0.00  0.00    +0.234 C 
ATOM     27  O   HYP A   6      -1.553  -4.793  -1.896  0.00  0.00    -0.274 OA
ATOM     28  N   ALA A   7      -2.634  -3.990  -0.035  0.00  0.00    -0.303 N 
ATOM     29  N   UNK A   5      -1.789   1.350  -0.946  0.00  0.00    -0.302 N 
ATOM     30  C   THR A   4      -2.267   2.535  -1.442  0.00  0.00    +0.237 C 
ATOM     31  O   THR A   4      -2.398   2.741  -2.648  0.00  0.00    -0.274 OA
ATOM     32  CA  THR A   4      -2.742   3.557  -0.386  0.00  0.00    +0.125 C 
ATOM     33  N   THR A   4      -2.309   3.217   0.971  0.00  0.00    -0.300 N 
ATOM     34  C   ALA A   3      -1.064   3.521   1.467  0.00  0.00    +0.234 C 
ATOM     35  O   ALA A   3      -0.207   4.106   0.807  0.00  0.00    -0.274 OA
ATOM     36  CA  ALA A   3      -0.821   3.015   2.906  0.00  0.00    +0.097 C 
ATOM     37  N   ALA A   3       0.347   2.150   2.909  0.00  0.00    -0.303 N 
ATOM     38  C   UNK A   2       0.304   0.896   2.353  0.00  0.00    +0.234 C 
ATOM     39  O   UNK A   2      -0.723   0.460   1.832  0.00  0.00    -0.274 OA
ATOM     40  C   UNK A   2       1.627   0.089   2.422  0.00  0.00    +0.102 C 
ATOM     41  N   UNK A   2       1.396  -1.205   1.787  0.00  0.00    -0.302 N 
ATOM     42  C   UNK A   1       2.266  -2.260   1.840  0.00  0.00    +0.234 C 
ATOM     43  O   UNK A   1       3.280  -2.228   2.540  0.00  0.00    -0.274 OA
ATOM     44  HA  ALA A   7      -2.266  -4.481   1.927  0.00  0.00    +0.059 HD
ATOM     45  H   UNK A   1       0.823  -5.221   1.348  0.00  0.00    +0.150 HD
ATOM     46  H   UNK A   1       2.761  -4.189   1.138  0.00  0.00    +0.060 HD
ATOM     47  H   UNK A   1       1.065  -2.975  -1.017  0.00  0.00    +0.034 HD
ATOM     48  H   UNK A   1       2.377  -4.093  -1.115  0.00  0.00    +0.034 HD
ATOM     49  H   UNK A   5       3.837   0.577  -2.641  0.00  0.00    +0.166 HD
ATOM     50  H   UNK A   5       6.527   0.529  -1.823  0.00  0.00    +0.064 HD
ATOM     51  H   UNK A   5       8.125  -0.846  -0.497  0.00  0.00    +0.062 HD
ATOM     52  H   UNK A   5       7.366  -2.912   0.625  0.00  0.00    +0.062 HD
ATOM     53  H   UNK A   5       5.013  -3.640   0.468  0.00  0.00    +0.062 HD
ATOM     54  H   UNK A   5       0.122  -0.934  -0.667  0.00  0.00    +0.040 HD
ATOM     55  H   UNK A   5       0.583   0.754  -0.846  0.00  0.00    +0.040 HD
ATOM     56  H   UNK A   5      -1.371   0.546  -2.828  0.00  0.00    +0.060 HD
ATOM     57  HD1 HYP A   6      -0.933  -1.717  -3.941  0.00  0.00    +0.049 HD
ATOM     58  HD2 HYP A   6      -2.518  -1.002  -4.344  0.00  0.00    +0.049 HD
ATOM     59  HG  HYP A   6      -2.771  -3.042  -5.543  0.00  0.00    +0.061 HD
ATOM     60  HB1 HYP A   6      -3.745  -4.729  -3.623  0.00  0.00    +0.031 HD
ATOM     61  HB2 HYP A   6      -4.538  -3.173  -3.965  0.00  0.00    +0.031 HD
ATOM     62  HA  HYP A   6      -4.173  -2.828  -1.679  0.00  0.00    +0.060 HD
ATOM     63  H   ALA A   7      -3.103  -3.135   0.266  0.00  0.00    +0.149 HD
ATOM     64  H   UNK A   5      -1.807   1.193   0.063  0.00  0.00    +0.150 HD
ATOM     65  HA  THR A   4      -2.277   4.511  -0.661  0.00  0.00    +0.062 HD
ATOM     66  H   THR A   4      -3.014   2.779   1.554  0.00  0.00    +0.150 HD
ATOM     67  HA  ALA A   3      -1.679   2.420   3.238  0.00  0.00    +0.059 HD
ATOM     68  H   ALA A   3       1.251   2.515   3.219  0.00  0.00    +0.149 HD
ATOM     69  H   UNK A   2       1.848  -0.107   3.476  0.00  0.00    +0.060 HD
ATOM     70  H   UNK A   2       0.468  -1.365   1.383  0.00  0.00    +0.150 HD
ENDROOT
BRANCH   1  71
ATOM     71  CB  ALA A   7      -1.489  -6.084   0.745  0.00  0.00    -0.038 C 
ATOM     72  HB1 ALA A   7      -2.420  -6.620   0.539  0.00  0.00    +0.025 HD
ATOM     73  HB2 ALA A   7      -0.797  -6.269  -0.083  0.00  0.00    +0.025 HD
ATOM     74  HB3 ALA A   7      -1.038  -6.528   1.639  0.00  0.00    +0.025 HD
ENDBRANCH   1  71
BRANCH  36  75
ATOM     75  CB  ALA A   3      -0.638   4.197   3.845  0.00  0.00    -0.038 C 
ATOM     76  HB1 ALA A   3       0.205   4.832   3.546  0.00  0.00    +0.025 HD
ATOM     77  HB2 ALA A   3      -0.446   3.855   4.868  0.00  0.00    +0.025 HD
ATOM     78  HB3 ALA A   3      -1.537   4.823   3.856  0.00  0.00    +0.025 HD
ENDBRANCH  36  75
BRANCH  40  79
ATOM     79  C   UNK A   2       2.762   0.848   1.708  0.00  0.00    +0.005 C 
ATOM     80  H   UNK A   2       2.320   1.570   1.006  0.00  0.00    +0.032 HD
ATOM     81  H   UNK A   2       3.360   0.171   1.091  0.00  0.00    +0.032 HD
BRANCH  79  82
ATOM     82  C   UNK A   2       3.722   1.589   2.654  0.00  0.00    +0.088 C 
BRANCH  82  83
ATOM     83  C   UNK A   2       4.597   2.560   1.848  0.00  0.00    -0.034 C 
ATOM     84  H   UNK A   2       5.242   3.155   2.504  0.00  0.00    +0.026 HD
ATOM     85  H   UNK A   2       3.976   3.281   1.303  0.00  0.00    +0.026 HD
ATOM     86  H   UNK A   2       5.226   2.026   1.128  0.00  0.00    +0.026 HD
ENDBRANCH  82  83
BRANCH  82  87
ATOM     87  C   UNK A   2       4.604   0.613   3.463  0.00  0.00    +0.073 C 
ATOM     88  H   UNK A   2       5.284   0.048   2.818  0.00  0.00    +0.059 HD
ATOM     89  H   UNK A   2       3.994  -0.081   4.047  0.00  0.00    +0.059 HD
BRANCH  87  90
ATOM     90  O   UNK A   2       5.370   1.369   4.411  0.00  0.00    -0.392 OA
ATOM     91  H   UNK A   2       5.971   0.730   4.838  0.00  0.00    +0.210 HD
ENDBRANCH  87  90
ENDBRANCH  82  87
BRANCH  82  92
ATOM     92  O   UNK A   2       2.961   2.379   3.587  0.00  0.00    -0.387 OA
ATOM     93  H   UNK A   2       3.623   2.640   4.265  0.00  0.00    +0.210 HD
ENDBRANCH  82  92
ENDBRANCH  79  82
ENDBRANCH  40  79
BRANCH  23  94
ATOM     94  OD  HYP A   6      -1.402  -4.136  -4.519  0.00  0.00    -0.390 OA
ATOM     95  HD  HYP A   6      -1.192  -4.396  -3.595  0.00  0.00    +0.210 HD
ENDBRANCH  23  94
BRANCH  32  96
ATOM     96  CB  THR A   4      -4.288   3.641  -0.466  0.00  0.00    +0.079 C 
ATOM     97  HB  THR A   4      -4.690   2.898  -1.167  0.00  0.00    +0.061 HD
BRANCH  96  98
ATOM     98  CG2 THR A   4      -4.746   5.026  -0.909  0.00  0.00    -0.037 C 
ATOM     99 HG21 THR A   4      -5.840   5.074  -0.948  0.00  0.00    +0.026 HD
ATOM    100 HG22 THR A   4      -4.352   5.272  -1.900  0.00  0.00    +0.026 HD
ATOM    101 HG23 THR A   4      -4.425   5.793  -0.196  0.00  0.00    +0.026 HD
ENDBRANCH  96  98
BRANCH  96 102
ATOM    102  OG1 THR A   4      -4.879   3.354   0.819  0.00  0.00    -0.390 OA
ATOM    103  HG1 THR A   4      -5.845   3.389   0.701  0.00  0.00    +0.210 HD
ENDBRANCH  96 102
ENDBRANCH  32  96
TORSDOF 12
