REMARK  Name = Phalloidin_conf1
REMARK  12 active torsions:
REMARK  status: ('A' for Active; 'I' for Inactive)
REMARK    1  A    between atoms: CB_1  and  CA_2
REMARK    2  A    between atoms: CG_24  and  OD_30
REMARK    3  A    between atoms: CA_34  and  CB_53
REMARK    4  A    between atoms: CA_38  and  CB_52
REMARK    5  A    between atoms: C_42  and  C_46
REMARK    6  A    between atoms: C_46  and  C_47
REMARK    7  A    between atoms: C_47  and  C_48
REMARK    8  A    between atoms: C_47  and  C_49
REMARK    9  A    between atoms: C_47  and  O_51
REMARK   10  A    between atoms: C_49  and  O_50
REMARK   11  A    between atoms: CB_53  and  CG2_54
REMARK   12  A    between atoms: CB_53  and  OG1_55
REMARK                            x       y       z     vdW  Elec       q    Type
REMARK                         _______ _______ _______ _____ _____    ______ ____
ROOT
ATOM      1  CA  ALA A   7       3.042   1.077  -1.429  0.00  0.00    +0.097 C 
ATOM      2  C   ALA A   7       2.849   1.147   0.100  0.00  0.00    +0.234 C 
ATOM      3  O   ALA A   7       3.801   1.225   0.878  0.00  0.00    -0.274 OA
ATOM      4  N   UNK A   1       1.542   1.240   0.519  0.00  0.00    -0.302 N 
ATOM      5  C   UNK A   1       1.167   1.532   1.903  0.00  0.00    +0.103 C 
ATOM      6  C   UNK A   1      -0.015   2.515   1.987  0.00  0.00    +0.002 C 
ATOM      7  C   UNK A   1      -0.013   3.616   0.959  0.00  0.00    -0.006 A 
ATOM      8  C   UNK A   5      -1.030   3.915   0.074  0.00  0.00    +0.078 A 
ATOM      9  N   UNK A   5      -0.673   5.014  -0.653  0.00  0.00    -0.349 N 
ATOM     10  C   UNK A   5       0.600   5.408  -0.324  0.00  0.00    +0.048 A 
ATOM     11  C   UNK A   5       1.382   6.448  -0.840  0.00  0.00    -0.038 A 
ATOM     12  C   UNK A   5       2.657   6.632  -0.297  0.00  0.00    -0.060 A 
ATOM     13  C   UNK A   5       3.121   5.815   0.729  0.00  0.00    -0.061 A 
ATOM     14  C   UNK A   5       2.320   4.787   1.242  0.00  0.00    -0.052 A 
ATOM     15  C   UNK A   5       1.035   4.566   0.703  0.00  0.00    +0.004 A 
ATOM     16  S   UNK A   5      -2.596   3.213  -0.161  0.00  0.00    -0.105 S 
ATOM     17  C   UNK A   5      -2.540   2.684  -1.907  0.00  0.00    +0.027 C 
ATOM     18  C   UNK A   5      -2.716   1.180  -2.143  0.00  0.00    +0.109 C 
ATOM     19  C   UNK A   5      -1.423   0.391  -1.831  0.00  0.00    +0.237 C 
ATOM     20  O   UNK A   5      -1.048   0.175  -0.672  0.00  0.00    -0.274 OA
ATOM     21  N   HYP A   6      -0.718  -0.123  -2.900  0.00  0.00    -0.286 N 
ATOM     22  CD  HYP A   6      -0.973   0.099  -4.319  0.00  0.00    +0.042 C 
ATOM     23  CG  HYP A   6       0.224  -0.543  -5.016  0.00  0.00    +0.073 C 
ATOM     24  CB  HYP A   6       0.538  -1.736  -4.119  0.00  0.00    +0.002 C 
ATOM     25  CA  HYP A   6       0.243  -1.216  -2.706  0.00  0.00    +0.105 C 
ATOM     26  C   HYP A   6       1.542  -0.805  -2.001  0.00  0.00    +0.234 C 
ATOM     27  O   HYP A   6       2.280  -1.631  -1.471  0.00  0.00    -0.274 OA
ATOM     28  N   ALA A   7       1.858   0.529  -2.082  0.00  0.00    -0.303 N 
ATOM     29  N   UNK A   5      -3.777   0.552  -1.369  0.00  0.00    -0.302 N 
ATOM     30  C   THR A   4      -4.288  -0.672  -1.750  0.00  0.00    +0.237 C 
ATOM     31  O   THR A   4      -4.076  -1.137  -2.870  0.00  0.00    -0.274 OA
ATOM     32  CA  THR A   4      -5.146  -1.381  -0.680  0.00  0.00    +0.125 C 
ATOM     33  N   THR A   4      -4.325  -1.602   0.519  0.00  0.00    -0.300 N 
ATOM     34  C   ALA A   3      -4.115  -0.632   1.471  0.00  0.00    +0.234 C 
ATOM     35  O   ALA A   3      -4.566   0.503   1.333  0.00  0.00    -0.274 OA
ATOM     36  CA  ALA A   3      -3.269  -1.092   2.667  0.00  0.00    +0.097 C 
ATOM     37  N   ALA A   3      -1.906  -1.363   2.224  0.00  0.00    -0.303 N 
ATOM     38  C   UNK A   2      -1.085  -2.221   2.933  0.00  0.00    +0.234 C 
ATOM     39  O   UNK A   2      -1.546  -3.017   3.751  0.00  0.00    -0.274 OA
ATOM     40  C   UNK A   2       0.410  -2.208   2.503  0.00  0.00    +0.102 C 
ATOM     41  N   UNK A   2       0.780  -0.903   1.962  0.00  0.00    -0.302 N 
ATOM     42  C   UNK A   1       0.782   0.264   2.692  0.00  0.00    +0.234 C 
ATOM     43  O   UNK A   1       0.444   0.315   3.873  0.00  0.00    -0.274 OA
ATOM     44  HA  ALA A   7       3.888   0.408  -1.627  0.00  0.00    +0.059 HD
ATOM     45  H   UNK A   1       0.794   1.057  -0.146  0.00  0.00    +0.150 HD
ATOM     46  H   UNK A   1       2.037   1.958   2.414  0.00  0.00    +0.060 HD
ATOM     47  H   UNK A   1      -0.953   1.950   1.907  0.00  0.00    +0.034 HD
ATOM     48  H   UNK A   1      -0.036   2.972   2.987  0.00  0.00    +0.034 HD
ATOM     49  H   UNK A   5      -1.267   5.480  -1.322  0.00  0.00    +0.166 HD
ATOM     50  H   UNK A   5       1.020   7.095  -1.631  0.00  0.00    +0.064 HD
ATOM     51  H   UNK A   5       3.291   7.430  -0.677  0.00  0.00    +0.062 HD
ATOM     52  H   UNK A   5       4.114   5.975   1.142  0.00  0.00    +0.062 HD
ATOM     53  H   UNK A   5       2.704   4.165   2.045  0.00  0.00    +0.062 HD
ATOM     54  H   UNK A   5      -3.370   3.209  -2.394  0.00  0.00    +0.040 HD
ATOM     55  H   UNK A   5      -1.619   3.031  -2.389  0.00  0.00    +0.040 HD
ATOM     56  H   UNK A   5      -2.979   1.051  -3.196  0.00  0.00    +0.060 HD
ATOM     57  HD1 HYP A   6      -1.072   1.171  -4.514  0.00  0.00    +0.049 HD
ATOM     58  HD2 HYP A   6      -1.902  -0.418  -4.577  0.00  0.00    +0.049 HD
ATOM     59  HG  HYP A   6       0.003  -0.823  -6.051  0.00  0.00    +0.061 HD
ATOM     60  HB1 HYP A   6      -0.151  -2.558  -4.353  0.00  0.00    +0.031 HD
ATOM     61  HB2 HYP A   6       1.564  -2.097  -4.236  0.00  0.00    +0.031 HD
ATOM     62  HA  HYP A   6      -0.226  -1.989  -2.084  0.00  0.00    +0.060 HD
ATOM     63  H   ALA A   7       1.289   1.121  -2.681  0.00  0.00    +0.149 HD
ATOM     64  H   UNK A   5      -3.958   0.887  -0.418  0.00  0.00    +0.150 HD
ATOM     65  HA  THR A   4      -5.975  -0.718  -0.401  0.00  0.00    +0.062 HD
ATOM     66  H   THR A   4      -3.919  -2.523   0.662  0.00  0.00    +0.150 HD
ATOM     67  HA  ALA A   3      -3.711  -2.019   3.052  0.00  0.00    +0.059 HD
ATOM     68  H   ALA A   3      -1.484  -0.784   1.502  0.00  0.00    +0.149 HD
ATOM     69  H   UNK A   2       0.466  -2.901   1.655  0.00  0.00    +0.060 HD
ATOM     70  H   UNK A   2       1.320  -0.898   1.099  0.00  0.00    +0.150 HD
ENDROOT
BRANCH   1  71
ATOM     71  CB  ALA A   7       3.330   2.476  -1.958  0.00  0.00    -0.038 C 
ATOM     72  HB1 ALA A   7       4.187   2.925  -1.445  0.00  0.00    +0.025 HD
ATOM     73  HB2 ALA A   7       3.542   2.450  -3.031  0.00  0.00    +0.025 HD
ATOM     74  HB3 ALA A   7       2.466   3.132  -1.808  0.00  0.00    +0.025 HD
ENDBRANCH   1  71
BRANCH  36  75
ATOM     75  CB  ALA A   3      -3.272  -0.046   3.776  0.00  0.00    -0.038 C 
ATOM     76  HB1 ALA A   3      -2.708  -0.396   4.647  0.00  0.00    +0.025 HD
ATOM     77  HB2 ALA A   3      -2.813   0.891   3.440  0.00  0.00    +0.025 HD
ATOM     78  HB3 ALA A   3      -4.293   0.180   4.100  0.00  0.00    +0.025 HD
ENDBRANCH  36  75
BRANCH  40  79
ATOM     79  C   UNK A   2       1.311  -2.716   3.640  0.00  0.00    +0.005 C 
ATOM     80  H   UNK A   2       0.837  -3.626   4.036  0.00  0.00    +0.032 HD
ATOM     81  H   UNK A   2       1.312  -2.003   4.474  0.00  0.00    +0.032 HD
BRANCH  79  82
ATOM     82  C   UNK A   2       2.765  -3.092   3.282  0.00  0.00    +0.088 C 
BRANCH  82  83
ATOM     83  C   UNK A   2       3.376  -3.864   4.460  0.00  0.00    -0.034 C 
ATOM     84  H   UNK A   2       2.788  -4.760   4.692  0.00  0.00    +0.026 HD
ATOM     85  H   UNK A   2       4.383  -4.218   4.214  0.00  0.00    +0.026 HD
ATOM     86  H   UNK A   2       3.436  -3.243   5.360  0.00  0.00    +0.026 HD
ENDBRANCH  82  83
BRANCH  82  87
ATOM     87  C   UNK A   2       3.670  -1.884   2.961  0.00  0.00    +0.073 C 
ATOM     88  H   UNK A   2       3.487  -1.048   3.644  0.00  0.00    +0.059 HD
ATOM     89  H   UNK A   2       4.728  -2.162   3.026  0.00  0.00    +0.059 HD
BRANCH  87  90
ATOM     90  O   UNK A   2       3.451  -1.464   1.616  0.00  0.00    -0.392 OA
ATOM     91  H   UNK A   2       3.946  -0.624   1.511  0.00  0.00    +0.210 HD
ENDBRANCH  87  90
ENDBRANCH  82  87
BRANCH  82  92
ATOM     92  O   UNK A   2       2.759  -3.978   2.152  0.00  0.00    -0.387 OA
ATOM     93  H   UNK A   2       2.943  -3.404   1.375  0.00  0.00    +0.210 HD
ENDBRANCH  82  92
ENDBRANCH  79  82
ENDBRANCH  40  79
BRANCH  23  94
ATOM     94  OD  HYP A   6       1.314   0.379  -5.022  0.00  0.00    -0.390 OA
ATOM     95  HD  HYP A   6       2.085  -0.081  -5.405  0.00  0.00    +0.210 HD
ENDBRANCH  23  94
BRANCH  32  96
ATOM     96  CB  THR A   4      -5.697  -2.725  -1.207  0.00  0.00    +0.079 C 
ATOM     97  HB  THR A   4      -4.902  -3.292  -1.709  0.00  0.00    +0.061 HD
BRANCH  96  98
ATOM     98  CG2 THR A   4      -6.870  -2.542  -2.164  0.00  0.00    -0.037 C 
ATOM     99 HG21 THR A   4      -7.244  -3.518  -2.492  0.00  0.00    +0.026 HD
ATOM    100 HG22 THR A   4      -6.589  -1.964  -3.049  0.00  0.00    +0.026 HD
ATOM    101 HG23 THR A   4      -7.706  -2.038  -1.668  0.00  0.00    +0.026 HD
ENDBRANCH  96  98
BRANCH  96 102
ATOM    102  OG1 THR A   4      -6.139  -3.546  -0.113  0.00  0.00    -0.390 OA
ATOM    103  HG1 THR A   4      -6.841  -3.064   0.360  0.00  0.00    +0.210 HD
ENDBRANCH  96 102
ENDBRANCH  32  96
TORSDOF 12
