REMARK  Name = Reidispongiolide A_conf1
REMARK  33 active torsions:
REMARK  status: ('A' for Active; 'I' for Inactive)
REMARK    1  A    between atoms: C_1  and  C_2
REMARK    2  A    between atoms: C_5  and  O_67
REMARK    3  A    between atoms: C_7  and  O_65
REMARK    4  A    between atoms: C_8  and  C_64
REMARK    5  A    between atoms: C_17  and  O_62
REMARK    6  A    between atoms: C_19  and  C_61
REMARK    7  A    between atoms: C_26  and  C_38
REMARK    8  A    between atoms: C_27  and  C_37
REMARK    9  A    between atoms: C_30  and  O_35
REMARK   10  A    between atoms: C_32  and  O_33
REMARK   11  A    between atoms: O_33  and  C_34
REMARK   12  A    between atoms: O_35  and  C_36
REMARK   13  A    between atoms: C_38  and  C_39
REMARK   14  A    between atoms: C_38  and  C_40
REMARK   15  A    between atoms: C_40  and  C_41
REMARK   16  A    between atoms: C_40  and  O_59
REMARK   17  A    between atoms: C_41  and  C_42
REMARK   18  A    between atoms: C_41  and  C_43
REMARK   19  A    between atoms: C_43  and  C_44
REMARK   20  A    between atoms: C_44  and  C_45
REMARK   21  A    between atoms: C_45  and  C_47
REMARK   22  A    between atoms: C_47  and  C_48
REMARK   23  A    between atoms: C_47  and  C_49
REMARK   24  A    between atoms: C_49  and  C_50
REMARK   25  A    between atoms: C_49  and  O_57
REMARK   26  A    between atoms: C_50  and  C_51
REMARK   27  A    between atoms: C_52  and  N_53
REMARK   28  A    between atoms: N_53  and  C_54
REMARK   29  A    between atoms: O_57  and  C_58
REMARK   30  A    between atoms: O_59  and  C_60
REMARK   31  A    between atoms: O_62  and  C_63
REMARK   32  A    between atoms: O_65  and  C_66
REMARK   33  A    between atoms: O_67  and  C_68
REMARK                            x       y       z     vdW  Elec       q    Type
REMARK                         _______ _______ _______ _____ _____    ______ ____
ROOT
ATOM      1  C   UNL     1       1.494  -0.583   3.459  0.00  0.00    +0.001 C 
ATOM      2  C   UNL     1       2.638  -1.537   3.166  0.00  0.00    -0.080 C 
ATOM      3  C   UNL     1       2.786  -2.208   2.012  0.00  0.00    -0.059 C 
ATOM      4  C   UNL     1       3.892  -3.193   1.747  0.00  0.00    +0.079 C 
ATOM      5  C   UNL     1       4.167  -3.437   0.252  0.00  0.00    +0.004 C 
ATOM      6  C   UNL     1       4.717  -2.214  -0.511  0.00  0.00    +0.067 C 
ATOM      7  C   UNL     1       5.986  -2.539  -1.365  0.00  0.00    +0.020 C 
ATOM      8  C   UNL     1       5.843  -3.753  -2.338  0.00  0.00    +0.112 C 
ATOM      9  C   UNL     1       4.931  -3.557  -3.558  0.00  0.00    +0.006 C 
ATOM     10  C   UNL     1       5.628  -2.831  -4.678  0.00  0.00    -0.057 C 
ATOM     11  C   UNL     1       6.968  -2.809  -4.727  0.00  0.00    +0.022 C 
ATOM     12  C   UNL     1       7.803  -3.555  -3.773  0.00  0.00    +0.332 C 
ATOM     13  O   UNL     1       9.016  -3.624  -3.920  0.00  0.00    -0.246 OA
ATOM     14  O   UNL     1       7.156  -4.193  -2.769  0.00  0.00    -0.458 OA
ATOM     15  C   UNL     1       4.779  -2.162  -5.741  0.00  0.00    -0.004 C 
ATOM     16  C   UNL     1       3.923  -3.158  -6.565  0.00  0.00    +0.066 C 
ATOM     17  C   UNL     1       2.899  -2.425  -7.473  0.00  0.00    -0.005 C 
ATOM     18  C   UNL     1       1.764  -1.637  -6.823  0.00  0.00    -0.070 C 
ATOM     19  C   UNL     1       1.456  -1.763  -5.520  0.00  0.00    -0.062 C 
ATOM     20  C   UNL     1       0.529  -1.004  -4.726  0.00  0.00    -0.055 C 
ATOM     21  C   UNL     1      -0.807  -0.955  -4.854  0.00  0.00    +0.023 C 
ATOM     22  C   UNL     1      -1.655  -0.338  -3.804  0.00  0.00    +0.332 C 
ATOM     23  O   UNL     1      -2.857  -0.524  -3.720  0.00  0.00    -0.246 OA
ATOM     24  O   UNL     1      -0.888   0.344  -2.925  0.00  0.00    -0.457 OA
ATOM     25  C   UNL     1      -1.405   0.628  -1.593  0.00  0.00    +0.114 C 
ATOM     26  C   UNL     1      -1.316  -0.717  -0.784  0.00  0.00    +0.012 C 
ATOM     27  C   UNL     1      -1.924  -0.678   0.605  0.00  0.00    -0.079 C 
ATOM     28  C   UNL     1      -1.400  -1.232   1.715  0.00  0.00    -0.059 C 
ATOM     29  C   UNL     1      -1.955  -1.217   3.119  0.00  0.00    +0.079 C 
ATOM     30  C   UNL     1      -0.988  -0.575   4.140  0.00  0.00    +0.004 C 
ATOM     31  C   UNL     1       0.368  -1.311   4.260  0.00  0.00    +0.067 C 
ATOM     32  H   UNL     1       1.086  -0.244   2.501  0.00  0.00    +0.037 HD
ATOM     33  H   UNL     1       3.344  -1.706   3.979  0.00  0.00    +0.057 HD
ATOM     34  H   UNL     1       2.056  -2.087   1.218  0.00  0.00    +0.059 HD
ATOM     35  H   UNL     1       4.824  -2.856   2.225  0.00  0.00    +0.064 HD
ATOM     36  H   UNL     1       3.255  -3.812  -0.231  0.00  0.00    +0.032 HD
ATOM     37  H   UNL     1       4.874  -4.273   0.219  0.00  0.00    +0.032 HD
ATOM     38  H   UNL     1       4.982  -1.432   0.214  0.00  0.00    +0.060 HD
ATOM     39  H   UNL     1       6.228  -1.662  -1.978  0.00  0.00    +0.036 HD
ATOM     40  H   UNL     1       5.443  -4.606  -1.781  0.00  0.00    +0.074 HD
ATOM     41  H   UNL     1       4.005  -3.050  -3.284  0.00  0.00    +0.035 HD
ATOM     42  H   UNL     1       4.643  -4.547  -3.942  0.00  0.00    +0.035 HD
ATOM     43  H   UNL     1       7.512  -2.311  -5.522  0.00  0.00    +0.069 HD
ATOM     44  H   UNL     1       4.153  -1.417  -5.238  0.00  0.00    +0.034 HD
ATOM     45  H   UNL     1       5.428  -1.604  -6.429  0.00  0.00    +0.034 HD
ATOM     46  H   UNL     1       3.401  -3.852  -5.896  0.00  0.00    +0.060 HD
ATOM     47  H   UNL     1       3.472  -1.745  -8.122  0.00  0.00    +0.034 HD
ATOM     48  H   UNL     1       2.444  -3.154  -8.157  0.00  0.00    +0.034 HD
ATOM     49  H   UNL     1       2.023  -2.454  -4.894  0.00  0.00    +0.062 HD
ATOM     50  H   UNL     1       1.016  -0.527  -3.877  0.00  0.00    +0.062 HD
ATOM     51  H   UNL     1      -1.337  -1.474  -5.643  0.00  0.00    +0.069 HD
ATOM     52  H   UNL     1      -2.451   0.942  -1.684  0.00  0.00    +0.074 HD
ATOM     53  H   UNL     1      -1.935  -1.441  -1.337  0.00  0.00    +0.038 HD
ATOM     54  H   UNL     1      -2.888  -0.179   0.685  0.00  0.00    +0.057 HD
ATOM     55  H   UNL     1      -0.477  -1.799   1.629  0.00  0.00    +0.059 HD
ATOM     56  H   UNL     1      -2.137  -2.264   3.402  0.00  0.00    +0.064 HD
ATOM     57  H   UNL     1      -0.836   0.479   3.876  0.00  0.00    +0.032 HD
ATOM     58  H   UNL     1      -1.488  -0.534   5.115  0.00  0.00    +0.032 HD
ATOM     59  H   UNL     1       0.266  -2.340   3.885  0.00  0.00    +0.060 HD
ENDROOT
BRANCH   1  60
ATOM     60  C   UNL     1       2.047   0.650   4.186  0.00  0.00    -0.057 C 
ATOM     61  H   UNL     1       2.566   0.381   5.113  0.00  0.00    +0.024 HD
ATOM     62  H   UNL     1       2.764   1.181   3.553  0.00  0.00    +0.024 HD
ATOM     63  H   UNL     1       1.248   1.352   4.444  0.00  0.00    +0.024 HD
ENDBRANCH   1  60
BRANCH  26  64
ATOM     64  C   UNL     1       0.107  -1.305  -0.820  0.00  0.00    -0.056 C 
ATOM     65  H   UNL     1       0.494  -1.389  -1.837  0.00  0.00    +0.024 HD
ATOM     66  H   UNL     1       0.811  -0.693  -0.245  0.00  0.00    +0.024 HD
ATOM     67  H   UNL     1       0.125  -2.324  -0.417  0.00  0.00    +0.024 HD
ENDBRANCH  26  64
BRANCH  18  68
ATOM     68  C   UNL     1       1.072  -0.692  -7.771  0.00  0.00    -0.043 C 
ATOM     69  H   UNL     1       0.649  -1.252  -8.612  0.00  0.00    +0.027 HD
ATOM     70  H   UNL     1       1.789   0.034  -8.172  0.00  0.00    +0.027 HD
ATOM     71  H   UNL     1       0.259  -0.128  -7.309  0.00  0.00    +0.027 HD
ENDBRANCH  18  68
BRANCH   7  72
ATOM     72  C   UNL     1       7.179  -2.724  -0.408  0.00  0.00    -0.057 C 
ATOM     73  H   UNL     1       7.258  -1.874   0.278  0.00  0.00    +0.023 HD
ATOM     74  H   UNL     1       7.082  -3.636   0.189  0.00  0.00    +0.023 HD
ATOM     75  H   UNL     1       8.127  -2.778  -0.953  0.00  0.00    +0.023 HD
ENDBRANCH   7  72
BRANCH  25  76
ATOM     76  C   UNL     1      -0.549   1.829  -1.083  0.00  0.00    +0.020 C 
ATOM     77  H   UNL     1       0.493   1.482  -1.029  0.00  0.00    +0.036 HD
BRANCH  76  78
ATOM     78  C   UNL     1      -0.500   2.942  -2.150  0.00  0.00    -0.057 C 
ATOM     79  H   UNL     1       0.158   2.651  -2.976  0.00  0.00    +0.023 HD
ATOM     80  H   UNL     1      -0.104   3.881  -1.757  0.00  0.00    +0.023 HD
ATOM     81  H   UNL     1      -1.486   3.130  -2.582  0.00  0.00    +0.023 HD
ENDBRANCH  76  78
BRANCH  76  82
ATOM     82  C   UNL     1      -0.894   2.363   0.334  0.00  0.00    +0.067 C 
ATOM     83  H   UNL     1      -0.713   1.541   1.034  0.00  0.00    +0.060 HD
BRANCH  82  84
ATOM     84  C   UNL     1      -2.343   2.888   0.590  0.00  0.00    -0.017 C 
ATOM     85  H   UNL     1      -3.050   2.150   0.198  0.00  0.00    +0.032 HD
BRANCH  84  86
ATOM     86  C   UNL     1      -2.552   2.949   2.115  0.00  0.00    -0.060 C 
ATOM     87  H   UNL     1      -2.208   2.032   2.601  0.00  0.00    +0.023 HD
ATOM     88  H   UNL     1      -2.012   3.788   2.563  0.00  0.00    +0.023 HD
ATOM     89  H   UNL     1      -3.611   3.043   2.365  0.00  0.00    +0.023 HD
ENDBRANCH  84  86
BRANCH  84  90
ATOM     90  C   UNL     1      -2.643   4.260  -0.069  0.00  0.00    -0.041 C 
ATOM     91  H   UNL     1      -2.685   4.136  -1.155  0.00  0.00    +0.027 HD
ATOM     92  H   UNL     1      -1.804   4.937   0.134  0.00  0.00    +0.027 HD
BRANCH  90  93
ATOM     93  C   UNL     1      -3.912   4.994   0.370  0.00  0.00    +0.007 C 
ATOM     94  H   UNL     1      -3.729   6.071   0.234  0.00  0.00    +0.034 HD
ATOM     95  H   UNL     1      -4.152   4.886   1.432  0.00  0.00    +0.034 HD
BRANCH  93  96
ATOM     96  C   UNL     1      -5.143   4.684  -0.463  0.00  0.00    +0.139 C 
ATOM     97  O   UNL     1      -5.610   5.553  -1.204  0.00  0.00    -0.297 OA
BRANCH  96  98
ATOM     98  C   UNL     1      -5.781   3.304  -0.322  0.00  0.00    +0.041 C 
ATOM     99  H   UNL     1      -5.235   2.761   0.456  0.00  0.00    +0.040 HD
BRANCH  98 100
ATOM    100  C   UNL     1      -5.598   2.546  -1.636  0.00  0.00    -0.053 C 
ATOM    101  H   UNL     1      -6.123   3.031  -2.463  0.00  0.00    +0.024 HD
ATOM    102  H   UNL     1      -5.973   1.521  -1.542  0.00  0.00    +0.024 HD
ATOM    103  H   UNL     1      -4.541   2.493  -1.911  0.00  0.00    +0.024 HD
ENDBRANCH  98 100
BRANCH  98 104
ATOM    104  C   UNL     1      -7.269   3.375   0.110  0.00  0.00    +0.071 C 
ATOM    105  H   UNL     1      -7.602   2.339   0.270  0.00  0.00    +0.061 HD
BRANCH 104 106
ATOM    106  C   UNL     1      -7.491   4.174   1.417  0.00  0.00    -0.006 C 
ATOM    107  H   UNL     1      -7.031   5.167   1.342  0.00  0.00    +0.033 HD
ATOM    108  H   UNL     1      -8.562   4.378   1.544  0.00  0.00    +0.033 HD
BRANCH 106 109
ATOM    109  C   UNL     1      -6.955   3.476   2.643  0.00  0.00    -0.067 C 
ATOM    110  C   UNL     1      -7.727   3.126   3.682  0.00  0.00    -0.005 C 
ATOM    111  H   UNL     1      -5.891   3.274   2.639  0.00  0.00    +0.059 HD
ATOM    112  H   UNL     1      -8.790   3.371   3.646  0.00  0.00    +0.078 HD
BRANCH 110 113
ATOM    113  N   UNL     1      -7.339   2.457   4.833  0.00  0.00    -0.284 N 
ATOM    114  C   UNL     1      -6.050   2.011   5.111  0.00  0.00    +0.206 C 
ATOM    115  O   UNL     1      -5.701   1.381   6.104  0.00  0.00    -0.279 OA
ATOM    116  H   UNL     1      -5.311   2.270   4.340  0.00  0.00    +0.126 HD
BRANCH 113 117
ATOM    117  C   UNL     1      -8.374   2.178   5.822  0.00  0.00    +0.007 C 
ATOM    118  H   UNL     1      -8.721   3.128   6.246  0.00  0.00    +0.043 HD
ATOM    119  H   UNL     1      -9.213   1.664   5.338  0.00  0.00    +0.043 HD
ATOM    120  H   UNL     1      -8.010   1.548   6.639  0.00  0.00    +0.043 HD
ENDBRANCH 113 117
ENDBRANCH 110 113
ENDBRANCH 106 109
ENDBRANCH 104 106
BRANCH 104 121
ATOM    121  O   UNL     1      -8.049   3.937  -0.952  0.00  0.00    -0.379 OA
BRANCH 121 122
ATOM    122  C   UNL     1      -9.391   3.474  -0.993  0.00  0.00    +0.037 C 
ATOM    123  H   UNL     1      -9.930   3.732  -0.078  0.00  0.00    +0.052 HD
ATOM    124  H   UNL     1      -9.416   2.393  -1.152  0.00  0.00    +0.052 HD
ATOM    125  H   UNL     1      -9.893   3.957  -1.836  0.00  0.00    +0.052 HD
ENDBRANCH 121 122
ENDBRANCH 104 121
ENDBRANCH  98 104
ENDBRANCH  96  98
ENDBRANCH  93  96
ENDBRANCH  90  93
ENDBRANCH  84  90
ENDBRANCH  82  84
BRANCH  82 126
ATOM    126  O   UNL     1       0.022   3.424   0.671  0.00  0.00    -0.379 OA
BRANCH 126 127
ATOM    127  C   UNL     1       1.126   2.990   1.450  0.00  0.00    +0.037 C 
ATOM    128  H   UNL     1       0.779   2.684   2.441  0.00  0.00    +0.052 HD
ATOM    129  H   UNL     1       1.657   2.167   0.961  0.00  0.00    +0.052 HD
ATOM    130  H   UNL     1       1.815   3.832   1.569  0.00  0.00    +0.052 HD
ENDBRANCH 126 127
ENDBRANCH  82 126
ENDBRANCH  76  82
ENDBRANCH  25  76
BRANCH  31 131
ATOM    131  O   UNL     1       0.762  -1.377   5.645  0.00  0.00    -0.379 OA
BRANCH 131 132
ATOM    132  C   UNL     1       0.145  -2.447   6.351  0.00  0.00    +0.037 C 
ATOM    133  H   UNL     1       0.460  -3.409   5.933  0.00  0.00    +0.052 HD
ATOM    134  H   UNL     1      -0.944  -2.364   6.320  0.00  0.00    +0.052 HD
ATOM    135  H   UNL     1       0.467  -2.398   7.393  0.00  0.00    +0.052 HD
ENDBRANCH 131 132
ENDBRANCH  31 131
BRANCH  29 136
ATOM    136  O   UNL     1      -3.192  -0.495   3.123  0.00  0.00    -0.376 OA
BRANCH 136 137
ATOM    137  C   UNL     1      -4.138  -1.040   4.036  0.00  0.00    +0.037 C 
ATOM    138  H   UNL     1      -3.762  -0.993   5.062  0.00  0.00    +0.052 HD
ATOM    139  H   UNL     1      -5.056  -0.450   3.969  0.00  0.00    +0.052 HD
ATOM    140  H   UNL     1      -4.378  -2.075   3.767  0.00  0.00    +0.052 HD
ENDBRANCH 136 137
ENDBRANCH  29 136
BRANCH  16 141
ATOM    141  O   UNL     1       4.830  -3.903  -7.403  0.00  0.00    -0.379 OA
BRANCH 141 142
ATOM    142  C   UNL     1       4.381  -5.226  -7.668  0.00  0.00    +0.037 C 
ATOM    143  H   UNL     1       5.072  -5.686  -8.379  0.00  0.00    +0.052 HD
ATOM    144  H   UNL     1       4.388  -5.812  -6.744  0.00  0.00    +0.052 HD
ATOM    145  H   UNL     1       3.377  -5.228  -8.105  0.00  0.00    +0.052 HD
ENDBRANCH 141 142
ENDBRANCH  16 141
BRANCH   6 146
ATOM    146  O   UNL     1       3.660  -1.716  -1.347  0.00  0.00    -0.379 OA
BRANCH 146 147
ATOM    147  C   UNL     1       3.752  -0.319  -1.601  0.00  0.00    +0.037 C 
ATOM    148  H   UNL     1       2.937  -0.043  -2.273  0.00  0.00    +0.052 HD
ATOM    149  H   UNL     1       3.639   0.245  -0.669  0.00  0.00    +0.052 HD
ATOM    150  H   UNL     1       4.698  -0.064  -2.085  0.00  0.00    +0.052 HD
ENDBRANCH 146 147
ENDBRANCH   6 146
BRANCH   4 151
ATOM    151  O   UNL     1       3.463  -4.454   2.283  0.00  0.00    -0.376 OA
BRANCH 151 152
ATOM    152  C   UNL     1       4.181  -4.826   3.452  0.00  0.00    +0.037 C 
ATOM    153  H   UNL     1       3.794  -5.790   3.799  0.00  0.00    +0.052 HD
ATOM    154  H   UNL     1       4.041  -4.089   4.249  0.00  0.00    +0.052 HD
ATOM    155  H   UNL     1       5.245  -4.942   3.226  0.00  0.00    +0.052 HD
ENDBRANCH 151 152
ENDBRANCH   4 151
TORSDOF 33
