REMARK  Name = Sphinxolide B_conf1
REMARK  33 active torsions:
REMARK  status: ('A' for Active; 'I' for Inactive)
REMARK    1  A    between atoms: C_1  and  C_2
REMARK    2  A    between atoms: C_5  and  O_67
REMARK    3  A    between atoms: C_7  and  O_65
REMARK    4  A    between atoms: C_8  and  C_64
REMARK    5  A    between atoms: C_10  and  O_63
REMARK    6  A    between atoms: C_17  and  O_61
REMARK    7  A    between atoms: C_19  and  C_60
REMARK    8  A    between atoms: C_26  and  C_37
REMARK    9  A    between atoms: C_27  and  C_36
REMARK   10  A    between atoms: C_30  and  O_34
REMARK   11  A    between atoms: C_32  and  O_33
REMARK   12  A    between atoms: O_34  and  C_35
REMARK   13  A    between atoms: C_37  and  C_38
REMARK   14  A    between atoms: C_37  and  C_39
REMARK   15  A    between atoms: C_39  and  C_40
REMARK   16  A    between atoms: C_39  and  O_58
REMARK   17  A    between atoms: C_40  and  C_41
REMARK   18  A    between atoms: C_40  and  C_42
REMARK   19  A    between atoms: C_42  and  C_43
REMARK   20  A    between atoms: C_43  and  C_44
REMARK   21  A    between atoms: C_44  and  C_46
REMARK   22  A    between atoms: C_46  and  C_47
REMARK   23  A    between atoms: C_46  and  C_48
REMARK   24  A    between atoms: C_48  and  C_49
REMARK   25  A    between atoms: C_48  and  O_56
REMARK   26  A    between atoms: C_49  and  C_50
REMARK   27  A    between atoms: C_51  and  N_52
REMARK   28  A    between atoms: N_52  and  C_53
REMARK   29  A    between atoms: O_56  and  C_57
REMARK   30  A    between atoms: O_58  and  C_59
REMARK   31  A    between atoms: O_61  and  C_62
REMARK   32  A    between atoms: O_65  and  C_66
REMARK   33  A    between atoms: O_67  and  C_68
REMARK                            x       y       z     vdW  Elec       q    Type
REMARK                         _______ _______ _______ _____ _____    ______ ____
ROOT
ATOM      1  C   UNL     1      -2.213  -2.301  -0.871  0.00  0.00    +0.000 C 
ATOM      2  C   UNL     1      -0.893  -3.045  -0.815  0.00  0.00    -0.080 C 
ATOM      3  C   UNL     1      -0.631  -4.231  -0.235  0.00  0.00    -0.059 C 
ATOM      4  C   UNL     1       0.712  -4.946  -0.168  0.00  0.00    +0.079 C 
ATOM      5  C   UNL     1       1.893  -4.080  -0.639  0.00  0.00    +0.004 C 
ATOM      6  C   UNL     1       3.265  -4.771  -0.587  0.00  0.00    +0.067 C 
ATOM      7  C   UNL     1       4.429  -3.817  -1.038  0.00  0.00    +0.022 C 
ATOM      8  C   UNL     1       4.232  -3.293  -2.503  0.00  0.00    +0.138 C 
ATOM      9  C   UNL     1       3.849  -1.794  -2.615  0.00  0.00    +0.114 C 
ATOM     10  C   UNL     1       5.060  -0.936  -2.341  0.00  0.00    -0.029 C 
ATOM     11  C   UNL     1       6.253  -1.405  -2.747  0.00  0.00    +0.024 C 
ATOM     12  C   UNL     1       6.408  -2.696  -3.443  0.00  0.00    +0.332 C 
ATOM     13  O   UNL     1       7.438  -2.952  -4.054  0.00  0.00    -0.246 OA
ATOM     14  O   UNL     1       5.373  -3.567  -3.359  0.00  0.00    -0.455 OA
ATOM     15  C   UNL     1       4.853   0.391  -1.625  0.00  0.00    -0.002 C 
ATOM     16  C   UNL     1       6.076   1.313  -1.403  0.00  0.00    +0.066 C 
ATOM     17  C   UNL     1       5.644   2.690  -0.829  0.00  0.00    -0.005 C 
ATOM     18  C   UNL     1       4.855   2.658   0.472  0.00  0.00    -0.070 C 
ATOM     19  C   UNL     1       3.542   2.928   0.606  0.00  0.00    -0.062 C 
ATOM     20  C   UNL     1       2.602   3.258  -0.444  0.00  0.00    -0.055 C 
ATOM     21  C   UNL     1       1.299   3.453  -0.193  0.00  0.00    +0.023 C 
ATOM     22  C   UNL     1       0.366   3.759  -1.295  0.00  0.00    +0.332 C 
ATOM     23  O   UNL     1       0.687   3.998  -2.449  0.00  0.00    -0.246 OA
ATOM     24  O   UNL     1      -0.885   3.697  -0.785  0.00  0.00    -0.457 OA
ATOM     25  C   UNL     1      -2.014   3.942  -1.674  0.00  0.00    +0.114 C 
ATOM     26  C   UNL     1      -2.906   2.661  -1.631  0.00  0.00    +0.012 C 
ATOM     27  C   UNL     1      -2.057   1.441  -1.982  0.00  0.00    -0.079 C 
ATOM     28  C   UNL     1      -2.134   0.650  -3.066  0.00  0.00    -0.059 C 
ATOM     29  C   UNL     1      -1.219  -0.523  -3.299  0.00  0.00    +0.079 C 
ATOM     30  C   UNL     1      -1.959  -1.865  -3.453  0.00  0.00    +0.004 C 
ATOM     31  C   UNL     1      -2.848  -2.337  -2.289  0.00  0.00    +0.064 C 
ATOM     32  H   UNL     1      -1.997  -1.258  -0.612  0.00  0.00    +0.037 HD
ATOM     33  H   UNL     1      -0.074  -2.519  -1.302  0.00  0.00    +0.057 HD
ATOM     34  H   UNL     1      -1.439  -4.765   0.259  0.00  0.00    +0.059 HD
ATOM     35  H   UNL     1       0.889  -5.251   0.871  0.00  0.00    +0.064 HD
ATOM     36  H   UNL     1       1.701  -3.782  -1.674  0.00  0.00    +0.032 HD
ATOM     37  H   UNL     1       1.929  -3.183  -0.009  0.00  0.00    +0.032 HD
ATOM     38  H   UNL     1       3.257  -5.652  -1.244  0.00  0.00    +0.060 HD
ATOM     39  H   UNL     1       4.418  -2.962  -0.347  0.00  0.00    +0.036 HD
ATOM     40  H   UNL     1       3.417  -3.865  -2.963  0.00  0.00    +0.077 HD
ATOM     41  H   UNL     1       3.514  -1.589  -3.639  0.00  0.00    +0.068 HD
ATOM     42  H   UNL     1       7.183  -0.861  -2.621  0.00  0.00    +0.069 HD
ATOM     43  H   UNL     1       4.102   0.954  -2.195  0.00  0.00    +0.034 HD
ATOM     44  H   UNL     1       4.424   0.151  -0.644  0.00  0.00    +0.034 HD
ATOM     45  H   UNL     1       6.558   1.488  -2.375  0.00  0.00    +0.060 HD
ATOM     46  H   UNL     1       5.079   3.214  -1.608  0.00  0.00    +0.034 HD
ATOM     47  H   UNL     1       6.527   3.318  -0.665  0.00  0.00    +0.034 HD
ATOM     48  H   UNL     1       3.111   2.878   1.609  0.00  0.00    +0.062 HD
ATOM     49  H   UNL     1       2.962   3.341  -1.466  0.00  0.00    +0.062 HD
ATOM     50  H   UNL     1       0.879   3.382   0.804  0.00  0.00    +0.069 HD
ATOM     51  H   UNL     1      -1.643   4.040  -2.704  0.00  0.00    +0.074 HD
ATOM     52  H   UNL     1      -3.217   2.479  -0.596  0.00  0.00    +0.038 HD
ATOM     53  H   UNL     1      -1.298   1.199  -1.236  0.00  0.00    +0.057 HD
ATOM     54  H   UNL     1      -2.869   0.831  -3.845  0.00  0.00    +0.059 HD
ATOM     55  H   UNL     1      -0.485  -0.612  -2.491  0.00  0.00    +0.064 HD
ATOM     56  H   UNL     1      -1.208  -2.638  -3.664  0.00  0.00    +0.032 HD
ATOM     57  H   UNL     1      -2.576  -1.814  -4.364  0.00  0.00    +0.032 HD
ATOM     58  H   UNL     1      -3.142  -3.370  -2.517  0.00  0.00    +0.060 HD
ENDROOT
BRANCH   1  59
ATOM     59  C   UNL     1      -3.224  -2.774   0.189  0.00  0.00    -0.057 C 
ATOM     60  H   UNL     1      -2.764  -2.824   1.183  0.00  0.00    +0.024 HD
ATOM     61  H   UNL     1      -4.066  -2.076   0.265  0.00  0.00    +0.024 HD
ATOM     62  H   UNL     1      -3.628  -3.763  -0.051  0.00  0.00    +0.024 HD
ENDBRANCH   1  59
BRANCH  26  63
ATOM     63  C   UNL     1      -4.168   2.748  -2.491  0.00  0.00    -0.056 C 
ATOM     64  H   UNL     1      -3.942   3.086  -3.507  0.00  0.00    +0.024 HD
ATOM     65  H   UNL     1      -4.672   1.776  -2.560  0.00  0.00    +0.024 HD
ATOM     66  H   UNL     1      -4.904   3.425  -2.056  0.00  0.00    +0.024 HD
ENDBRANCH  26  63
BRANCH  18  67
ATOM     67  C   UNL     1       5.663   2.316   1.702  0.00  0.00    -0.043 C 
ATOM     68  H   UNL     1       5.933   1.256   1.706  0.00  0.00    +0.027 HD
ATOM     69  H   UNL     1       5.113   2.514   2.627  0.00  0.00    +0.027 HD
ATOM     70  H   UNL     1       6.580   2.915   1.740  0.00  0.00    +0.027 HD
ENDBRANCH  18  67
BRANCH   7  71
ATOM     71  C   UNL     1       5.786  -4.506  -0.820  0.00  0.00    -0.057 C 
ATOM     72  H   UNL     1       5.884  -5.400  -1.445  0.00  0.00    +0.023 HD
ATOM     73  H   UNL     1       6.618  -3.832  -1.039  0.00  0.00    +0.023 HD
ATOM     74  H   UNL     1       5.917  -4.805   0.225  0.00  0.00    +0.023 HD
ENDBRANCH   7  71
BRANCH  31  75
ATOM     75  O   UNL     1      -4.058  -1.569  -2.315  0.00  0.00    -0.391 OA
ATOM     76  H   UNL     1      -4.746  -2.087  -1.867  0.00  0.00    +0.210 HD
ENDBRANCH  31  75
BRANCH  25  77
ATOM     77  C   UNL     1      -2.596   5.336  -1.263  0.00  0.00    +0.020 C 
ATOM     78  H   UNL     1      -1.731   6.011  -1.220  0.00  0.00    +0.036 HD
BRANCH  77  79
ATOM     79  C   UNL     1      -3.487   5.926  -2.369  0.00  0.00    -0.057 C 
ATOM     80  H   UNL     1      -4.460   5.443  -2.437  0.00  0.00    +0.023 HD
ATOM     81  H   UNL     1      -2.997   5.852  -3.346  0.00  0.00    +0.023 HD
ATOM     82  H   UNL     1      -3.668   6.991  -2.179  0.00  0.00    +0.023 HD
ENDBRANCH  77  79
BRANCH  77  83
ATOM     83  C   UNL     1      -3.298   5.451   0.132  0.00  0.00    +0.067 C 
ATOM     84  H   UNL     1      -3.778   6.441   0.172  0.00  0.00    +0.060 HD
BRANCH  83  85
ATOM     85  C   UNL     1      -2.311   5.390   1.343  0.00  0.00    -0.017 C 
ATOM     86  H   UNL     1      -1.496   4.702   1.126  0.00  0.00    +0.032 HD
BRANCH  85  87
ATOM     87  C   UNL     1      -1.666   6.769   1.557  0.00  0.00    -0.060 C 
ATOM     88  H   UNL     1      -0.887   6.716   2.321  0.00  0.00    +0.023 HD
ATOM     89  H   UNL     1      -1.195   7.139   0.641  0.00  0.00    +0.023 HD
ATOM     90  H   UNL     1      -2.407   7.508   1.878  0.00  0.00    +0.023 HD
ENDBRANCH  85  87
BRANCH  85  91
ATOM     91  C   UNL     1      -2.947   4.914   2.671  0.00  0.00    -0.041 C 
ATOM     92  H   UNL     1      -3.951   5.344   2.775  0.00  0.00    +0.027 HD
ATOM     93  H   UNL     1      -2.370   5.298   3.522  0.00  0.00    +0.027 HD
BRANCH  91  94
ATOM     94  C   UNL     1      -3.030   3.385   2.788  0.00  0.00    +0.007 C 
ATOM     95  H   UNL     1      -3.720   3.140   3.603  0.00  0.00    +0.034 HD
ATOM     96  H   UNL     1      -3.427   2.954   1.870  0.00  0.00    +0.034 HD
BRANCH  94  97
ATOM     97  C   UNL     1      -1.690   2.724   3.103  0.00  0.00    +0.139 C 
ATOM     98  O   UNL     1      -0.700   3.389   3.422  0.00  0.00    -0.297 OA
BRANCH  97  99
ATOM     99  C   UNL     1      -1.586   1.198   3.094  0.00  0.00    +0.041 C 
ATOM    100  H   UNL     1      -0.589   0.999   2.677  0.00  0.00    +0.040 HD
BRANCH  99 101
ATOM    101  C   UNL     1      -2.546   0.504   2.131  0.00  0.00    -0.053 C 
ATOM    102  H   UNL     1      -3.596   0.673   2.391  0.00  0.00    +0.024 HD
ATOM    103  H   UNL     1      -2.370  -0.576   2.119  0.00  0.00    +0.024 HD
ATOM    104  H   UNL     1      -2.398   0.873   1.111  0.00  0.00    +0.024 HD
ENDBRANCH  99 101
BRANCH  99 105
ATOM    105  C   UNL     1      -1.619   0.636   4.533  0.00  0.00    +0.071 C 
ATOM    106  H   UNL     1      -0.977   1.242   5.187  0.00  0.00    +0.061 HD
BRANCH 105 107
ATOM    107  C   UNL     1      -3.038   0.598   5.141  0.00  0.00    -0.006 C 
ATOM    108  H   UNL     1      -3.510   1.581   5.067  0.00  0.00    +0.033 HD
ATOM    109  H   UNL     1      -3.663  -0.112   4.586  0.00  0.00    +0.033 HD
BRANCH 107 110
ATOM    110  C   UNL     1      -3.042   0.226   6.605  0.00  0.00    -0.067 C 
ATOM    111  C   UNL     1      -3.663  -0.866   7.078  0.00  0.00    -0.005 C 
ATOM    112  H   UNL     1      -2.527   0.914   7.268  0.00  0.00    +0.059 HD
ATOM    113  H   UNL     1      -4.161  -1.532   6.376  0.00  0.00    +0.078 HD
BRANCH 111 114
ATOM    114  N   UNL     1      -3.736  -1.245   8.410  0.00  0.00    -0.284 N 
ATOM    115  C   UNL     1      -4.404  -2.409   8.778  0.00  0.00    +0.206 C 
ATOM    116  O   UNL     1      -4.537  -2.847   9.915  0.00  0.00    -0.279 OA
ATOM    117  H   UNL     1      -4.838  -2.943   7.914  0.00  0.00    +0.126 HD
BRANCH 114 118
ATOM    118  C   UNL     1      -3.119  -0.452   9.463  0.00  0.00    +0.007 C 
ATOM    119  H   UNL     1      -3.503   0.573   9.425  0.00  0.00    +0.043 HD
ATOM    120  H   UNL     1      -3.334  -0.856  10.456  0.00  0.00    +0.043 HD
ATOM    121  H   UNL     1      -2.033  -0.452   9.320  0.00  0.00    +0.043 HD
ENDBRANCH 114 118
ENDBRANCH 111 114
ENDBRANCH 107 110
ENDBRANCH 105 107
BRANCH 105 122
ATOM    122  O   UNL     1      -1.141  -0.724   4.515  0.00  0.00    -0.379 OA
BRANCH 122 123
ATOM    123  C   UNL     1       0.268  -0.827   4.681  0.00  0.00    +0.037 C 
ATOM    124  H   UNL     1       0.537  -1.886   4.661  0.00  0.00    +0.052 HD
ATOM    125  H   UNL     1       0.570  -0.412   5.647  0.00  0.00    +0.052 HD
ATOM    126  H   UNL     1       0.798  -0.319   3.871  0.00  0.00    +0.052 HD
ENDBRANCH 122 123
ENDBRANCH 105 122
ENDBRANCH  99 105
ENDBRANCH  97  99
ENDBRANCH  94  97
ENDBRANCH  91  94
ENDBRANCH  85  91
ENDBRANCH  83  85
BRANCH  83 127
ATOM    127  O   UNL     1      -4.306   4.448   0.243  0.00  0.00    -0.379 OA
BRANCH 127 128
ATOM    128  C   UNL     1      -5.628   4.969   0.351  0.00  0.00    +0.037 C 
ATOM    129  H   UNL     1      -5.732   5.575   1.256  0.00  0.00    +0.052 HD
ATOM    130  H   UNL     1      -6.316   4.122   0.415  0.00  0.00    +0.052 HD
ATOM    131  H   UNL     1      -5.883   5.562  -0.532  0.00  0.00    +0.052 HD
ENDBRANCH 127 128
ENDBRANCH  83 127
ENDBRANCH  77  83
ENDBRANCH  25  77
BRANCH   9 132
ATOM    132  O   UNL     1       2.779  -1.468  -1.743  0.00  0.00    -0.384 OA
ATOM    133  H   UNL     1       2.427  -0.606  -2.023  0.00  0.00    +0.210 HD
ENDBRANCH   9 132
BRANCH  29 134
ATOM    134  O   UNL     1      -0.495  -0.320  -4.525  0.00  0.00    -0.376 OA
BRANCH 134 135
ATOM    135  C   UNL     1       0.451   0.740  -4.468  0.00  0.00    +0.037 C 
ATOM    136  H   UNL     1       1.045   0.714  -5.386  0.00  0.00    +0.052 HD
ATOM    137  H   UNL     1      -0.048   1.712  -4.416  0.00  0.00    +0.052 HD
ATOM    138  H   UNL     1       1.129   0.613  -3.617  0.00  0.00    +0.052 HD
ENDBRANCH 134 135
ENDBRANCH  29 134
BRANCH   6 139
ATOM    139  O   UNL     1       3.493  -5.161   0.780  0.00  0.00    -0.379 OA
BRANCH 139 140
ATOM    140  C   UNL     1       3.738  -6.556   0.925  0.00  0.00    +0.037 C 
ATOM    141  H   UNL     1       3.929  -6.763   1.982  0.00  0.00    +0.052 HD
ATOM    142  H   UNL     1       2.866  -7.133   0.610  0.00  0.00    +0.052 HD
ATOM    143  H   UNL     1       4.614  -6.861   0.346  0.00  0.00    +0.052 HD
ENDBRANCH 139 140
ENDBRANCH   6 139
BRANCH  16 144
ATOM    144  O   UNL     1       7.005   0.645  -0.538  0.00  0.00    -0.379 OA
BRANCH 144 145
ATOM    145  C   UNL     1       8.324   1.172  -0.586  0.00  0.00    +0.037 C 
ATOM    146  H   UNL     1       8.707   1.164  -1.612  0.00  0.00    +0.052 HD
ATOM    147  H   UNL     1       8.968   0.534   0.028  0.00  0.00    +0.052 HD
ATOM    148  H   UNL     1       8.359   2.185  -0.176  0.00  0.00    +0.052 HD
ENDBRANCH 144 145
ENDBRANCH  16 144
BRANCH   4 149
ATOM    149  O   UNL     1       0.651  -6.102  -1.017  0.00  0.00    -0.376 OA
BRANCH 149 150
ATOM    150  C   UNL     1      -0.023  -7.206  -0.428  0.00  0.00    +0.037 C 
ATOM    151  H   UNL     1       0.426  -7.471   0.534  0.00  0.00    +0.052 HD
ATOM    152  H   UNL     1       0.074  -8.060  -1.101  0.00  0.00    +0.052 HD
ATOM    153  H   UNL     1      -1.087  -6.992  -0.300  0.00  0.00    +0.052 HD
ENDBRANCH 149 150
ENDBRANCH   4 149
TORSDOF 33
