REMARK  Name = Swinholide A_conf2
REMARK  40 active torsions:
REMARK  status: ('A' for Active; 'I' for Inactive)
REMARK    1  A    between atoms: C_1  and  C_2
REMARK    2  A    between atoms: C_4  and  C_10
REMARK    3  A    between atoms: C_6  and  O_8
REMARK    4  A    between atoms: O_8  and  C_9
REMARK    5  A    between atoms: C_10  and  C_11
REMARK    6  A    between atoms: C_11  and  C_12
REMARK    7  A    between atoms: C_12  and  C_13
REMARK    8  A    between atoms: C_12  and  C_98
REMARK    9  A    between atoms: C_13  and  O_14
REMARK   10  A    between atoms: C_13  and  C_15
REMARK   11  A    between atoms: C_15  and  C_16
REMARK   12  A    between atoms: C_15  and  C_97
REMARK   13  A    between atoms: C_22  and  C_96
REMARK   14  A    between atoms: C_25  and  O_95
REMARK   15  A    between atoms: C_31  and  O_90
REMARK   16  A    between atoms: C_32  and  C_89
REMARK   17  A    between atoms: C_33  and  O_88
REMARK   18  A    between atoms: C_35  and  O_87
REMARK   19  A    between atoms: C_36  and  C_86
REMARK   20  A    between atoms: C_37  and  C_69
REMARK   21  A    between atoms: C_43  and  C_68
REMARK   22  A    between atoms: C_46  and  O_67
REMARK   23  A    between atoms: C_52  and  O_62
REMARK   24  A    between atoms: C_53  and  C_61
REMARK   25  A    between atoms: C_54  and  O_60
REMARK   26  A    between atoms: C_56  and  O_59
REMARK   27  A    between atoms: C_57  and  C_58
REMARK   28  A    between atoms: O_62  and  C_63
REMARK   29  A    between atoms: C_69  and  C_70
REMARK   30  A    between atoms: C_69  and  C_85
REMARK   31  A    between atoms: C_70  and  O_71
REMARK   32  A    between atoms: C_70  and  C_72
REMARK   33  A    between atoms: C_72  and  C_73
REMARK   34  A    between atoms: C_72  and  C_84
REMARK   35  A    between atoms: C_73  and  C_74
REMARK   36  A    between atoms: C_74  and  C_75
REMARK   37  A    between atoms: C_77  and  C_83
REMARK   38  A    between atoms: C_79  and  O_81
REMARK   39  A    between atoms: O_81  and  C_82
REMARK   40  A    between atoms: O_90  and  C_91
REMARK                            x       y       z     vdW  Elec       q    Type
REMARK                         _______ _______ _______ _____ _____    ______ ____
ROOT
ATOM      1  C   UNL     1       2.204   0.202  -3.977  0.00  0.00    +0.113 C 
ATOM      2  O   UNL     1       2.922   0.386  -2.729  0.00  0.00    -0.458 OA
ATOM      3  C   UNL     1       2.892  -0.658  -1.866  0.00  0.00    +0.332 C 
ATOM      4  O   UNL     1       2.360  -1.740  -2.040  0.00  0.00    -0.246 OA
ATOM      5  C   UNL     1       3.588  -0.261  -0.622  0.00  0.00    +0.023 C 
ATOM      6  C   UNL     1       3.767  -1.172   0.347  0.00  0.00    -0.052 C 
ATOM      7  C   UNL     1       4.352  -0.930   1.661  0.00  0.00    -0.054 C 
ATOM      8  C   UNL     1       5.317  -0.012   1.866  0.00  0.00    -0.079 C 
ATOM      9  C   UNL     1       6.028   0.260   3.168  0.00  0.00    -0.008 C 
ATOM     10  C   UNL     1       5.754   1.658   3.760  0.00  0.00    +0.061 C 
ATOM     11  C   UNL     1       4.324   1.794   4.306  0.00  0.00    +0.003 C 
ATOM     12  C   UNL     1       4.067   3.087   5.109  0.00  0.00    +0.080 C 
ATOM     13  O   UNL     1       2.670   3.453   5.046  0.00  0.00    -0.369 OA
ATOM     14  C   UNL     1       1.825   2.695   5.933  0.00  0.00    +0.065 C 
ATOM     15  C   UNL     1       0.375   3.113   5.629  0.00  0.00    +0.000 C 
ATOM     16  C   UNL     1      -0.690   2.497   6.564  0.00  0.00    +0.066 C 
ATOM     17  C   UNL     1      -2.159   2.721   6.066  0.00  0.00    +0.009 C 
ATOM     18  C   UNL     1      -2.431   2.183   4.639  0.00  0.00    +0.063 C 
ATOM     19  C   UNL     1      -3.907   2.335   4.192  0.00  0.00    -0.000 C 
ATOM     20  C   UNL     1      -4.124   1.617   2.851  0.00  0.00    +0.064 C 
ATOM     21  C   UNL     1      -5.338   2.138   2.038  0.00  0.00    +0.020 C 
ATOM     22  C   UNL     1      -5.297   1.687   0.543  0.00  0.00    +0.113 C 
ATOM     23  O   UNL     1      -5.348   0.234   0.597  0.00  0.00    -0.458 OA
ATOM     24  C   UNL     1      -6.140  -0.452  -0.254  0.00  0.00    +0.332 C 
ATOM     25  O   UNL     1      -6.746   0.005  -1.224  0.00  0.00    -0.246 OA
ATOM     26  C   UNL     1      -6.200  -1.883   0.115  0.00  0.00    +0.023 C 
ATOM     27  C   UNL     1      -5.442  -2.436   1.085  0.00  0.00    -0.052 C 
ATOM     28  C   UNL     1      -5.415  -3.833   1.510  0.00  0.00    -0.054 C 
ATOM     29  C   UNL     1      -4.501  -4.195   2.435  0.00  0.00    -0.079 C 
ATOM     30  C   UNL     1      -4.213  -5.567   2.974  0.00  0.00    -0.008 C 
ATOM     31  C   UNL     1      -2.726  -5.975   3.012  0.00  0.00    +0.061 C 
ATOM     32  C   UNL     1      -2.002  -6.087   1.654  0.00  0.00    +0.003 C 
ATOM     33  C   UNL     1      -1.332  -4.857   1.009  0.00  0.00    +0.080 C 
ATOM     34  O   UNL     1      -2.325  -3.951   0.519  0.00  0.00    -0.369 OA
ATOM     35  C   UNL     1      -1.825  -2.699   0.038  0.00  0.00    +0.065 C 
ATOM     36  C   UNL     1      -0.983  -2.823  -1.244  0.00  0.00    +0.000 C 
ATOM     37  C   UNL     1      -1.845  -3.244  -2.459  0.00  0.00    +0.066 C 
ATOM     38  C   UNL     1      -1.201  -2.770  -3.793  0.00  0.00    +0.009 C 
ATOM     39  C   UNL     1      -1.538  -1.287  -4.130  0.00  0.00    +0.063 C 
ATOM     40  C   UNL     1      -0.574  -0.695  -5.192  0.00  0.00    -0.000 C 
ATOM     41  C   UNL     1      -0.130   0.763  -5.013  0.00  0.00    +0.064 C 
ATOM     42  C   UNL     1       0.884   1.028  -3.872  0.00  0.00    +0.020 C 
ATOM     43  C   UNL     1      -1.102  -1.948   1.170  0.00  0.00    -0.008 C 
ATOM     44  C   UNL     1      -0.217  -2.841   1.986  0.00  0.00    -0.083 C 
ATOM     45  C   UNL     1      -0.325  -4.169   1.894  0.00  0.00    -0.059 C 
ATOM     46  C   UNL     1       2.213   2.961   7.395  0.00  0.00    -0.008 C 
ATOM     47  C   UNL     1       3.698   2.921   7.590  0.00  0.00    -0.083 C 
ATOM     48  C   UNL     1       4.530   2.997   6.545  0.00  0.00    -0.059 C 
ATOM     49  H   UNL     1       1.889  -0.837  -4.059  0.00  0.00    +0.074 HD
ATOM     50  H   UNL     1       3.896   0.770  -0.534  0.00  0.00    +0.069 HD
ATOM     51  H   UNL     1       3.404  -2.187   0.187  0.00  0.00    +0.062 HD
ATOM     52  H   UNL     1       5.686   0.575   1.026  0.00  0.00    +0.058 HD
ATOM     53  H   UNL     1       7.104   0.159   2.975  0.00  0.00    +0.033 HD
ATOM     54  H   UNL     1       5.818  -0.500   3.926  0.00  0.00    +0.033 HD
ATOM     55  H   UNL     1       5.919   2.419   2.993  0.00  0.00    +0.060 HD
ATOM     56  H   UNL     1       3.616   1.743   3.471  0.00  0.00    +0.032 HD
ATOM     57  H   UNL     1       4.092   0.933   4.944  0.00  0.00    +0.032 HD
ATOM     58  H   UNL     1       4.595   3.918   4.631  0.00  0.00    +0.064 HD
ATOM     59  H   UNL     1       1.937   1.630   5.695  0.00  0.00    +0.060 HD
ATOM     60  H   UNL     1       0.291   4.206   5.652  0.00  0.00    +0.032 HD
ATOM     61  H   UNL     1       0.186   2.824   4.588  0.00  0.00    +0.032 HD
ATOM     62  H   UNL     1      -0.592   2.989   7.543  0.00  0.00    +0.060 HD
ATOM     63  H   UNL     1      -2.812   2.161   6.743  0.00  0.00    +0.035 HD
ATOM     64  H   UNL     1      -1.827   2.742   3.914  0.00  0.00    +0.060 HD
ATOM     65  H   UNL     1      -4.150   3.401   4.091  0.00  0.00    +0.032 HD
ATOM     66  H   UNL     1      -4.565   1.905   4.953  0.00  0.00    +0.032 HD
ATOM     67  H   UNL     1      -3.217   1.761   2.264  0.00  0.00    +0.060 HD
ATOM     68  H   UNL     1      -5.301   3.231   2.077  0.00  0.00    +0.036 HD
ATOM     69  H   UNL     1      -6.192   2.068   0.035  0.00  0.00    +0.074 HD
ATOM     70  H   UNL     1      -6.890  -2.466  -0.483  0.00  0.00    +0.069 HD
ATOM     71  H   UNL     1      -4.731  -1.793   1.604  0.00  0.00    +0.062 HD
ATOM     72  H   UNL     1      -3.837  -3.424   2.833  0.00  0.00    +0.058 HD
ATOM     73  H   UNL     1      -4.600  -5.589   4.002  0.00  0.00    +0.033 HD
ATOM     74  H   UNL     1      -4.753  -6.336   2.419  0.00  0.00    +0.033 HD
ATOM     75  H   UNL     1      -2.738  -6.996   3.412  0.00  0.00    +0.060 HD
ATOM     76  H   UNL     1      -2.703  -6.519   0.928  0.00  0.00    +0.032 HD
ATOM     77  H   UNL     1      -1.207  -6.827   1.788  0.00  0.00    +0.032 HD
ATOM     78  H   UNL     1      -0.794  -5.245   0.138  0.00  0.00    +0.064 HD
ATOM     79  H   UNL     1      -2.708  -2.095  -0.210  0.00  0.00    +0.060 HD
ATOM     80  H   UNL     1      -0.166  -3.540  -1.108  0.00  0.00    +0.032 HD
ATOM     81  H   UNL     1      -0.506  -1.853  -1.425  0.00  0.00    +0.032 HD
ATOM     82  H   UNL     1      -2.853  -2.816  -2.384  0.00  0.00    +0.060 HD
ATOM     83  H   UNL     1      -0.114  -2.869  -3.677  0.00  0.00    +0.035 HD
ATOM     84  H   UNL     1      -2.555  -1.257  -4.545  0.00  0.00    +0.060 HD
ATOM     85  H   UNL     1      -1.098  -0.768  -6.158  0.00  0.00    +0.032 HD
ATOM     86  H   UNL     1       0.299  -1.339  -5.315  0.00  0.00    +0.032 HD
ATOM     87  H   UNL     1       0.314   1.116  -5.949  0.00  0.00    +0.060 HD
ATOM     88  H   UNL     1       0.422   0.725  -2.922  0.00  0.00    +0.036 HD
ATOM     89  H   UNL     1      -0.519  -1.111   0.769  0.00  0.00    +0.033 HD
ATOM     90  H   UNL     1      -1.847  -1.530   1.859  0.00  0.00    +0.033 HD
ATOM     91  H   UNL     1       0.480  -2.383   2.680  0.00  0.00    +0.057 HD
ATOM     92  H   UNL     1       0.324  -4.804   2.497  0.00  0.00    +0.059 HD
ATOM     93  H   UNL     1       1.853   3.943   7.718  0.00  0.00    +0.033 HD
ATOM     94  H   UNL     1       1.747   2.211   8.044  0.00  0.00    +0.033 HD
ATOM     95  H   UNL     1       4.083   2.855   8.599  0.00  0.00    +0.057 HD
ATOM     96  H   UNL     1       5.603   2.972   6.717  0.00  0.00    +0.059 HD
ENDROOT
BRANCH  28  97
ATOM     97  C   UNL     1      -6.398  -4.781   0.871  0.00  0.00    -0.040 C 
ATOM     98  H   UNL     1      -7.420  -4.410   0.996  0.00  0.00    +0.028 HD
ATOM     99  H   UNL     1      -6.392  -5.782   1.312  0.00  0.00    +0.028 HD
ATOM    100  H   UNL     1      -6.191  -4.895  -0.199  0.00  0.00    +0.028 HD
ENDBRANCH  28  97
BRANCH  21 101
ATOM    101  C   UNL     1      -6.680   1.736   2.665  0.00  0.00    -0.057 C 
ATOM    102  H   UNL     1      -6.710   1.983   3.729  0.00  0.00    +0.023 HD
ATOM    103  H   UNL     1      -7.499   2.270   2.179  0.00  0.00    +0.023 HD
ATOM    104  H   UNL     1      -6.885   0.666   2.566  0.00  0.00    +0.023 HD
ENDBRANCH  21 101
BRANCH  42 105
ATOM    105  C   UNL     1       1.101   2.540  -3.688  0.00  0.00    -0.057 C 
ATOM    106  H   UNL     1       1.265   3.041  -4.643  0.00  0.00    +0.023 HD
ATOM    107  H   UNL     1       1.934   2.755  -3.014  0.00  0.00    +0.023 HD
ATOM    108  H   UNL     1       0.207   2.994  -3.253  0.00  0.00    +0.023 HD
ENDBRANCH  42 105
BRANCH  17 109
ATOM    109  C   UNL     1      -2.550   4.198   6.191  0.00  0.00    -0.058 C 
ATOM    110  H   UNL     1      -2.169   4.634   7.114  0.00  0.00    +0.023 HD
ATOM    111  H   UNL     1      -3.639   4.304   6.217  0.00  0.00    +0.023 HD
ATOM    112  H   UNL     1      -2.178   4.787   5.353  0.00  0.00    +0.023 HD
ENDBRANCH  17 109
BRANCH  38 113
ATOM    113  C   UNL     1      -1.593  -3.647  -4.996  0.00  0.00    -0.058 C 
ATOM    114  H   UNL     1      -1.344  -4.703  -4.839  0.00  0.00    +0.023 HD
ATOM    115  H   UNL     1      -2.675  -3.580  -5.191  0.00  0.00    +0.023 HD
ATOM    116  H   UNL     1      -1.074  -3.331  -5.905  0.00  0.00    +0.023 HD
ENDBRANCH  38 113
BRANCH   7 117
ATOM    117  C   UNL     1       3.814  -1.818   2.753  0.00  0.00    -0.040 C 
ATOM    118  H   UNL     1       4.431  -2.715   2.851  0.00  0.00    +0.028 HD
ATOM    119  H   UNL     1       2.789  -2.135   2.540  0.00  0.00    +0.028 HD
ATOM    120  H   UNL     1       3.785  -1.306   3.722  0.00  0.00    +0.028 HD
ENDBRANCH   7 117
BRANCH   1 121
ATOM    121  C   UNL     1       3.147   0.467  -5.187  0.00  0.00    +0.020 C 
ATOM    122  H   UNL     1       2.559   0.415  -6.109  0.00  0.00    +0.036 HD
BRANCH 121 123
ATOM    123  C   UNL     1       3.800   1.862  -5.173  0.00  0.00    -0.057 C 
ATOM    124  H   UNL     1       4.186   2.133  -4.187  0.00  0.00    +0.023 HD
ATOM    125  H   UNL     1       4.626   1.918  -5.888  0.00  0.00    +0.023 HD
ATOM    126  H   UNL     1       3.093   2.629  -5.496  0.00  0.00    +0.023 HD
ENDBRANCH 121 123
BRANCH 121 127
ATOM    127  C   UNL     1       4.292  -0.596  -5.303  0.00  0.00    +0.064 C 
ATOM    128  H   UNL     1       4.915  -0.341  -6.170  0.00  0.00    +0.060 HD
BRANCH 127 129
ATOM    129  C   UNL     1       3.829  -2.070  -5.492  0.00  0.00    -0.017 C 
ATOM    130  H   UNL     1       3.249  -2.384  -4.619  0.00  0.00    +0.032 HD
BRANCH 129 131
ATOM    131  C   UNL     1       2.950  -2.227  -6.737  0.00  0.00    -0.060 C 
ATOM    132  H   UNL     1       2.065  -1.586  -6.705  0.00  0.00    +0.023 HD
ATOM    133  H   UNL     1       3.508  -1.985  -7.649  0.00  0.00    +0.023 HD
ATOM    134  H   UNL     1       2.587  -3.257  -6.828  0.00  0.00    +0.023 HD
ENDBRANCH 129 131
BRANCH 129 135
ATOM    135  C   UNL     1       5.007  -3.070  -5.619  0.00  0.00    -0.046 C 
ATOM    136  H   UNL     1       4.598  -4.025  -5.971  0.00  0.00    +0.027 HD
ATOM    137  H   UNL     1       5.712  -2.735  -6.389  0.00  0.00    +0.027 HD
BRANCH 135 138
ATOM    138  C   UNL     1       5.770  -3.320  -4.311  0.00  0.00    -0.026 C 
ATOM    139  H   UNL     1       6.455  -2.490  -4.117  0.00  0.00    +0.029 HD
ATOM    140  H   UNL     1       5.054  -3.344  -3.480  0.00  0.00    +0.029 HD
BRANCH 138 143
ATOM    141  C   UNL     1       4.895  -6.159  -3.595  0.00  0.00    +0.059 C 
ATOM    142  O   UNL     1       5.793  -5.766  -4.639  0.00  0.00    -0.373 OA
ATOM    143  C   UNL     1       6.596  -4.617  -4.348  0.00  0.00    +0.061 C 
ATOM    144  C   UNL     1       7.399  -4.846  -3.066  0.00  0.00    -0.000 C 
ATOM    145  C   UNL     1       6.501  -5.251  -1.899  0.00  0.00    +0.063 C 
ATOM    146  C   UNL     1       5.653  -6.453  -2.307  0.00  0.00    -0.000 C 
ATOM    147  H   UNL     1       4.161  -5.362  -3.436  0.00  0.00    +0.059 HD
ATOM    148  H   UNL     1       7.307  -4.530  -5.180  0.00  0.00    +0.060 HD
ATOM    149  H   UNL     1       8.127  -5.651  -3.243  0.00  0.00    +0.032 HD
ATOM    150  H   UNL     1       7.989  -3.959  -2.809  0.00  0.00    +0.032 HD
ATOM    151  H   UNL     1       5.856  -4.406  -1.629  0.00  0.00    +0.060 HD
ATOM    152  H   UNL     1       4.953  -6.727  -1.508  0.00  0.00    +0.032 HD
ATOM    153  H   UNL     1       6.316  -7.320  -2.445  0.00  0.00    +0.032 HD
BRANCH 141 154
ATOM    154  C   UNL     1       4.147  -7.390  -4.084  0.00  0.00    -0.039 C 
ATOM    155  H   UNL     1       3.426  -7.744  -3.341  0.00  0.00    +0.025 HD
ATOM    156  H   UNL     1       3.610  -7.168  -5.014  0.00  0.00    +0.025 HD
ATOM    157  H   UNL     1       4.844  -8.204  -4.314  0.00  0.00    +0.025 HD
ENDBRANCH 141 154
BRANCH 145 158
ATOM    158  O   UNL     1       7.353  -5.546  -0.788  0.00  0.00    -0.380 OA
BRANCH 158 159
ATOM    159  C   UNL     1       6.654  -5.653   0.446  0.00  0.00    +0.037 C 
ATOM    160  H   UNL     1       7.392  -5.686   1.251  0.00  0.00    +0.052 HD
ATOM    161  H   UNL     1       6.072  -6.575   0.480  0.00  0.00    +0.052 HD
ATOM    162  H   UNL     1       6.004  -4.789   0.614  0.00  0.00    +0.052 HD
ENDBRANCH 158 159
ENDBRANCH 145 158
ENDBRANCH 138 143
ENDBRANCH 135 138
ENDBRANCH 129 135
ENDBRANCH 127 129
BRANCH 127 163
ATOM    163  O   UNL     1       5.136  -0.509  -4.157  0.00  0.00    -0.391 OA
ATOM    164  H   UNL     1       5.586   0.351  -4.176  0.00  0.00    +0.210 HD
ENDBRANCH 127 163
ENDBRANCH 121 127
ENDBRANCH   1 121
BRANCH  41 165
ATOM    165  O   UNL     1      -1.309   1.553  -4.789  0.00  0.00    -0.391 OA
ATOM    166  H   UNL     1      -1.848   1.502  -5.599  0.00  0.00    +0.210 HD
ENDBRANCH  41 165
BRANCH  39 167
ATOM    167  O   UNL     1      -1.593  -0.492  -2.961  0.00  0.00    -0.391 OA
ATOM    168  H   UNL     1      -1.813   0.422  -3.242  0.00  0.00    +0.210 HD
ENDBRANCH  39 167
BRANCH  31 169
ATOM    169  O   UNL     1      -1.972  -5.236   3.968  0.00  0.00    -0.391 OA
ATOM    170  H   UNL     1      -2.568  -4.608   4.415  0.00  0.00    +0.210 HD
ENDBRANCH  31 169
BRANCH  22 171
ATOM    171  C   UNL     1      -4.027   2.128  -0.256  0.00  0.00    +0.020 C 
ATOM    172  H   UNL     1      -3.164   1.690   0.249  0.00  0.00    +0.036 HD
BRANCH 171 173
ATOM    173  C   UNL     1      -3.997   1.483  -1.655  0.00  0.00    -0.057 C 
ATOM    174  H   UNL     1      -4.905   1.726  -2.219  0.00  0.00    +0.023 HD
ATOM    175  H   UNL     1      -3.144   1.849  -2.240  0.00  0.00    +0.023 HD
ATOM    176  H   UNL     1      -3.897   0.395  -1.595  0.00  0.00    +0.023 HD
ENDBRANCH 171 173
BRANCH 171 177
ATOM    177  C   UNL     1      -3.792   3.668  -0.436  0.00  0.00    +0.064 C 
ATOM    178  H   UNL     1      -3.895   3.922  -1.501  0.00  0.00    +0.060 HD
BRANCH 177 179
ATOM    179  O   UNL     1      -4.812   4.418   0.221  0.00  0.00    -0.391 OA
ATOM    180  H   UNL     1      -4.847   5.298  -0.194  0.00  0.00    +0.210 HD
ENDBRANCH 177 179
BRANCH 177 181
ATOM    181  C   UNL     1      -2.383   4.165   0.041  0.00  0.00    -0.017 C 
ATOM    182  H   UNL     1      -2.319   4.008   1.127  0.00  0.00    +0.032 HD
BRANCH 181 183
ATOM    183  C   UNL     1      -1.254   3.376  -0.644  0.00  0.00    -0.060 C 
ATOM    184  H   UNL     1      -1.270   3.572  -1.721  0.00  0.00    +0.023 HD
ATOM    185  H   UNL     1      -1.336   2.297  -0.492  0.00  0.00    +0.023 HD
ATOM    186  H   UNL     1      -0.273   3.649  -0.250  0.00  0.00    +0.023 HD
ENDBRANCH 181 183
BRANCH 181 187
ATOM    187  C   UNL     1      -2.202   5.690  -0.221  0.00  0.00    -0.046 C 
ATOM    188  H   UNL     1      -3.010   6.235   0.274  0.00  0.00    +0.027 HD
ATOM    189  H   UNL     1      -2.300   5.859  -1.300  0.00  0.00    +0.027 HD
BRANCH 187 190
ATOM    190  C   UNL     1      -0.856   6.263   0.265  0.00  0.00    -0.026 C 
ATOM    191  H   UNL     1      -0.052   5.699  -0.217  0.00  0.00    +0.029 HD
ATOM    192  H   UNL     1      -0.770   6.087   1.344  0.00  0.00    +0.029 HD
BRANCH 190 193
ATOM    193  C   UNL     1      -0.544   7.748  -0.022  0.00  0.00    +0.061 C 
ATOM    194  O   UNL     1      -1.008   8.629   1.001  0.00  0.00    -0.373 OA
ATOM    195  C   UNL     1      -2.352   9.081   0.890  0.00  0.00    +0.059 C 
ATOM    196  C   UNL     1      -2.612   9.740  -0.457  0.00  0.00    -0.000 C 
ATOM    197  C   UNL     1      -2.277   8.771  -1.596  0.00  0.00    +0.063 C 
ATOM    198  C   UNL     1      -0.848   8.259  -1.431  0.00  0.00    -0.000 C 
ATOM    199  H   UNL     1       0.549   7.806   0.077  0.00  0.00    +0.060 HD
ATOM    200  H   UNL     1      -3.028   8.233   1.040  0.00  0.00    +0.059 HD
ATOM    201  H   UNL     1      -3.657  10.061  -0.524  0.00  0.00    +0.032 HD
ATOM    202  H   UNL     1      -2.001  10.642  -0.577  0.00  0.00    +0.032 HD
ATOM    203  H   UNL     1      -2.980   7.935  -1.582  0.00  0.00    +0.060 HD
ATOM    204  H   UNL     1      -0.177   9.106  -1.634  0.00  0.00    +0.032 HD
ATOM    205  H   UNL     1      -0.608   7.507  -2.192  0.00  0.00    +0.032 HD
BRANCH 195 206
ATOM    206  C   UNL     1      -2.590  10.080   2.016  0.00  0.00    -0.039 C 
ATOM    207  H   UNL     1      -3.637  10.385   2.052  0.00  0.00    +0.025 HD
ATOM    208  H   UNL     1      -2.320   9.648   2.982  0.00  0.00    +0.025 HD
ATOM    209  H   UNL     1      -1.973  10.972   1.887  0.00  0.00    +0.025 HD
ENDBRANCH 195 206
BRANCH 197 210
ATOM    210  O   UNL     1      -2.355   9.382  -2.890  0.00  0.00    -0.380 OA
BRANCH 210 211
ATOM    211  C   UNL     1      -3.653   9.836  -3.241  0.00  0.00    +0.037 C 
ATOM    212  H   UNL     1      -3.879  10.764  -2.715  0.00  0.00    +0.052 HD
ATOM    213  H   UNL     1      -3.662  10.051  -4.313  0.00  0.00    +0.052 HD
ATOM    214  H   UNL     1      -4.411   9.080  -3.028  0.00  0.00    +0.052 HD
ENDBRANCH 210 211
ENDBRANCH 197 210
ENDBRANCH 190 193
ENDBRANCH 187 190
ENDBRANCH 181 187
ENDBRANCH 177 181
ENDBRANCH 171 177
ENDBRANCH  22 171
BRANCH  20 215
ATOM    215  O   UNL     1      -4.201   0.215   3.142  0.00  0.00    -0.391 OA
ATOM    216  H   UNL     1      -5.087   0.015   3.489  0.00  0.00    +0.210 HD
ENDBRANCH  20 215
BRANCH  18 217
ATOM    217  O   UNL     1      -2.014   0.823   4.567  0.00  0.00    -0.391 OA
ATOM    218  H   UNL     1      -2.743   0.265   4.220  0.00  0.00    +0.210 HD
ENDBRANCH  18 217
BRANCH  10 219
ATOM    219  O   UNL     1       6.716   1.889   4.791  0.00  0.00    -0.391 OA
ATOM    220  H   UNL     1       7.601   1.757   4.407  0.00  0.00    +0.210 HD
ENDBRANCH  10 219
BRANCH  37 221
ATOM    221  O   UNL     1      -1.909  -4.679  -2.451  0.00  0.00    -0.379 OA
BRANCH 221 222
ATOM    222  C   UNL     1      -3.245  -5.163  -2.409  0.00  0.00    +0.037 C 
ATOM    223  H   UNL     1      -3.799  -4.838  -3.296  0.00  0.00    +0.052 HD
ATOM    224  H   UNL     1      -3.761  -4.821  -1.507  0.00  0.00    +0.052 HD
ATOM    225  H   UNL     1      -3.221  -6.258  -2.397  0.00  0.00    +0.052 HD
ENDBRANCH 221 222
ENDBRANCH  37 221
BRANCH  16 226
ATOM    226  O   UNL     1      -0.354   1.117   6.754  0.00  0.00    -0.379 OA
BRANCH 226 227
ATOM    227  C   UNL     1      -1.041   0.477   7.819  0.00  0.00    +0.037 C 
ATOM    228  H   UNL     1      -0.582  -0.503   7.972  0.00  0.00    +0.052 HD
ATOM    229  H   UNL     1      -0.945   1.047   8.750  0.00  0.00    +0.052 HD
ATOM    230  H   UNL     1      -2.095   0.319   7.575  0.00  0.00    +0.052 HD
ENDBRANCH 226 227
ENDBRANCH  16 226
TORSDOF 40
