REMARK  Name = Ulapualide A_conf2
REMARK  27 active torsions:
REMARK  status: ('A' for Active; 'I' for Inactive)
REMARK    1  A    between atoms: C_1  and  C_2
REMARK    2  A    between atoms: C_9  and  O_63
REMARK    3  A    between atoms: C_14  and  C_38
REMARK    4  A    between atoms: C_15  and  C_37
REMARK    5  A    between atoms: C_16  and  O_35
REMARK    6  A    between atoms: O_35  and  C_36
REMARK    7  A    between atoms: C_38  and  C_39
REMARK    8  A    between atoms: C_39  and  C_40
REMARK    9  A    between atoms: C_39  and  O_61
REMARK   10  A    between atoms: C_40  and  C_41
REMARK   11  A    between atoms: C_40  and  C_42
REMARK   12  A    between atoms: C_42  and  C_43
REMARK   13  A    between atoms: C_43  and  C_44
REMARK   14  A    between atoms: C_44  and  C_46
REMARK   15  A    between atoms: C_46  and  C_47
REMARK   16  A    between atoms: C_46  and  C_48
REMARK   17  A    between atoms: C_48  and  C_49
REMARK   18  A    between atoms: C_48  and  O_57
REMARK   19  A    between atoms: C_49  and  C_50
REMARK   20  A    between atoms: C_49  and  C_51
REMARK   21  A    between atoms: C_52  and  N_53
REMARK   22  A    between atoms: N_53  and  C_54
REMARK   23  A    between atoms: N_53  and  C_55
REMARK   24  A    between atoms: C_55  and  O_56
REMARK   25  A    between atoms: O_57  and  C_58
REMARK   26  A    between atoms: C_58  and  C_60
REMARK   27  A    between atoms: O_61  and  C_62
REMARK                            x       y       z     vdW  Elec       q    Type
REMARK                         _______ _______ _______ _____ _____    ______ ____
ROOT
ATOM      1  C   UNL     1      -3.554   4.842   4.334  0.00  0.00    +0.008 C 
ATOM      2  C   UNL     1      -4.458   5.684   3.428  0.00  0.00    +0.014 C 
ATOM      3  C   UNL     1      -4.719   5.142   2.032  0.00  0.00    +0.134 C 
ATOM      4  O   UNL     1      -5.829   4.696   1.734  0.00  0.00    -0.297 OA
ATOM      5  C   UNL     1      -3.585   5.229   1.026  0.00  0.00    +0.006 C 
ATOM      6  C   UNL     1      -4.076   5.143  -0.417  0.00  0.00    -0.044 C 
ATOM      7  C   UNL     1      -3.047   5.587  -1.466  0.00  0.00    -0.026 C 
ATOM      8  C   UNL     1      -1.708   4.839  -1.404  0.00  0.00    +0.065 C 
ATOM      9  C   UNL     1      -0.901   5.061  -2.683  0.00  0.00    +0.071 C 
ATOM     10  C   UNL     1       0.208   4.051  -2.812  0.00  0.00    +0.310 C 
ATOM     11  O   UNL     1       1.399   4.337  -2.805  0.00  0.00    -0.251 OA
ATOM     12  O   UNL     1      -0.307   2.805  -3.003  0.00  0.00    -0.461 OA
ATOM     13  C   UNL     1       0.642   1.736  -3.232  0.00  0.00    +0.110 C 
ATOM     14  C   UNL     1      -0.001   0.738  -4.243  0.00  0.00    +0.020 C 
ATOM     15  C   UNL     1      -1.522   0.437  -4.018  0.00  0.00    +0.068 C 
ATOM     16  C   UNL     1      -1.825  -0.533  -2.853  0.00  0.00    -0.008 C 
ATOM     17  C   UNL     1      -1.386  -1.960  -3.104  0.00  0.00    -0.077 C 
ATOM     18  C   UNL     1      -1.742  -3.045  -2.399  0.00  0.00    -0.003 C 
ATOM     19  C   UNL     1      -2.527  -3.003  -1.212  0.00  0.00    +0.220 A 
ATOM     20  N   UNL     1      -2.763  -1.948  -0.444  0.00  0.00    -0.205 NA
ATOM     21  C   UNL     1      -3.496  -2.421   0.612  0.00  0.00    +0.164 A 
ATOM     22  C   UNL     1      -3.718  -3.762   0.455  0.00  0.00    +0.125 A 
ATOM     23  O   UNL     1      -3.103  -4.154  -0.693  0.00  0.00    -0.443 OA
ATOM     24  C   UNL     1      -3.991  -1.586   1.835  0.00  0.00    +0.250 A 
ATOM     25  N   UNL     1      -3.734  -0.299   2.016  0.00  0.00    -0.203 NA
ATOM     26  C   UNL     1      -4.324  -0.005   3.221  0.00  0.00    +0.164 A 
ATOM     27  C   UNL     1      -4.932  -1.125   3.728  0.00  0.00    +0.125 A 
ATOM     28  O   UNL     1      -4.732  -2.147   2.852  0.00  0.00    -0.442 OA
ATOM     29  C   UNL     1      -4.330   1.376   3.952  0.00  0.00    +0.249 A 
ATOM     30  N   UNL     1      -3.749   2.479   3.506  0.00  0.00    -0.212 NA
ATOM     31  C   UNL     1      -4.022   3.431   4.462  0.00  0.00    +0.083 A 
ATOM     32  C   UNL     1      -4.758   2.860   5.473  0.00  0.00    +0.116 A 
ATOM     33  O   UNL     1      -4.965   1.554   5.163  0.00  0.00    -0.442 OA
ATOM     34  H   UNL     1      -3.638   5.296   5.333  0.00  0.00    +0.037 HD
ATOM     35  H   UNL     1      -4.075   6.706   3.334  0.00  0.00    +0.035 HD
ATOM     36  H   UNL     1      -5.442   5.781   3.909  0.00  0.00    +0.035 HD
ATOM     37  H   UNL     1      -3.075   6.186   1.183  0.00  0.00    +0.034 HD
ATOM     38  H   UNL     1      -2.893   4.406   1.225  0.00  0.00    +0.034 HD
ATOM     39  H   UNL     1      -4.389   4.112  -0.630  0.00  0.00    +0.027 HD
ATOM     40  H   UNL     1      -4.973   5.766  -0.543  0.00  0.00    +0.027 HD
ATOM     41  H   UNL     1      -3.506   5.440  -2.452  0.00  0.00    +0.029 HD
ATOM     42  H   UNL     1      -2.872   6.665  -1.349  0.00  0.00    +0.029 HD
ATOM     43  H   UNL     1      -1.890   3.771  -1.239  0.00  0.00    +0.060 HD
ATOM     44  H   UNL     1      -0.447   6.060  -2.693  0.00  0.00    +0.040 HD
ATOM     45  H   UNL     1      -1.522   4.973  -3.582  0.00  0.00    +0.040 HD
ATOM     46  H   UNL     1       1.528   2.163  -3.722  0.00  0.00    +0.074 HD
ATOM     47  H   UNL     1       0.566  -0.200  -4.244  0.00  0.00    +0.036 HD
ATOM     48  H   UNL     1      -2.038   1.384  -3.820  0.00  0.00    +0.060 HD
ATOM     49  H   UNL     1      -2.911  -0.540  -2.694  0.00  0.00    +0.033 HD
ATOM     50  H   UNL     1      -1.391  -0.163  -1.927  0.00  0.00    +0.033 HD
ATOM     51  H   UNL     1      -0.753  -2.120  -3.977  0.00  0.00    +0.057 HD
ATOM     52  H   UNL     1      -1.408  -4.023  -2.725  0.00  0.00    +0.067 HD
ATOM     53  H   UNL     1      -4.231  -4.528   1.018  0.00  0.00    +0.105 HD
ATOM     54  H   UNL     1      -5.495  -1.352   4.620  0.00  0.00    +0.105 HD
ATOM     55  H   UNL     1      -5.196   3.210   6.393  0.00  0.00    +0.105 HD
ENDROOT
BRANCH   1  56
ATOM     56  C   UNL     1      -2.069   4.936   3.980  0.00  0.00    -0.056 C 
ATOM     57  H   UNL     1      -1.457   4.532   4.795  0.00  0.00    +0.024 HD
ATOM     58  H   UNL     1      -1.807   4.368   3.084  0.00  0.00    +0.024 HD
ATOM     59  H   UNL     1      -1.766   5.979   3.826  0.00  0.00    +0.024 HD
ENDBRANCH   1  56
BRANCH  14  60
ATOM     60  C   UNL     1       0.190   1.338  -5.659  0.00  0.00    -0.057 C 
ATOM     61  H   UNL     1      -0.100   0.626  -6.439  0.00  0.00    +0.023 HD
ATOM     62  H   UNL     1       1.240   1.587  -5.843  0.00  0.00    +0.023 HD
ATOM     63  H   UNL     1      -0.405   2.250  -5.786  0.00  0.00    +0.023 HD
ENDBRANCH  14  60
BRANCH  13  64
ATOM     64  C   UNL     1       1.113   1.193  -1.865  0.00  0.00    +0.011 C 
ATOM     65  H   UNL     1       1.151   2.033  -1.164  0.00  0.00    +0.033 HD
ATOM     66  H   UNL     1       0.387   0.497  -1.451  0.00  0.00    +0.033 HD
BRANCH  64  67
ATOM     67  C   UNL     1       2.496   0.518  -1.933  0.00  0.00    +0.064 C 
ATOM     68  H   UNL     1       3.143   1.118  -2.587  0.00  0.00    +0.060 HD
BRANCH  67  69
ATOM     69  C   UNL     1       3.196   0.398  -0.548  0.00  0.00    -0.017 C 
ATOM     70  H   UNL     1       4.092  -0.221  -0.675  0.00  0.00    +0.032 HD
BRANCH  69  71
ATOM     71  C   UNL     1       3.688   1.772  -0.068  0.00  0.00    -0.060 C 
ATOM     72  H   UNL     1       4.311   2.251  -0.831  0.00  0.00    +0.023 HD
ATOM     73  H   UNL     1       2.860   2.447   0.170  0.00  0.00    +0.023 HD
ATOM     74  H   UNL     1       4.299   1.668   0.836  0.00  0.00    +0.023 HD
ENDBRANCH  69  71
BRANCH  69  75
ATOM     75  C   UNL     1       2.358  -0.261   0.572  0.00  0.00    -0.041 C 
ATOM     76  H   UNL     1       1.423   0.290   0.734  0.00  0.00    +0.027 HD
ATOM     77  H   UNL     1       2.919  -0.172   1.512  0.00  0.00    +0.027 HD
BRANCH  75  78
ATOM     78  C   UNL     1       2.049  -1.739   0.326  0.00  0.00    +0.007 C 
ATOM     79  H   UNL     1       1.270  -1.836  -0.435  0.00  0.00    +0.034 HD
ATOM     80  H   UNL     1       2.956  -2.239  -0.025  0.00  0.00    +0.034 HD
BRANCH  78  81
ATOM     81  C   UNL     1       1.560  -2.452   1.582  0.00  0.00    +0.140 C 
ATOM     82  O   UNL     1       1.215  -1.832   2.593  0.00  0.00    -0.297 OA
BRANCH  81  83
ATOM     83  C   UNL     1       1.457  -3.976   1.570  0.00  0.00    +0.052 C 
ATOM     84  H   UNL     1       0.839  -4.237   2.438  0.00  0.00    +0.041 HD
BRANCH  83  85
ATOM     85  C   UNL     1       0.672  -4.450   0.345  0.00  0.00    -0.052 C 
ATOM     86  H   UNL     1      -0.286  -3.924   0.286  0.00  0.00    +0.024 HD
ATOM     87  H   UNL     1       1.208  -4.269  -0.591  0.00  0.00    +0.024 HD
ATOM     88  H   UNL     1       0.460  -5.521   0.411  0.00  0.00    +0.024 HD
ENDBRANCH  83  85
BRANCH  83  89
ATOM     89  C   UNL     1       2.800  -4.724   1.706  0.00  0.00    +0.118 C 
ATOM     90  H   UNL     1       2.527  -5.787   1.780  0.00  0.00    +0.075 HD
BRANCH  89  91
ATOM     91  C   UNL     1       3.671  -4.402   2.957  0.00  0.00    +0.014 C 
ATOM     92  H   UNL     1       4.454  -5.175   2.992  0.00  0.00    +0.038 HD
BRANCH  91  93
ATOM     93  C   UNL     1       2.881  -4.567   4.261  0.00  0.00    -0.056 C 
ATOM     94  H   UNL     1       2.092  -3.816   4.371  0.00  0.00    +0.024 HD
ATOM     95  H   UNL     1       3.543  -4.486   5.131  0.00  0.00    +0.024 HD
ATOM     96  H   UNL     1       2.410  -5.555   4.303  0.00  0.00    +0.024 HD
ENDBRANCH  91  93
BRANCH  91  97
ATOM     97  C   UNL     1       4.453  -3.106   2.836  0.00  0.00    -0.064 C 
ATOM     98  C   UNL     1       4.311  -1.997   3.573  0.00  0.00    -0.010 C 
ATOM     99  H   UNL     1       5.226  -3.120   2.070  0.00  0.00    +0.059 HD
ATOM    100  H   UNL     1       3.531  -1.954   4.333  0.00  0.00    +0.078 HD
BRANCH  98 101
ATOM    101  N   UNL     1       5.028  -0.813   3.497  0.00  0.00    -0.317 N 
BRANCH 101 102
ATOM    102  C   UNL     1       6.171  -0.628   2.607  0.00  0.00    +0.002 C 
ATOM    103  H   UNL     1       5.876  -0.782   1.563  0.00  0.00    +0.043 HD
ATOM    104  H   UNL     1       6.597   0.379   2.681  0.00  0.00    +0.043 HD
ATOM    105  H   UNL     1       6.968  -1.339   2.859  0.00  0.00    +0.043 HD
ENDBRANCH 101 102
BRANCH 101 106
ATOM    106  C   UNL     1       4.693   0.330   4.329  0.00  0.00    +0.110 C 
ATOM    107  H   UNL     1       3.620   0.366   4.553  0.00  0.00    +0.077 HD
ATOM    108  H   UNL     1       4.964   1.284   3.863  0.00  0.00    +0.077 HD
BRANCH 106 109
ATOM    109  O   UNL     1       5.411   0.185   5.534  0.00  0.00    -0.377 OA
ATOM    110  H   UNL     1       5.603  -0.770   5.536  0.00  0.00    +0.211 HD
ENDBRANCH 106 109
ENDBRANCH 101 106
ENDBRANCH  98 101
ENDBRANCH  91  97
ENDBRANCH  89  91
BRANCH  89 111
ATOM    111  O   UNL     1       3.572  -4.546   0.495  0.00  0.00    -0.460 OA
BRANCH 111 112
ATOM    112  C   UNL     1       4.376  -5.577   0.115  0.00  0.00    +0.304 C 
ATOM    113  O   UNL     1       4.492  -6.646   0.698  0.00  0.00    -0.251 OA
BRANCH 112 114
ATOM    114  C   UNL     1       5.123  -5.202  -1.128  0.00  0.00    +0.033 C 
ATOM    115  H   UNL     1       5.774  -4.349  -0.924  0.00  0.00    +0.034 HD
ATOM    116  H   UNL     1       4.417  -4.963  -1.926  0.00  0.00    +0.034 HD
ATOM    117  H   UNL     1       5.740  -6.045  -1.450  0.00  0.00    +0.034 HD
ENDBRANCH 112 114
ENDBRANCH 111 112
ENDBRANCH  89 111
ENDBRANCH  83  89
ENDBRANCH  81  83
ENDBRANCH  78  81
ENDBRANCH  75  78
ENDBRANCH  69  75
ENDBRANCH  67  69
BRANCH  67 118
ATOM    118  O   UNL     1       2.318  -0.778  -2.519  0.00  0.00    -0.379 OA
BRANCH 118 119
ATOM    119  C   UNL     1       3.447  -1.219  -3.266  0.00  0.00    +0.037 C 
ATOM    120  H   UNL     1       3.231  -2.221  -3.648  0.00  0.00    +0.052 HD
ATOM    121  H   UNL     1       3.621  -0.554  -4.119  0.00  0.00    +0.052 HD
ATOM    122  H   UNL     1       4.342  -1.274  -2.640  0.00  0.00    +0.052 HD
ENDBRANCH 118 119
ENDBRANCH  67 118
ENDBRANCH  64  67
ENDBRANCH  13  64
BRANCH   8 123
ATOM    123  O   UNL     1      -0.953   5.319  -0.289  0.00  0.00    -0.391 OA
ATOM    124  H   UNL     1      -0.746   6.260  -0.436  0.00  0.00    +0.210 HD
ENDBRANCH   8 123
BRANCH  15 125
ATOM    125  O   UNL     1      -2.075  -0.101  -5.243  0.00  0.00    -0.379 OA
BRANCH 125 126
ATOM    126  C   UNL     1      -3.492  -0.017  -5.327  0.00  0.00    +0.037 C 
ATOM    127  H   UNL     1      -3.835   1.008  -5.153  0.00  0.00    +0.052 HD
ATOM    128  H   UNL     1      -3.791  -0.313  -6.336  0.00  0.00    +0.052 HD
ATOM    129  H   UNL     1      -3.970  -0.702  -4.622  0.00  0.00    +0.052 HD
ENDBRANCH 125 126
ENDBRANCH  15 125
TORSDOF 27
