MODEL 1
REMARK VINA RESULT:      -5.3      0.000      0.000
REMARK  Name = 2a_conf1
REMARK  32 active torsions:
REMARK  status: ('A' for Active; 'I' for Inactive)
REMARK    1  A    between atoms: C_2  and  C_3
REMARK    2  A    between atoms: C_2  and  O_8
REMARK    3  A    between atoms: O_8  and  C_9
REMARK    4  A    between atoms: C_9  and  C_10
REMARK    5  A    between atoms: C_9  and  C_29
REMARK    6  A    between atoms: C_10  and  C_11
REMARK    7  A    between atoms: C_11  and  C_12
REMARK    8  A    between atoms: C_12  and  C_13
REMARK    9  A    between atoms: C_12  and  C_14
REMARK   10  A    between atoms: C_14  and  O_15
REMARK   11  A    between atoms: C_14  and  C_17
REMARK   12  A    between atoms: O_15  and  C_16
REMARK   13  A    between atoms: C_17  and  C_18
REMARK   14  A    between atoms: C_18  and  O_19
REMARK   15  A    between atoms: C_18  and  C_26
REMARK   16  A    between atoms: O_19  and  C_20
REMARK   17  A    between atoms: C_20  and  C_21
REMARK   18  A    between atoms: C_21  and  C_22
REMARK   19  A    between atoms: C_22  and  C_23
REMARK   20  A    between atoms: C_23  and  N_24
REMARK   21  A    between atoms: C_26  and  C_27
REMARK   22  A    between atoms: C_26  and  C_28
REMARK   23  A    between atoms: C_29  and  C_30
REMARK   24  A    between atoms: C_29  and  C_31
REMARK   25  A    between atoms: C_31  and  O_32
REMARK   26  A    between atoms: C_31  and  C_34
REMARK   27  A    between atoms: O_32  and  C_33
REMARK   28  A    between atoms: C_34  and  C_35
REMARK   29  A    between atoms: C_34  and  C_36
REMARK   30  A    between atoms: C_37  and  N_38
REMARK   31  A    between atoms: N_38  and  C_39
REMARK   32  A    between atoms: C_39  and  C_40
REMARK                            x       y       z     vdW  Elec       q    Type
REMARK                         _______ _______ _______ _____ _____    ______ ____
ROOT
ATOM      1  C   UNL     1     145.550 171.386 190.379  0.00  0.00    +0.108 C 
ATOM      2  H   UNL     1     145.354 171.656 191.424  0.00  0.00    +0.074 HD
ENDROOT
BRANCH   1   3
ATOM      3  C   UNL     1     145.788 169.865 190.326  0.00  0.00    -0.015 C 
ATOM      4  H   UNL     1     146.009 169.472 191.324  0.00  0.00    +0.030 HD
ATOM      5  H   UNL     1     144.879 169.380 189.967  0.00  0.00    +0.030 HD
BRANCH   3   6
ATOM      6  C   UNL     1     146.944 169.488 189.390  0.00  0.00    -0.045 C 
ATOM      7  H   UNL     1     146.556 169.051 188.464  0.00  0.00    +0.027 HD
ATOM      8  H   UNL     1     147.449 170.418 189.092  0.00  0.00    +0.027 HD
BRANCH   6   9
ATOM      9  C   UNL     1     147.990 168.547 190.035  0.00  0.00    -0.017 C 
ATOM     10  H   UNL     1     148.880 169.154 190.240  0.00  0.00    +0.032 HD
BRANCH   9  11
ATOM     11  C   UNL     1     148.417 167.489 189.004  0.00  0.00    -0.060 C 
ATOM     12  H   UNL     1     149.143 166.791 189.438  0.00  0.00    +0.023 HD
ATOM     13  H   UNL     1     147.564 166.913 188.631  0.00  0.00    +0.023 HD
ATOM     14  H   UNL     1     148.900 167.961 188.142  0.00  0.00    +0.023 HD
ENDBRANCH   9  11
BRANCH   9  15
ATOM     15  C   UNL     1     147.557 167.861 191.368  0.00  0.00    +0.064 C 
ATOM     16  H   UNL     1     146.552 168.222 191.615  0.00  0.00    +0.060 HD
BRANCH  15  17
ATOM     17  C   UNL     1     148.498 168.187 192.548  0.00  0.00    +0.011 C 
ATOM     18  H   UNL     1     149.076 169.084 192.289  0.00  0.00    +0.033 HD
ATOM     19  H   UNL     1     147.911 168.429 193.440  0.00  0.00    +0.033 HD
BRANCH  17  20
ATOM     20  C   UNL     1     149.511 167.081 192.932  0.00  0.00    +0.108 C 
ATOM     21  H   UNL     1     149.132 166.129 192.538  0.00  0.00    +0.074 HD
BRANCH  20  22
ATOM     22  C   UNL     1     150.940 167.282 192.366  0.00  0.00    -0.009 C 
ATOM     23  H   UNL     1     151.675 166.994 193.128  0.00  0.00    +0.033 HD
BRANCH  22  24
ATOM     24  C   UNL     1     151.185 166.357 191.164  0.00  0.00    -0.059 C 
ATOM     25  H   UNL     1     150.282 166.264 190.550  0.00  0.00    +0.023 HD
ATOM     26  H   UNL     1     151.474 165.353 191.493  0.00  0.00    +0.023 HD
ATOM     27  H   UNL     1     151.979 166.748 190.521  0.00  0.00    +0.023 HD
ENDBRANCH  22  24
BRANCH  22  28
ATOM     28  C   UNL     1     151.207 168.728 191.944  0.00  0.00    -0.059 C 
ATOM     29  H   UNL     1     152.100 168.794 191.309  0.00  0.00    +0.023 HD
ATOM     30  H   UNL     1     150.365 169.154 191.392  0.00  0.00    +0.023 HD
ATOM     31  H   UNL     1     151.368 169.365 192.822  0.00  0.00    +0.023 HD
ENDBRANCH  22  28
ENDBRANCH  20  22
BRANCH  20  32
ATOM     32  O   UNL     1     149.625 166.963 194.368  0.00  0.00    -0.461 OA
BRANCH  32  33
ATOM     33  C   UNL     1     148.864 166.004 194.964  0.00  0.00    +0.307 C 
ATOM     34  O   UNL     1     147.887 165.464 194.464  0.00  0.00    -0.251 OA
BRANCH  33  35
ATOM     35  C   UNL     1     149.400 165.710 196.345  0.00  0.00    +0.046 C 
ATOM     36  H   UNL     1     148.939 164.784 196.698  0.00  0.00    +0.038 HD
ATOM     37  H   UNL     1     149.107 166.528 197.013  0.00  0.00    +0.038 HD
BRANCH  35  38
ATOM     38  C   UNL     1     150.926 165.598 196.328  0.00  0.00    -0.031 C 
ATOM     39  H   UNL     1     151.356 166.413 195.731  0.00  0.00    +0.028 HD
ATOM     40  H   UNL     1     151.307 165.734 197.347  0.00  0.00    +0.028 HD
BRANCH  38  41
ATOM     41  C   UNL     1     151.417 164.252 195.797  0.00  0.00    -0.006 C 
ATOM     42  H   UNL     1     152.512 164.215 195.819  0.00  0.00    +0.042 HD
ATOM     43  H   UNL     1     151.104 164.134 194.752  0.00  0.00    +0.042 HD
BRANCH  41  44
ATOM     44  N   UNL     1     150.879 163.145 196.582  0.00  0.00    -0.330 NA
ATOM     45  H   UNL     1     150.623 162.383 195.952  0.00  0.00    +0.118 HD
ATOM     46  H   UNL     1     151.616 162.770 197.180  0.00  0.00    +0.118 HD
ENDBRANCH  41  44
ENDBRANCH  38  41
ENDBRANCH  35  38
ENDBRANCH  33  35
ENDBRANCH  32  33
ENDBRANCH  20  32
ENDBRANCH  17  20
ENDBRANCH  15  17
BRANCH  15  47
ATOM     47  O   UNL     1     147.501 166.435 191.235  0.00  0.00    -0.379 OA
BRANCH  47  48
ATOM     48  C   UNL     1     146.203 165.886 191.401  0.00  0.00    +0.037 C 
ATOM     49  H   UNL     1     146.240 164.794 191.387  0.00  0.00    +0.052 HD
ATOM     50  H   UNL     1     145.520 166.255 190.633  0.00  0.00    +0.052 HD
ATOM     51  H   UNL     1     145.826 166.201 192.379  0.00  0.00    +0.052 HD
ENDBRANCH  47  48
ENDBRANCH  15  47
ENDBRANCH   9  15
ENDBRANCH   6   9
ENDBRANCH   3   6
ENDBRANCH   1   3
BRANCH   1  52
ATOM     52  C   UNL     1     144.343 171.857 189.508  0.00  0.00    +0.020 C 
ATOM     53  H   UNL     1     143.938 170.956 189.029  0.00  0.00    +0.036 HD
BRANCH  52  54
ATOM     54  C   UNL     1     144.865 172.778 188.392  0.00  0.00    -0.057 C 
ATOM     55  H   UNL     1     145.585 172.248 187.756  0.00  0.00    +0.023 HD
ATOM     56  H   UNL     1     145.360 173.671 188.795  0.00  0.00    +0.023 HD
ATOM     57  H   UNL     1     144.055 173.111 187.737  0.00  0.00    +0.023 HD
ENDBRANCH  52  54
BRANCH  52  58
ATOM     58  C   UNL     1     143.180 172.502 190.329  0.00  0.00    +0.070 C 
ATOM     59  H   UNL     1     142.780 173.352 189.763  0.00  0.00    +0.061 HD
BRANCH  58  60
ATOM     60  C   UNL     1     141.981 171.540 190.609  0.00  0.00    +0.002 C 
ATOM     61  H   UNL     1     141.466 171.360 189.656  0.00  0.00    +0.037 HD
BRANCH  60  62
ATOM     62  C   UNL     1     142.414 170.213 191.207  0.00  0.00    -0.065 C 
ATOM     63  C   UNL     1     142.137 169.026 190.644  0.00  0.00    -0.005 C 
ATOM     64  H   UNL     1     142.966 170.283 192.142  0.00  0.00    +0.059 HD
ATOM     65  H   UNL     1     141.567 169.015 189.715  0.00  0.00    +0.078 HD
BRANCH  63  66
ATOM     66  N   UNL     1     142.495 167.779 191.133  0.00  0.00    -0.281 N 
ATOM     67  C   UNL     1     142.680 167.590 192.500  0.00  0.00    +0.206 C 
ATOM     68  O   UNL     1     143.035 166.556 193.053  0.00  0.00    -0.279 OA
ATOM     69  H   UNL     1     142.481 168.498 193.088  0.00  0.00    +0.126 HD
BRANCH  66  70
ATOM     70  C   UNL     1     142.736 166.629 190.263  0.00  0.00    +0.016 C 
ATOM     71  H   UNL     1     141.787 166.157 189.995  0.00  0.00    +0.047 HD
ATOM     72  H   UNL     1     143.301 165.870 190.819  0.00  0.00    +0.047 HD
BRANCH  70  73
ATOM     73  C   UNL     1     143.531 167.006 189.023  0.00  0.00    -0.049 C 
ATOM     74  H   UNL     1     142.958 167.672 188.368  0.00  0.00    +0.024 HD
ATOM     75  H   UNL     1     143.798 166.108 188.458  0.00  0.00    +0.024 HD
ATOM     76  H   UNL     1     144.452 167.529 189.297  0.00  0.00    +0.024 HD
ENDBRANCH  70  73
ENDBRANCH  66  70
ENDBRANCH  63  66
ENDBRANCH  60  62
BRANCH  60  77
ATOM     77  C   UNL     1     140.946 172.181 191.541  0.00  0.00    -0.057 C 
ATOM     78  H   UNL     1     139.946 172.204 191.094  0.00  0.00    +0.024 HD
ATOM     79  H   UNL     1     140.888 171.633 192.489  0.00  0.00    +0.024 HD
ATOM     80  H   UNL     1     141.224 173.216 191.776  0.00  0.00    +0.024 HD
ENDBRANCH  60  77
ENDBRANCH  58  60
BRANCH  58  81
ATOM     81  O   UNL     1     143.701 172.948 191.594  0.00  0.00    -0.379 OA
BRANCH  81  82
ATOM     82  C   UNL     1     143.734 174.361 191.741  0.00  0.00    +0.037 C 
ATOM     83  H   UNL     1     144.380 174.648 192.573  0.00  0.00    +0.052 HD
ATOM     84  H   UNL     1     144.070 174.845 190.820  0.00  0.00    +0.052 HD
ATOM     85  H   UNL     1     142.719 174.700 191.964  0.00  0.00    +0.052 HD
ENDBRANCH  81  82
ENDBRANCH  58  81
ENDBRANCH  52  58
ENDBRANCH   1  52
BRANCH   1  86
ATOM     86  O   UNL     1     146.773 172.021 189.951  0.00  0.00    -0.459 OA
BRANCH  86  88
ATOM     87  O   UNL     1     148.049 173.825 190.570  0.00  0.00    -0.248 OA
ATOM     88  C   UNL     1     147.389 172.833 190.855  0.00  0.00    +0.337 C 
BRANCH  88  89
ATOM     89  C   UNL     1     147.147 172.297 192.275  0.00  0.00    +0.155 C 
ATOM     90  O   UNL     1     146.719 173.328 193.183  0.00  0.00    -0.365 OA
ATOM     91  C   UNL     1     147.804 173.671 194.048  0.00  0.00    +0.049 C 
ATOM     92  C   UNL     1     149.030 172.939 193.545  0.00  0.00    -0.027 C 
ATOM     93  C   UNL     1     148.436 171.734 192.852  0.00  0.00    -0.014 C 
ATOM     94  H   UNL     1     146.351 171.544 192.224  0.00  0.00    +0.071 HD
ATOM     95  H   UNL     1     147.544 173.352 195.062  0.00  0.00    +0.056 HD
ATOM     96  H   UNL     1     147.941 174.756 194.050  0.00  0.00    +0.056 HD
ATOM     97  H   UNL     1     149.728 172.684 194.345  0.00  0.00    +0.029 HD
ATOM     98  H   UNL     1     149.566 173.560 192.817  0.00  0.00    +0.029 HD
ATOM     99  H   UNL     1     149.118 171.305 192.111  0.00  0.00    +0.030 HD
ATOM    100  H   UNL     1     148.202 170.961 193.599  0.00  0.00    +0.030 HD
ENDBRANCH  88  89
ENDBRANCH  86  88
ENDBRANCH   1  86
TORSDOF 32
ENDMDL
MODEL 2
REMARK VINA RESULT:      -5.2      3.835      7.881
REMARK  Name = 2a_conf1
REMARK  32 active torsions:
REMARK  status: ('A' for Active; 'I' for Inactive)
REMARK    1  A    between atoms: C_2  and  C_3
REMARK    2  A    between atoms: C_2  and  O_8
REMARK    3  A    between atoms: O_8  and  C_9
REMARK    4  A    between atoms: C_9  and  C_10
REMARK    5  A    between atoms: C_9  and  C_29
REMARK    6  A    between atoms: C_10  and  C_11
REMARK    7  A    between atoms: C_11  and  C_12
REMARK    8  A    between atoms: C_12  and  C_13
REMARK    9  A    between atoms: C_12  and  C_14
REMARK   10  A    between atoms: C_14  and  O_15
REMARK   11  A    between atoms: C_14  and  C_17
REMARK   12  A    between atoms: O_15  and  C_16
REMARK   13  A    between atoms: C_17  and  C_18
REMARK   14  A    between atoms: C_18  and  O_19
REMARK   15  A    between atoms: C_18  and  C_26
REMARK   16  A    between atoms: O_19  and  C_20
REMARK   17  A    between atoms: C_20  and  C_21
REMARK   18  A    between atoms: C_21  and  C_22
REMARK   19  A    between atoms: C_22  and  C_23
REMARK   20  A    between atoms: C_23  and  N_24
REMARK   21  A    between atoms: C_26  and  C_27
REMARK   22  A    between atoms: C_26  and  C_28
REMARK   23  A    between atoms: C_29  and  C_30
REMARK   24  A    between atoms: C_29  and  C_31
REMARK   25  A    between atoms: C_31  and  O_32
REMARK   26  A    between atoms: C_31  and  C_34
REMARK   27  A    between atoms: O_32  and  C_33
REMARK   28  A    between atoms: C_34  and  C_35
REMARK   29  A    between atoms: C_34  and  C_36
REMARK   30  A    between atoms: C_37  and  N_38
REMARK   31  A    between atoms: N_38  and  C_39
REMARK   32  A    between atoms: C_39  and  C_40
REMARK                            x       y       z     vdW  Elec       q    Type
REMARK                         _______ _______ _______ _____ _____    ______ ____
ROOT
ATOM      1  C   UNL     1     149.993 165.648 191.086  0.00  0.00    +0.108 C 
ATOM      2  H   UNL     1     149.506 164.700 190.827  0.00  0.00    +0.074 HD
ENDROOT
BRANCH   1   3
ATOM      3  C   UNL     1     150.998 165.978 189.966  0.00  0.00    -0.015 C 
ATOM      4  H   UNL     1     150.942 165.235 189.164  0.00  0.00    +0.030 HD
ATOM      5  H   UNL     1     150.743 166.950 189.541  0.00  0.00    +0.030 HD
BRANCH   3   6
ATOM      6  C   UNL     1     152.444 166.033 190.478  0.00  0.00    -0.045 C 
ATOM      7  H   UNL     1     152.737 167.068 190.679  0.00  0.00    +0.027 HD
ATOM      8  H   UNL     1     152.473 165.520 191.449  0.00  0.00    +0.027 HD
BRANCH   6   9
ATOM      9  C   UNL     1     153.467 165.355 189.534  0.00  0.00    -0.017 C 
ATOM     10  H   UNL     1     153.965 164.570 190.116  0.00  0.00    +0.032 HD
BRANCH   9  11
ATOM     11  C   UNL     1     154.557 166.373 189.162  0.00  0.00    -0.060 C 
ATOM     12  H   UNL     1     154.929 166.195 188.146  0.00  0.00    +0.023 HD
ATOM     13  H   UNL     1     154.192 167.404 189.219  0.00  0.00    +0.023 HD
ATOM     14  H   UNL     1     155.415 166.289 189.838  0.00  0.00    +0.023 HD
ENDBRANCH   9  11
BRANCH   9  15
ATOM     15  C   UNL     1     152.875 164.700 188.248  0.00  0.00    +0.064 C 
ATOM     16  H   UNL     1     151.783 164.725 188.335  0.00  0.00    +0.060 HD
BRANCH  15  17
ATOM     17  C   UNL     1     153.318 163.232 188.060  0.00  0.00    +0.011 C 
ATOM     18  H   UNL     1     153.517 163.067 186.993  0.00  0.00    +0.033 HD
ATOM     19  H   UNL     1     154.258 163.054 188.593  0.00  0.00    +0.033 HD
BRANCH  17  20
ATOM     20  C   UNL     1     152.303 162.155 188.513  0.00  0.00    +0.108 C 
ATOM     21  H   UNL     1     152.273 161.377 187.739  0.00  0.00    +0.074 HD
BRANCH  20  22
ATOM     22  C   UNL     1     152.646 161.460 189.856  0.00  0.00    -0.009 C 
ATOM     23  H   UNL     1     153.736 161.402 189.964  0.00  0.00    +0.033 HD
BRANCH  22  24
ATOM     24  C   UNL     1     152.141 162.290 191.044  0.00  0.00    -0.059 C 
ATOM     25  H   UNL     1     152.392 163.349 190.918  0.00  0.00    +0.023 HD
ATOM     26  H   UNL     1     152.590 161.947 191.983  0.00  0.00    +0.023 HD
ATOM     27  H   UNL     1     151.053 162.220 191.140  0.00  0.00    +0.023 HD
ENDBRANCH  22  24
BRANCH  22  28
ATOM     28  C   UNL     1     152.066 160.048 189.951  0.00  0.00    -0.059 C 
ATOM     29  H   UNL     1     151.795 159.665 188.959  0.00  0.00    +0.023 HD
ATOM     30  H   UNL     1     152.772 159.346 190.405  0.00  0.00    +0.023 HD
ATOM     31  H   UNL     1     151.164 160.040 190.574  0.00  0.00    +0.023 HD
ENDBRANCH  22  28
ENDBRANCH  20  22
BRANCH  20  32
ATOM     32  O   UNL     1     150.978 162.717 188.640  0.00  0.00    -0.461 OA
BRANCH  32  33
ATOM     33  C   UNL     1     150.044 162.287 187.747  0.00  0.00    +0.307 C 
ATOM     34  O   UNL     1     150.280 161.881 186.617  0.00  0.00    -0.251 OA
BRANCH  33  35
ATOM     35  C   UNL     1     148.666 162.393 188.355  0.00  0.00    +0.046 C 
ATOM     36  H   UNL     1     148.075 161.542 188.008  0.00  0.00    +0.038 HD
ATOM     37  H   UNL     1     148.199 163.318 187.998  0.00  0.00    +0.038 HD
BRANCH  35  38
ATOM     38  C   UNL     1     148.743 162.427 189.883  0.00  0.00    -0.031 C 
ATOM     39  H   UNL     1     149.763 162.683 190.203  0.00  0.00    +0.028 HD
ATOM     40  H   UNL     1     148.098 163.232 190.256  0.00  0.00    +0.028 HD
BRANCH  38  41
ATOM     41  C   UNL     1     148.312 161.113 190.530  0.00  0.00    -0.006 C 
ATOM     42  H   UNL     1     148.634 160.266 189.915  0.00  0.00    +0.042 HD
ATOM     43  H   UNL     1     147.217 161.077 190.593  0.00  0.00    +0.042 HD
BRANCH  41  44
ATOM     44  N   UNL     1     148.869 160.976 191.873  0.00  0.00    -0.330 NA
ATOM     45  H   UNL     1     148.114 161.053 192.556  0.00  0.00    +0.118 HD
ATOM     46  H   UNL     1     149.244 160.033 191.984  0.00  0.00    +0.118 HD
ENDBRANCH  41  44
ENDBRANCH  38  41
ENDBRANCH  35  38
ENDBRANCH  33  35
ENDBRANCH  32  33
ENDBRANCH  20  32
ENDBRANCH  17  20
ENDBRANCH  15  17
BRANCH  15  47
ATOM     47  O   UNL     1     153.248 165.423 187.067  0.00  0.00    -0.379 OA
BRANCH  47  48
ATOM     48  C   UNL     1     153.521 164.598 185.944  0.00  0.00    +0.037 C 
ATOM     49  H   UNL     1     154.210 163.794 186.215  0.00  0.00    +0.052 HD
ATOM     50  H   UNL     1     153.925 165.185 185.117  0.00  0.00    +0.052 HD
ATOM     51  H   UNL     1     152.580 164.145 185.621  0.00  0.00    +0.052 HD
ENDBRANCH  47  48
ENDBRANCH  15  47
ENDBRANCH   9  15
ENDBRANCH   6   9
ENDBRANCH   3   6
ENDBRANCH   1   3
BRANCH   1  52
ATOM     52  C   UNL     1     148.892 166.739 191.275  0.00  0.00    +0.020 C 
ATOM     53  H   UNL     1     148.006 166.219 191.663  0.00  0.00    +0.036 HD
BRANCH  52  54
ATOM     54  C   UNL     1     148.522 167.316 189.897  0.00  0.00    -0.057 C 
ATOM     55  H   UNL     1     149.339 167.164 189.181  0.00  0.00    +0.023 HD
ATOM     56  H   UNL     1     148.310 168.391 189.947  0.00  0.00    +0.023 HD
ATOM     57  H   UNL     1     147.643 166.819 189.479  0.00  0.00    +0.023 HD
ENDBRANCH  52  54
BRANCH  52  58
ATOM     58  C   UNL     1     149.265 167.846 192.313  0.00  0.00    +0.070 C 
ATOM     59  H   UNL     1     150.043 167.454 192.980  0.00  0.00    +0.061 HD
BRANCH  58  60
ATOM     60  C   UNL     1     149.830 169.157 191.679  0.00  0.00    +0.002 C 
ATOM     61  H   UNL     1     149.888 169.007 190.593  0.00  0.00    +0.037 HD
BRANCH  60  62
ATOM     62  C   UNL     1     148.972 170.375 191.973  0.00  0.00    -0.065 C 
ATOM     63  C   UNL     1     149.481 171.574 192.296  0.00  0.00    -0.005 C 
ATOM     64  H   UNL     1     147.897 170.212 191.913  0.00  0.00    +0.059 HD
ATOM     65  H   UNL     1     150.565 171.676 192.357  0.00  0.00    +0.078 HD
BRANCH  63  66
ATOM     66  N   UNL     1     148.762 172.725 192.582  0.00  0.00    -0.281 N 
ATOM     67  C   UNL     1     148.247 172.929 193.859  0.00  0.00    +0.206 C 
ATOM     68  O   UNL     1     147.563 173.877 194.228  0.00  0.00    -0.279 OA
ATOM     69  H   UNL     1     148.507 172.123 194.559  0.00  0.00    +0.126 HD
BRANCH  66  70
ATOM     70  C   UNL     1     148.469 173.743 191.574  0.00  0.00    +0.016 C 
ATOM     71  H   UNL     1     149.354 173.923 190.956  0.00  0.00    +0.047 HD
ATOM     72  H   UNL     1     148.258 174.696 192.076  0.00  0.00    +0.047 HD
BRANCH  70  73
ATOM     73  C   UNL     1     147.268 173.375 190.719  0.00  0.00    -0.049 C 
ATOM     74  H   UNL     1     147.390 173.723 189.686  0.00  0.00    +0.024 HD
ATOM     75  H   UNL     1     146.359 173.823 191.131  0.00  0.00    +0.024 HD
ATOM     76  H   UNL     1     147.134 172.289 190.685  0.00  0.00    +0.024 HD
ENDBRANCH  70  73
ENDBRANCH  66  70
ENDBRANCH  63  66
ENDBRANCH  60  62
BRANCH  60  77
ATOM     77  C   UNL     1     151.261 169.443 192.150  0.00  0.00    -0.057 C 
ATOM     78  H   UNL     1     151.290 170.190 192.951  0.00  0.00    +0.024 HD
ATOM     79  H   UNL     1     151.738 168.526 192.515  0.00  0.00    +0.024 HD
ATOM     80  H   UNL     1     151.873 169.824 191.323  0.00  0.00    +0.024 HD
ENDBRANCH  60  77
ENDBRANCH  58  60
BRANCH  58  81
ATOM     81  O   UNL     1     148.088 168.185 193.068  0.00  0.00    -0.379 OA
BRANCH  81  82
ATOM     82  C   UNL     1     147.496 167.084 193.744  0.00  0.00    +0.037 C 
ATOM     83  H   UNL     1     146.798 166.559 193.091  0.00  0.00    +0.052 HD
ATOM     84  H   UNL     1     148.259 166.392 194.113  0.00  0.00    +0.052 HD
ATOM     85  H   UNL     1     146.937 167.475 194.598  0.00  0.00    +0.052 HD
ENDBRANCH  81  82
ENDBRANCH  58  81
ENDBRANCH  52  58
ENDBRANCH   1  52
BRANCH   1  86
ATOM     86  O   UNL     1     150.754 165.469 192.298  0.00  0.00    -0.459 OA
BRANCH  86  88
ATOM     87  O   UNL     1     149.283 163.864 193.021  0.00  0.00    -0.248 OA
ATOM     88  C   UNL     1     150.286 164.546 193.184  0.00  0.00    +0.337 C 
BRANCH  88  89
ATOM     89  C   UNL     1     151.197 164.516 194.422  0.00  0.00    +0.155 C 
ATOM     90  O   UNL     1     150.532 163.973 195.577  0.00  0.00    -0.365 OA
ATOM     91  C   UNL     1     150.207 165.039 196.475  0.00  0.00    +0.049 C 
ATOM     92  C   UNL     1     150.530 166.337 195.767  0.00  0.00    -0.027 C 
ATOM     93  C   UNL     1     151.617 165.928 194.800  0.00  0.00    -0.014 C 
ATOM     94  H   UNL     1     152.056 163.873 194.198  0.00  0.00    +0.071 HD
ATOM     95  H   UNL     1     150.815 164.919 197.376  0.00  0.00    +0.056 HD
ATOM     96  H   UNL     1     149.152 164.970 196.754  0.00  0.00    +0.056 HD
ATOM     97  H   UNL     1     150.832 167.130 196.456  0.00  0.00    +0.029 HD
ATOM     98  H   UNL     1     149.653 166.692 195.213  0.00  0.00    +0.029 HD
ATOM     99  H   UNL     1     151.702 166.619 193.957  0.00  0.00    +0.030 HD
ATOM    100  H   UNL     1     152.583 165.899 195.327  0.00  0.00    +0.030 HD
ENDBRANCH  88  89
ENDBRANCH  86  88
ENDBRANCH   1  86
TORSDOF 32
ENDMDL
MODEL 3
REMARK VINA RESULT:      -5.2      1.606      2.376
REMARK  Name = 2a_conf1
REMARK  32 active torsions:
REMARK  status: ('A' for Active; 'I' for Inactive)
REMARK    1  A    between atoms: C_2  and  C_3
REMARK    2  A    between atoms: C_2  and  O_8
REMARK    3  A    between atoms: O_8  and  C_9
REMARK    4  A    between atoms: C_9  and  C_10
REMARK    5  A    between atoms: C_9  and  C_29
REMARK    6  A    between atoms: C_10  and  C_11
REMARK    7  A    between atoms: C_11  and  C_12
REMARK    8  A    between atoms: C_12  and  C_13
REMARK    9  A    between atoms: C_12  and  C_14
REMARK   10  A    between atoms: C_14  and  O_15
REMARK   11  A    between atoms: C_14  and  C_17
REMARK   12  A    between atoms: O_15  and  C_16
REMARK   13  A    between atoms: C_17  and  C_18
REMARK   14  A    between atoms: C_18  and  O_19
REMARK   15  A    between atoms: C_18  and  C_26
REMARK   16  A    between atoms: O_19  and  C_20
REMARK   17  A    between atoms: C_20  and  C_21
REMARK   18  A    between atoms: C_21  and  C_22
REMARK   19  A    between atoms: C_22  and  C_23
REMARK   20  A    between atoms: C_23  and  N_24
REMARK   21  A    between atoms: C_26  and  C_27
REMARK   22  A    between atoms: C_26  and  C_28
REMARK   23  A    between atoms: C_29  and  C_30
REMARK   24  A    between atoms: C_29  and  C_31
REMARK   25  A    between atoms: C_31  and  O_32
REMARK   26  A    between atoms: C_31  and  C_34
REMARK   27  A    between atoms: O_32  and  C_33
REMARK   28  A    between atoms: C_34  and  C_35
REMARK   29  A    between atoms: C_34  and  C_36
REMARK   30  A    between atoms: C_37  and  N_38
REMARK   31  A    between atoms: N_38  and  C_39
REMARK   32  A    between atoms: C_39  and  C_40
REMARK                            x       y       z     vdW  Elec       q    Type
REMARK                         _______ _______ _______ _____ _____    ______ ____
ROOT
ATOM      1  C   UNL     1     146.219 170.577 190.420  0.00  0.00    +0.108 C 
ATOM      2  H   UNL     1     145.753 170.888 191.363  0.00  0.00    +0.074 HD
ENDROOT
BRANCH   1   3
ATOM      3  C   UNL     1     146.710 169.127 190.597  0.00  0.00    -0.015 C 
ATOM      4  H   UNL     1     146.414 168.735 191.575  0.00  0.00    +0.030 HD
ATOM      5  H   UNL     1     146.245 168.503 189.831  0.00  0.00    +0.030 HD
BRANCH   3   6
ATOM      6  C   UNL     1     148.233 169.007 190.465  0.00  0.00    -0.045 C 
ATOM      7  H   UNL     1     148.546 169.229 189.440  0.00  0.00    +0.027 HD
ATOM      8  H   UNL     1     148.685 169.791 191.090  0.00  0.00    +0.027 HD
BRANCH   6   9
ATOM      9  C   UNL     1     148.794 167.636 190.916  0.00  0.00    -0.017 C 
ATOM     10  H   UNL     1     148.766 167.627 192.012  0.00  0.00    +0.032 HD
BRANCH   9  11
ATOM     11  C   UNL     1     150.277 167.546 190.521  0.00  0.00    -0.060 C 
ATOM     12  H   UNL     1     150.911 167.416 191.406  0.00  0.00    +0.023 HD
ATOM     13  H   UNL     1     150.468 166.715 189.834  0.00  0.00    +0.023 HD
ATOM     14  H   UNL     1     150.603 168.467 190.025  0.00  0.00    +0.023 HD
ENDBRANCH   9  11
BRANCH   9  15
ATOM     15  C   UNL     1     148.019 166.383 190.403  0.00  0.00    +0.064 C 
ATOM     16  H   UNL     1     147.101 166.736 189.921  0.00  0.00    +0.060 HD
BRANCH  15  17
ATOM     17  C   UNL     1     147.635 165.406 191.535  0.00  0.00    +0.011 C 
ATOM     18  H   UNL     1     146.543 165.423 191.648  0.00  0.00    +0.033 HD
ATOM     19  H   UNL     1     147.913 164.384 191.258  0.00  0.00    +0.033 HD
BRANCH  17  20
ATOM     20  C   UNL     1     148.247 165.704 192.925  0.00  0.00    +0.108 C 
ATOM     21  H   UNL     1     148.892 166.588 192.824  0.00  0.00    +0.074 HD
BRANCH  20  22
ATOM     22  C   UNL     1     147.214 166.009 194.040  0.00  0.00    -0.009 C 
ATOM     23  H   UNL     1     147.202 165.181 194.759  0.00  0.00    +0.033 HD
BRANCH  22  24
ATOM     24  C   UNL     1     147.622 167.259 194.834  0.00  0.00    -0.059 C 
ATOM     25  H   UNL     1     147.979 166.989 195.835  0.00  0.00    +0.023 HD
ATOM     26  H   UNL     1     146.775 167.943 194.953  0.00  0.00    +0.023 HD
ATOM     27  H   UNL     1     148.430 167.798 194.332  0.00  0.00    +0.023 HD
ENDBRANCH  22  24
BRANCH  22  28
ATOM     28  C   UNL     1     145.800 166.206 193.492  0.00  0.00    -0.059 C 
ATOM     29  H   UNL     1     145.186 166.794 194.187  0.00  0.00    +0.023 HD
ATOM     30  H   UNL     1     145.804 166.719 192.526  0.00  0.00    +0.023 HD
ATOM     31  H   UNL     1     145.305 165.241 193.338  0.00  0.00    +0.023 HD
ENDBRANCH  22  28
ENDBRANCH  20  22
BRANCH  20  32
ATOM     32  O   UNL     1     149.062 164.600 193.377  0.00  0.00    -0.461 OA
BRANCH  32  33
ATOM     33  C   UNL     1     150.388 164.655 193.073  0.00  0.00    +0.307 C 
ATOM     34  O   UNL     1     150.907 164.165 192.078  0.00  0.00    -0.251 OA
BRANCH  33  35
ATOM     35  C   UNL     1     151.131 165.405 194.152  0.00  0.00    +0.046 C 
ATOM     36  H   UNL     1     151.118 166.468 193.897  0.00  0.00    +0.038 HD
ATOM     37  H   UNL     1     152.170 165.057 194.165  0.00  0.00    +0.038 HD
BRANCH  35  38
ATOM     38  C   UNL     1     150.501 165.157 195.524  0.00  0.00    -0.031 C 
ATOM     39  H   UNL     1     150.282 166.115 196.016  0.00  0.00    +0.028 HD
ATOM     40  H   UNL     1     149.533 164.659 195.389  0.00  0.00    +0.028 HD
BRANCH  38  41
ATOM     41  C   UNL     1     151.374 164.295 196.433  0.00  0.00    -0.006 C 
ATOM     42  H   UNL     1     151.466 164.760 197.420  0.00  0.00    +0.042 HD
ATOM     43  H   UNL     1     152.384 164.221 196.009  0.00  0.00    +0.042 HD
BRANCH  41  44
ATOM     44  N   UNL     1     150.822 162.952 196.580  0.00  0.00    -0.330 NA
ATOM     45  H   UNL     1     151.582 162.297 196.771  0.00  0.00    +0.118 HD
ATOM     46  H   UNL     1     150.224 162.925 197.407  0.00  0.00    +0.118 HD
ENDBRANCH  41  44
ENDBRANCH  38  41
ENDBRANCH  35  38
ENDBRANCH  33  35
ENDBRANCH  32  33
ENDBRANCH  20  32
ENDBRANCH  17  20
ENDBRANCH  15  17
BRANCH  15  47
ATOM     47  O   UNL     1     148.782 165.651 189.434  0.00  0.00    -0.379 OA
BRANCH  47  48
ATOM     48  C   UNL     1     148.565 164.249 189.465  0.00  0.00    +0.037 C 
ATOM     49  H   UNL     1     148.854 163.834 190.435  0.00  0.00    +0.052 HD
ATOM     50  H   UNL     1     149.107 163.750 188.659  0.00  0.00    +0.052 HD
ATOM     51  H   UNL     1     147.495 164.069 189.325  0.00  0.00    +0.052 HD
ENDBRANCH  47  48
ENDBRANCH  15  47
ENDBRANCH   9  15
ENDBRANCH   6   9
ENDBRANCH   3   6
ENDBRANCH   1   3
BRANCH   1  52
ATOM     52  C   UNL     1     145.176 170.744 189.270  0.00  0.00    +0.020 C 
ATOM     53  H   UNL     1     144.858 169.730 188.991  0.00  0.00    +0.036 HD
BRANCH  52  54
ATOM     54  C   UNL     1     145.878 171.360 188.047  0.00  0.00    -0.057 C 
ATOM     55  H   UNL     1     145.794 170.697 187.177  0.00  0.00    +0.023 HD
ATOM     56  H   UNL     1     146.944 171.540 188.235  0.00  0.00    +0.023 HD
ATOM     57  H   UNL     1     145.422 172.311 187.761  0.00  0.00    +0.023 HD
ENDBRANCH  52  54
BRANCH  52  58
ATOM     58  C   UNL     1     143.891 171.529 189.686  0.00  0.00    +0.070 C 
ATOM     59  H   UNL     1     143.599 172.189 188.860  0.00  0.00    +0.061 HD
BRANCH  58  60
ATOM     60  C   UNL     1     142.657 170.622 189.999  0.00  0.00    +0.002 C 
ATOM     61  H   UNL     1     141.865 170.874 189.283  0.00  0.00    +0.037 HD
BRANCH  60  62
ATOM     62  C   UNL     1     142.973 169.140 189.901  0.00  0.00    -0.065 C 
ATOM     63  C   UNL     1     142.896 168.299 190.945  0.00  0.00    -0.005 C 
ATOM     64  H   UNL     1     143.278 168.794 188.915  0.00  0.00    +0.059 HD
ATOM     65  H   UNL     1     142.599 168.704 191.913  0.00  0.00    +0.078 HD
BRANCH  63  66
ATOM     66  N   UNL     1     143.172 166.940 190.931  0.00  0.00    -0.281 N 
ATOM     67  C   UNL     1     144.133 166.431 190.064  0.00  0.00    +0.206 C 
ATOM     68  O   UNL     1     144.440 165.252 189.924  0.00  0.00    -0.279 OA
ATOM     69  H   UNL     1     144.626 167.210 189.465  0.00  0.00    +0.126 HD
BRANCH  66  70
ATOM     70  C   UNL     1     142.456 165.981 191.772  0.00  0.00    +0.016 C 
ATOM     71  H   UNL     1     143.123 165.160 192.052  0.00  0.00    +0.047 HD
ATOM     72  H   UNL     1     141.648 165.524 191.187  0.00  0.00    +0.047 HD
BRANCH  70  73
ATOM     73  C   UNL     1     141.848 166.638 193.000  0.00  0.00    -0.049 C 
ATOM     74  H   UNL     1     142.548 167.341 193.465  0.00  0.00    +0.024 HD
ATOM     75  H   UNL     1     141.577 165.877 193.739  0.00  0.00    +0.024 HD
ATOM     76  H   UNL     1     140.947 167.199 192.734  0.00  0.00    +0.024 HD
ENDBRANCH  70  73
ENDBRANCH  66  70
ENDBRANCH  63  66
ENDBRANCH  60  62
BRANCH  60  77
ATOM     77  C   UNL     1     142.083 170.908 191.392  0.00  0.00    -0.057 C 
ATOM     78  H   UNL     1     142.008 171.982 191.594  0.00  0.00    +0.024 HD
ATOM     79  H   UNL     1     141.086 170.466 191.497  0.00  0.00    +0.024 HD
ATOM     80  H   UNL     1     142.719 170.471 192.171  0.00  0.00    +0.024 HD
ENDBRANCH  60  77
ENDBRANCH  58  60
BRANCH  58  81
ATOM     81  O   UNL     1     144.185 172.305 190.862  0.00  0.00    -0.379 OA
BRANCH  81  82
ATOM     82  C   UNL     1     144.153 173.710 190.651  0.00  0.00    +0.037 C 
ATOM     83  H   UNL     1     143.473 173.964 189.836  0.00  0.00    +0.052 HD
ATOM     84  H   UNL     1     143.860 174.238 191.562  0.00  0.00    +0.052 HD
ATOM     85  H   UNL     1     145.159 174.030 190.369  0.00  0.00    +0.052 HD
ENDBRANCH  81  82
ENDBRANCH  58  81
ENDBRANCH  52  58
ENDBRANCH   1  52
BRANCH   1  86
ATOM     86  O   UNL     1     147.385 171.392 190.180  0.00  0.00    -0.459 OA
BRANCH  86  88
ATOM     87  O   UNL     1     147.795 173.625 190.513  0.00  0.00    -0.248 OA
ATOM     88  C   UNL     1     147.515 172.513 190.943  0.00  0.00    +0.337 C 
BRANCH  88  89
ATOM     89  C   UNL     1     147.278 172.159 192.420  0.00  0.00    +0.155 C 
ATOM     90  O   UNL     1     146.811 173.285 193.184  0.00  0.00    -0.365 OA
ATOM     91  C   UNL     1     147.879 173.772 194.002  0.00  0.00    +0.049 C 
ATOM     92  C   UNL     1     149.130 173.020 193.602  0.00  0.00    -0.027 C 
ATOM     93  C   UNL     1     148.580 171.716 193.070  0.00  0.00    -0.014 C 
ATOM     94  H   UNL     1     146.506 171.380 192.465  0.00  0.00    +0.071 HD
ATOM     95  H   UNL     1     147.621 173.578 195.047  0.00  0.00    +0.056 HD
ATOM     96  H   UNL     1     147.982 174.851 193.863  0.00  0.00    +0.056 HD
ATOM     97  H   UNL     1     149.831 172.893 194.431  0.00  0.00    +0.029 HD
ATOM     98  H   UNL     1     149.653 173.557 192.802  0.00  0.00    +0.029 HD
ATOM     99  H   UNL     1     149.280 171.217 192.393  0.00  0.00    +0.030 HD
ATOM    100  H   UNL     1     148.363 171.040 193.910  0.00  0.00    +0.030 HD
ENDBRANCH  88  89
ENDBRANCH  86  88
ENDBRANCH   1  86
TORSDOF 32
ENDMDL
MODEL 4
REMARK VINA RESULT:      -5.2      4.446      8.469
REMARK  Name = 2a_conf1
REMARK  32 active torsions:
REMARK  status: ('A' for Active; 'I' for Inactive)
REMARK    1  A    between atoms: C_2  and  C_3
REMARK    2  A    between atoms: C_2  and  O_8
REMARK    3  A    between atoms: O_8  and  C_9
REMARK    4  A    between atoms: C_9  and  C_10
REMARK    5  A    between atoms: C_9  and  C_29
REMARK    6  A    between atoms: C_10  and  C_11
REMARK    7  A    between atoms: C_11  and  C_12
REMARK    8  A    between atoms: C_12  and  C_13
REMARK    9  A    between atoms: C_12  and  C_14
REMARK   10  A    between atoms: C_14  and  O_15
REMARK   11  A    between atoms: C_14  and  C_17
REMARK   12  A    between atoms: O_15  and  C_16
REMARK   13  A    between atoms: C_17  and  C_18
REMARK   14  A    between atoms: C_18  and  O_19
REMARK   15  A    between atoms: C_18  and  C_26
REMARK   16  A    between atoms: O_19  and  C_20
REMARK   17  A    between atoms: C_20  and  C_21
REMARK   18  A    between atoms: C_21  and  C_22
REMARK   19  A    between atoms: C_22  and  C_23
REMARK   20  A    between atoms: C_23  and  N_24
REMARK   21  A    between atoms: C_26  and  C_27
REMARK   22  A    between atoms: C_26  and  C_28
REMARK   23  A    between atoms: C_29  and  C_30
REMARK   24  A    between atoms: C_29  and  C_31
REMARK   25  A    between atoms: C_31  and  O_32
REMARK   26  A    between atoms: C_31  and  C_34
REMARK   27  A    between atoms: O_32  and  C_33
REMARK   28  A    between atoms: C_34  and  C_35
REMARK   29  A    between atoms: C_34  and  C_36
REMARK   30  A    between atoms: C_37  and  N_38
REMARK   31  A    between atoms: N_38  and  C_39
REMARK   32  A    between atoms: C_39  and  C_40
REMARK                            x       y       z     vdW  Elec       q    Type
REMARK                         _______ _______ _______ _____ _____    ______ ____
ROOT
ATOM      1  C   UNL     1     149.825 165.606 191.176  0.00  0.00    +0.108 C 
ATOM      2  H   UNL     1     149.255 164.679 191.034  0.00  0.00    +0.074 HD
ENDROOT
BRANCH   1   3
ATOM      3  C   UNL     1     150.858 165.697 190.036  0.00  0.00    -0.015 C 
ATOM      4  H   UNL     1     150.933 164.743 189.504  0.00  0.00    +0.030 HD
ATOM      5  H   UNL     1     150.527 166.454 189.323  0.00  0.00    +0.030 HD
BRANCH   3   6
ATOM      6  C   UNL     1     152.254 166.082 190.543  0.00  0.00    -0.045 C 
ATOM      7  H   UNL     1     152.175 166.690 191.450  0.00  0.00    +0.027 HD
ATOM      8  H   UNL     1     152.764 165.157 190.848  0.00  0.00    +0.027 HD
BRANCH   6   9
ATOM      9  C   UNL     1     153.128 166.799 189.486  0.00  0.00    -0.017 C 
ATOM     10  H   UNL     1     153.614 167.641 189.994  0.00  0.00    +0.032 HD
BRANCH   9  11
ATOM     11  C   UNL     1     152.215 167.412 188.412  0.00  0.00    -0.060 C 
ATOM     12  H   UNL     1     151.594 166.642 187.940  0.00  0.00    +0.023 HD
ATOM     13  H   UNL     1     151.555 168.182 188.826  0.00  0.00    +0.023 HD
ATOM     14  H   UNL     1     152.809 167.878 187.617  0.00  0.00    +0.023 HD
ENDBRANCH   9  11
BRANCH   9  15
ATOM     15  C   UNL     1     154.240 165.930 188.821  0.00  0.00    +0.064 C 
ATOM     16  H   UNL     1     154.085 165.966 187.737  0.00  0.00    +0.060 HD
BRANCH  15  17
ATOM     17  C   UNL     1     154.202 164.453 189.272  0.00  0.00    +0.011 C 
ATOM     18  H   UNL     1     155.232 164.127 189.468  0.00  0.00    +0.033 HD
ATOM     19  H   UNL     1     153.653 164.364 190.215  0.00  0.00    +0.033 HD
BRANCH  17  20
ATOM     20  C   UNL     1     153.585 163.452 188.266  0.00  0.00    +0.108 C 
ATOM     21  H   UNL     1     154.410 162.960 187.735  0.00  0.00    +0.074 HD
BRANCH  20  22
ATOM     22  C   UNL     1     152.715 162.339 188.905  0.00  0.00    -0.009 C 
ATOM     23  H   UNL     1     151.683 162.437 188.547  0.00  0.00    +0.033 HD
BRANCH  22  24
ATOM     24  C   UNL     1     153.193 160.950 188.460  0.00  0.00    -0.059 C 
ATOM     25  H   UNL     1     153.350 160.293 189.323  0.00  0.00    +0.023 HD
ATOM     26  H   UNL     1     154.139 161.016 187.911  0.00  0.00    +0.023 HD
ATOM     27  H   UNL     1     152.455 160.468 187.812  0.00  0.00    +0.023 HD
ENDBRANCH  22  24
BRANCH  22  28
ATOM     28  C   UNL     1     152.714 162.400 190.434  0.00  0.00    -0.059 C 
ATOM     29  H   UNL     1     153.374 161.632 190.859  0.00  0.00    +0.023 HD
ATOM     30  H   UNL     1     153.045 163.374 190.804  0.00  0.00    +0.023 HD
ATOM     31  H   UNL     1     151.705 162.235 190.829  0.00  0.00    +0.023 HD
ENDBRANCH  22  28
ENDBRANCH  20  22
BRANCH  20  32
ATOM     32  O   UNL     1     152.767 164.139 187.293  0.00  0.00    -0.461 OA
BRANCH  32  33
ATOM     33  C   UNL     1     153.070 163.928 185.982  0.00  0.00    +0.307 C 
ATOM     34  O   UNL     1     153.110 162.836 185.432  0.00  0.00    -0.251 OA
BRANCH  33  35
ATOM     35  C   UNL     1     153.361 165.246 185.306  0.00  0.00    +0.046 C 
ATOM     36  H   UNL     1     152.753 166.017 185.788  0.00  0.00    +0.038 HD
ATOM     37  H   UNL     1     153.064 165.170 184.254  0.00  0.00    +0.038 HD
BRANCH  35  38
ATOM     38  C   UNL     1     154.851 165.586 185.385  0.00  0.00    -0.031 C 
ATOM     39  H   UNL     1     155.231 165.376 186.393  0.00  0.00    +0.028 HD
ATOM     40  H   UNL     1     155.405 164.925 184.708  0.00  0.00    +0.028 HD
BRANCH  38  41
ATOM     41  C   UNL     1     155.151 167.036 185.009  0.00  0.00    -0.006 C 
ATOM     42  H   UNL     1     154.356 167.433 184.369  0.00  0.00    +0.042 HD
ATOM     43  H   UNL     1     156.087 167.080 184.438  0.00  0.00    +0.042 HD
BRANCH  41  44
ATOM     44  N   UNL     1     155.280 167.875 186.197  0.00  0.00    -0.330 NA
ATOM     45  H   UNL     1     155.306 168.855 185.912  0.00  0.00    +0.118 HD
ATOM     46  H   UNL     1     154.439 167.778 186.767  0.00  0.00    +0.118 HD
ENDBRANCH  41  44
ENDBRANCH  38  41
ENDBRANCH  35  38
ENDBRANCH  33  35
ENDBRANCH  32  33
ENDBRANCH  20  32
ENDBRANCH  17  20
ENDBRANCH  15  17
BRANCH  15  47
ATOM     47  O   UNL     1     155.550 166.440 189.104  0.00  0.00    -0.379 OA
BRANCH  47  48
ATOM     48  C   UNL     1     156.546 165.438 189.235  0.00  0.00    +0.037 C 
ATOM     49  H   UNL     1     157.439 165.842 189.721  0.00  0.00    +0.052 HD
ATOM     50  H   UNL     1     156.801 165.008 188.264  0.00  0.00    +0.052 HD
ATOM     51  H   UNL     1     156.145 164.643 189.871  0.00  0.00    +0.052 HD
ENDBRANCH  47  48
ENDBRANCH  15  47
ENDBRANCH   9  15
ENDBRANCH   6   9
ENDBRANCH   3   6
ENDBRANCH   1   3
BRANCH   1  52
ATOM     52  C   UNL     1     148.827 166.805 191.209  0.00  0.00    +0.020 C 
ATOM     53  H   UNL     1     147.850 166.387 191.486  0.00  0.00    +0.036 HD
BRANCH  52  54
ATOM     54  C   UNL     1     148.696 167.382 189.789  0.00  0.00    -0.057 C 
ATOM     55  H   UNL     1     148.037 168.260 189.786  0.00  0.00    +0.023 HD
ATOM     56  H   UNL     1     148.287 166.648 189.084  0.00  0.00    +0.023 HD
ATOM     57  H   UNL     1     149.663 167.716 189.402  0.00  0.00    +0.023 HD
ENDBRANCH  52  54
BRANCH  52  58
ATOM     58  C   UNL     1     149.177 167.895 192.273  0.00  0.00    +0.070 C 
ATOM     59  H   UNL     1     149.970 167.508 192.924  0.00  0.00    +0.061 HD
BRANCH  58  60
ATOM     60  C   UNL     1     149.701 169.237 191.670  0.00  0.00    +0.002 C 
ATOM     61  H   UNL     1     149.745 169.121 190.579  0.00  0.00    +0.037 HD
BRANCH  60  62
ATOM     62  C   UNL     1     148.820 170.425 192.015  0.00  0.00    -0.065 C 
ATOM     63  C   UNL     1     148.777 171.548 191.281  0.00  0.00    -0.005 C 
ATOM     64  H   UNL     1     148.220 170.312 192.916  0.00  0.00    +0.059 HD
ATOM     65  H   UNL     1     149.411 171.612 190.396  0.00  0.00    +0.078 HD
BRANCH  63  66
ATOM     66  N   UNL     1     148.003 172.670 191.536  0.00  0.00    -0.281 N 
ATOM     67  C   UNL     1     146.775 172.833 190.900  0.00  0.00    +0.206 C 
ATOM     68  O   UNL     1     146.019 173.792 191.005  0.00  0.00    -0.279 OA
ATOM     69  H   UNL     1     146.517 171.987 190.247  0.00  0.00    +0.126 HD
BRANCH  66  70
ATOM     70  C   UNL     1     148.440 173.744 192.428  0.00  0.00    +0.016 C 
ATOM     71  H   UNL     1     148.104 174.710 192.041  0.00  0.00    +0.047 HD
ATOM     72  H   UNL     1     149.536 173.786 192.429  0.00  0.00    +0.047 HD
BRANCH  70  73
ATOM     73  C   UNL     1     147.966 173.529 193.856  0.00  0.00    -0.049 C 
ATOM     74  H   UNL     1     147.074 174.129 194.076  0.00  0.00    +0.024 HD
ATOM     75  H   UNL     1     148.754 173.809 194.561  0.00  0.00    +0.024 HD
ATOM     76  H   UNL     1     147.706 172.480 194.025  0.00  0.00    +0.024 HD
ENDBRANCH  70  73
ENDBRANCH  66  70
ENDBRANCH  63  66
ENDBRANCH  60  62
BRANCH  60  77
ATOM     77  C   UNL     1     151.133 169.543 192.126  0.00  0.00    -0.057 C 
ATOM     78  H   UNL     1     151.871 168.911 191.618  0.00  0.00    +0.024 HD
ATOM     79  H   UNL     1     151.384 170.592 191.933  0.00  0.00    +0.024 HD
ATOM     80  H   UNL     1     151.242 169.371 193.204  0.00  0.00    +0.024 HD
ENDBRANCH  60  77
ENDBRANCH  58  60
BRANCH  58  81
ATOM     81  O   UNL     1     147.997 168.181 193.045  0.00  0.00    -0.379 OA
BRANCH  81  82
ATOM     82  C   UNL     1     147.615 167.136 193.928  0.00  0.00    +0.037 C 
ATOM     83  H   UNL     1     146.862 167.485 194.638  0.00  0.00    +0.052 HD
ATOM     84  H   UNL     1     147.237 166.271 193.376  0.00  0.00    +0.052 HD
ATOM     85  H   UNL     1     148.501 166.831 194.492  0.00  0.00    +0.052 HD
ENDBRANCH  81  82
ENDBRANCH  58  81
ENDBRANCH  52  58
ENDBRANCH   1  52
BRANCH   1  86
ATOM     86  O   UNL     1     150.566 165.517 192.411  0.00  0.00    -0.459 OA
BRANCH  86  88
ATOM     87  O   UNL     1     149.178 163.854 193.169  0.00  0.00    -0.248 OA
ATOM     88  C   UNL     1     150.178 164.550 193.289  0.00  0.00    +0.337 C 
BRANCH  88  89
ATOM     89  C   UNL     1     151.175 164.490 194.457  0.00  0.00    +0.155 C 
ATOM     90  O   UNL     1     150.600 163.900 195.637  0.00  0.00    -0.365 OA
ATOM     91  C   UNL     1     150.328 164.929 196.592  0.00  0.00    +0.049 C 
ATOM     92  C   UNL     1     150.586 166.255 195.909  0.00  0.00    -0.027 C 
ATOM     93  C   UNL     1     151.606 165.893 194.854  0.00  0.00    -0.014 C 
ATOM     94  H   UNL     1     152.024 163.866 194.150  0.00  0.00    +0.071 HD
ATOM     95  H   UNL     1     151.000 164.787 197.443  0.00  0.00    +0.056 HD
ATOM     96  H   UNL     1     149.297 164.838 196.943  0.00  0.00    +0.056 HD
ATOM     97  H   UNL     1     150.928 167.028 196.601  0.00  0.00    +0.029 HD
ATOM     98  H   UNL     1     149.669 166.617 195.431  0.00  0.00    +0.029 HD
ATOM     99  H   UNL     1     151.624 166.614 194.031  0.00  0.00    +0.030 HD
ATOM    100  H   UNL     1     152.608 165.859 195.309  0.00  0.00    +0.030 HD
ENDBRANCH  88  89
ENDBRANCH  86  88
ENDBRANCH   1  86
TORSDOF 32
ENDMDL
MODEL 5
REMARK VINA RESULT:      -5.1      4.090      7.916
REMARK  Name = 2a_conf1
REMARK  32 active torsions:
REMARK  status: ('A' for Active; 'I' for Inactive)
REMARK    1  A    between atoms: C_2  and  C_3
REMARK    2  A    between atoms: C_2  and  O_8
REMARK    3  A    between atoms: O_8  and  C_9
REMARK    4  A    between atoms: C_9  and  C_10
REMARK    5  A    between atoms: C_9  and  C_29
REMARK    6  A    between atoms: C_10  and  C_11
REMARK    7  A    between atoms: C_11  and  C_12
REMARK    8  A    between atoms: C_12  and  C_13
REMARK    9  A    between atoms: C_12  and  C_14
REMARK   10  A    between atoms: C_14  and  O_15
REMARK   11  A    between atoms: C_14  and  C_17
REMARK   12  A    between atoms: O_15  and  C_16
REMARK   13  A    between atoms: C_17  and  C_18
REMARK   14  A    between atoms: C_18  and  O_19
REMARK   15  A    between atoms: C_18  and  C_26
REMARK   16  A    between atoms: O_19  and  C_20
REMARK   17  A    between atoms: C_20  and  C_21
REMARK   18  A    between atoms: C_21  and  C_22
REMARK   19  A    between atoms: C_22  and  C_23
REMARK   20  A    between atoms: C_23  and  N_24
REMARK   21  A    between atoms: C_26  and  C_27
REMARK   22  A    between atoms: C_26  and  C_28
REMARK   23  A    between atoms: C_29  and  C_30
REMARK   24  A    between atoms: C_29  and  C_31
REMARK   25  A    between atoms: C_31  and  O_32
REMARK   26  A    between atoms: C_31  and  C_34
REMARK   27  A    between atoms: O_32  and  C_33
REMARK   28  A    between atoms: C_34  and  C_35
REMARK   29  A    between atoms: C_34  and  C_36
REMARK   30  A    between atoms: C_37  and  N_38
REMARK   31  A    between atoms: N_38  and  C_39
REMARK   32  A    between atoms: C_39  and  C_40
REMARK                            x       y       z     vdW  Elec       q    Type
REMARK                         _______ _______ _______ _____ _____    ______ ____
ROOT
ATOM      1  C   UNL     1     149.789 165.566 191.105  0.00  0.00    +0.108 C 
ATOM      2  H   UNL     1     149.236 164.629 190.963  0.00  0.00    +0.074 HD
ENDROOT
BRANCH   1   3
ATOM      3  C   UNL     1     150.778 165.706 189.932  0.00  0.00    -0.015 C 
ATOM      4  H   UNL     1     150.876 164.758 189.392  0.00  0.00    +0.030 HD
ATOM      5  H   UNL     1     150.392 166.451 189.234  0.00  0.00    +0.030 HD
BRANCH   3   6
ATOM      6  C   UNL     1     152.173 166.148 190.395  0.00  0.00    -0.045 C 
ATOM      7  H   UNL     1     152.091 166.925 191.161  0.00  0.00    +0.027 HD
ATOM      8  H   UNL     1     152.647 165.289 190.889  0.00  0.00    +0.027 HD
BRANCH   6   9
ATOM      9  C   UNL     1     153.093 166.620 189.243  0.00  0.00    -0.017 C 
ATOM     10  H   UNL     1     153.763 167.380 189.663  0.00  0.00    +0.032 HD
BRANCH   9  11
ATOM     11  C   UNL     1     152.242 167.335 188.181  0.00  0.00    -0.060 C 
ATOM     12  H   UNL     1     151.200 166.998 188.223  0.00  0.00    +0.023 HD
ATOM     13  H   UNL     1     152.258 168.423 188.307  0.00  0.00    +0.023 HD
ATOM     14  H   UNL     1     152.612 167.113 187.173  0.00  0.00    +0.023 HD
ENDBRANCH   9  11
BRANCH   9  15
ATOM     15  C   UNL     1     153.973 165.516 188.579  0.00  0.00    +0.064 C 
ATOM     16  H   UNL     1     153.480 165.214 187.649  0.00  0.00    +0.060 HD
BRANCH  15  17
ATOM     17  C   UNL     1     154.146 164.266 189.470  0.00  0.00    +0.011 C 
ATOM     18  H   UNL     1     155.084 164.371 190.031  0.00  0.00    +0.033 HD
ATOM     19  H   UNL     1     153.336 164.215 190.205  0.00  0.00    +0.033 HD
BRANCH  17  20
ATOM     20  C   UNL     1     154.201 162.908 188.729  0.00  0.00    +0.108 C 
ATOM     21  H   UNL     1     153.928 163.088 187.681  0.00  0.00    +0.074 HD
BRANCH  20  22
ATOM     22  C   UNL     1     155.589 162.218 188.735  0.00  0.00    -0.009 C 
ATOM     23  H   UNL     1     155.460 161.143 188.562  0.00  0.00    +0.033 HD
BRANCH  22  24
ATOM     24  C   UNL     1     156.460 162.736 187.582  0.00  0.00    -0.059 C 
ATOM     25  H   UNL     1     156.706 161.928 186.882  0.00  0.00    +0.023 HD
ATOM     26  H   UNL     1     157.401 163.155 187.956  0.00  0.00    +0.023 HD
ATOM     27  H   UNL     1     155.941 163.514 187.014  0.00  0.00    +0.023 HD
ENDBRANCH  22  24
BRANCH  22  28
ATOM     28  C   UNL     1     156.338 162.419 190.054  0.00  0.00    -0.059 C 
ATOM     29  H   UNL     1     156.688 163.454 190.155  0.00  0.00    +0.023 HD
ATOM     30  H   UNL     1     155.711 162.187 190.919  0.00  0.00    +0.023 HD
ATOM     31  H   UNL     1     157.212 161.759 190.108  0.00  0.00    +0.023 HD
ENDBRANCH  22  28
ENDBRANCH  20  22
BRANCH  20  32
ATOM     32  O   UNL     1     153.250 161.976 189.291  0.00  0.00    -0.461 OA
BRANCH  32  33
ATOM     33  C   UNL     1     152.168 161.670 188.522  0.00  0.00    +0.307 C 
ATOM     34  O   UNL     1     152.045 161.939 187.335  0.00  0.00    -0.251 OA
BRANCH  33  35
ATOM     35  C   UNL     1     151.133 160.954 189.356  0.00  0.00    +0.046 C 
ATOM     36  H   UNL     1     151.634 160.148 189.900  0.00  0.00    +0.038 HD
ATOM     37  H   UNL     1     150.387 160.516 188.684  0.00  0.00    +0.038 HD
BRANCH  35  38
ATOM     38  C   UNL     1     150.438 161.921 190.317  0.00  0.00    -0.031 C 
ATOM     39  H   UNL     1     150.986 161.966 191.267  0.00  0.00    +0.028 HD
ATOM     40  H   UNL     1     150.477 162.933 189.896  0.00  0.00    +0.028 HD
BRANCH  38  41
ATOM     41  C   UNL     1     148.978 161.554 190.577  0.00  0.00    -0.006 C 
ATOM     42  H   UNL     1     148.618 160.867 189.804  0.00  0.00    +0.042 HD
ATOM     43  H   UNL     1     148.359 162.459 190.528  0.00  0.00    +0.042 HD
BRANCH  41  44
ATOM     44  N   UNL     1     148.814 160.937 191.890  0.00  0.00    -0.330 NA
ATOM     45  H   UNL     1     149.663 161.086 192.437  0.00  0.00    +0.118 HD
ATOM     46  H   UNL     1     148.072 161.422 192.397  0.00  0.00    +0.118 HD
ENDBRANCH  41  44
ENDBRANCH  38  41
ENDBRANCH  35  38
ENDBRANCH  33  35
ENDBRANCH  32  33
ENDBRANCH  20  32
ENDBRANCH  17  20
ENDBRANCH  15  17
BRANCH  15  47
ATOM     47  O   UNL     1     155.281 166.006 188.256  0.00  0.00    -0.379 OA
BRANCH  47  48
ATOM     48  C   UNL     1     156.158 166.095 189.368  0.00  0.00    +0.037 C 
ATOM     49  H   UNL     1     156.373 165.102 189.772  0.00  0.00    +0.052 HD
ATOM     50  H   UNL     1     155.743 166.742 190.144  0.00  0.00    +0.052 HD
ATOM     51  H   UNL     1     157.100 166.531 189.022  0.00  0.00    +0.052 HD
ENDBRANCH  47  48
ENDBRANCH  15  47
ENDBRANCH   9  15
ENDBRANCH   6   9
ENDBRANCH   3   6
ENDBRANCH   1   3
BRANCH   1  52
ATOM     52  C   UNL     1     148.765 166.740 191.198  0.00  0.00    +0.020 C 
ATOM     53  H   UNL     1     147.804 166.290 191.482  0.00  0.00    +0.036 HD
BRANCH  52  54
ATOM     54  C   UNL     1     148.590 167.360 189.801  0.00  0.00    -0.057 C 
ATOM     55  H   UNL     1     147.595 167.811 189.699  0.00  0.00    +0.023 HD
ATOM     56  H   UNL     1     148.709 166.615 189.004  0.00  0.00    +0.023 HD
ATOM     57  H   UNL     1     149.315 168.160 189.625  0.00  0.00    +0.023 HD
ENDBRANCH  52  54
BRANCH  52  58
ATOM     58  C   UNL     1     149.113 167.802 192.291  0.00  0.00    +0.070 C 
ATOM     59  H   UNL     1     149.902 167.397 192.935  0.00  0.00    +0.061 HD
BRANCH  58  60
ATOM     60  C   UNL     1     149.642 169.158 191.723  0.00  0.00    +0.002 C 
ATOM     61  H   UNL     1     149.599 169.103 190.628  0.00  0.00    +0.037 HD
BRANCH  60  62
ATOM     62  C   UNL     1     148.837 170.354 192.199  0.00  0.00    -0.065 C 
ATOM     63  C   UNL     1     149.237 171.624 192.034  0.00  0.00    -0.005 C 
ATOM     64  H   UNL     1     147.901 170.114 192.700  0.00  0.00    +0.059 HD
ATOM     65  H   UNL     1     150.191 171.806 191.539  0.00  0.00    +0.078 HD
BRANCH  63  66
ATOM     66  N   UNL     1     148.559 172.762 192.445  0.00  0.00    -0.281 N 
ATOM     67  C   UNL     1     148.217 172.927 193.784  0.00  0.00    +0.206 C 
ATOM     68  O   UNL     1     147.586 173.860 194.268  0.00  0.00    -0.279 OA
ATOM     69  H   UNL     1     148.570 172.103 194.421  0.00  0.00    +0.126 HD
BRANCH  66  70
ATOM     70  C   UNL     1     148.133 173.807 191.515  0.00  0.00    +0.016 C 
ATOM     71  H   UNL     1     149.005 174.244 191.019  0.00  0.00    +0.047 HD
ATOM     72  H   UNL     1     147.670 174.625 192.081  0.00  0.00    +0.047 HD
BRANCH  70  73
ATOM     73  C   UNL     1     147.124 173.294 190.500  0.00  0.00    -0.049 C 
ATOM     74  H   UNL     1     146.159 173.075 190.972  0.00  0.00    +0.024 HD
ATOM     75  H   UNL     1     147.495 172.380 190.028  0.00  0.00    +0.024 HD
ATOM     76  H   UNL     1     146.946 174.040 189.719  0.00  0.00    +0.024 HD
ENDBRANCH  70  73
ENDBRANCH  66  70
ENDBRANCH  63  66
ENDBRANCH  60  62
BRANCH  60  77
ATOM     77  C   UNL     1     151.115 169.386 192.084  0.00  0.00    -0.057 C 
ATOM     78  H   UNL     1     151.433 170.416 191.886  0.00  0.00    +0.024 HD
ATOM     79  H   UNL     1     151.292 169.167 193.143  0.00  0.00    +0.024 HD
ATOM     80  H   UNL     1     151.765 168.724 191.498  0.00  0.00    +0.024 HD
ENDBRANCH  60  77
ENDBRANCH  58  60
BRANCH  58  81
ATOM     81  O   UNL     1     147.930 168.072 193.065  0.00  0.00    -0.379 OA
BRANCH  81  82
ATOM     82  C   UNL     1     147.416 166.939 193.751  0.00  0.00    +0.037 C 
ATOM     83  H   UNL     1     147.992 166.740 194.656  0.00  0.00    +0.052 HD
ATOM     84  H   UNL     1     146.360 167.075 194.000  0.00  0.00    +0.052 HD
ATOM     85  H   UNL     1     147.510 166.074 193.089  0.00  0.00    +0.052 HD
ENDBRANCH  81  82
ENDBRANCH  58  81
ENDBRANCH  52  58
ENDBRANCH   1  52
BRANCH   1  86
ATOM     86  O   UNL     1     150.574 165.470 192.311  0.00  0.00    -0.459 OA
BRANCH  86  88
ATOM     87  O   UNL     1     149.216 163.798 193.101  0.00  0.00    -0.248 OA
ATOM     88  C   UNL     1     150.198 164.520 193.213  0.00  0.00    +0.337 C 
BRANCH  88  89
ATOM     89  C   UNL     1     151.182 164.517 194.394  0.00  0.00    +0.155 C 
ATOM     90  O   UNL     1     150.602 163.960 195.587  0.00  0.00    -0.365 OA
ATOM     91  C   UNL     1     150.302 165.019 196.501  0.00  0.00    +0.049 C 
ATOM     92  C   UNL     1     150.549 166.324 195.774  0.00  0.00    -0.027 C 
ATOM     93  C   UNL     1     151.587 165.940 194.745  0.00  0.00    -0.014 C 
ATOM     94  H   UNL     1     152.043 163.896 194.119  0.00  0.00    +0.071 HD
ATOM     95  H   UNL     1     150.966 164.918 197.365  0.00  0.00    +0.056 HD
ATOM     96  H   UNL     1     149.268 164.924 196.843  0.00  0.00    +0.056 HD
ATOM     97  H   UNL     1     150.870 167.126 196.442  0.00  0.00    +0.029 HD
ATOM     98  H   UNL     1     149.632 166.654 195.273  0.00  0.00    +0.029 HD
ATOM     99  H   UNL     1     151.604 166.631 193.897  0.00  0.00    +0.030 HD
ATOM    100  H   UNL     1     152.583 165.938 195.213  0.00  0.00    +0.030 HD
ENDBRANCH  88  89
ENDBRANCH  86  88
ENDBRANCH   1  86
TORSDOF 32
ENDMDL
MODEL 6
REMARK VINA RESULT:      -5.1      4.428      7.940
REMARK  Name = 2a_conf1
REMARK  32 active torsions:
REMARK  status: ('A' for Active; 'I' for Inactive)
REMARK    1  A    between atoms: C_2  and  C_3
REMARK    2  A    between atoms: C_2  and  O_8
REMARK    3  A    between atoms: O_8  and  C_9
REMARK    4  A    between atoms: C_9  and  C_10
REMARK    5  A    between atoms: C_9  and  C_29
REMARK    6  A    between atoms: C_10  and  C_11
REMARK    7  A    between atoms: C_11  and  C_12
REMARK    8  A    between atoms: C_12  and  C_13
REMARK    9  A    between atoms: C_12  and  C_14
REMARK   10  A    between atoms: C_14  and  O_15
REMARK   11  A    between atoms: C_14  and  C_17
REMARK   12  A    between atoms: O_15  and  C_16
REMARK   13  A    between atoms: C_17  and  C_18
REMARK   14  A    between atoms: C_18  and  O_19
REMARK   15  A    between atoms: C_18  and  C_26
REMARK   16  A    between atoms: O_19  and  C_20
REMARK   17  A    between atoms: C_20  and  C_21
REMARK   18  A    between atoms: C_21  and  C_22
REMARK   19  A    between atoms: C_22  and  C_23
REMARK   20  A    between atoms: C_23  and  N_24
REMARK   21  A    between atoms: C_26  and  C_27
REMARK   22  A    between atoms: C_26  and  C_28
REMARK   23  A    between atoms: C_29  and  C_30
REMARK   24  A    between atoms: C_29  and  C_31
REMARK   25  A    between atoms: C_31  and  O_32
REMARK   26  A    between atoms: C_31  and  C_34
REMARK   27  A    between atoms: O_32  and  C_33
REMARK   28  A    between atoms: C_34  and  C_35
REMARK   29  A    between atoms: C_34  and  C_36
REMARK   30  A    between atoms: C_37  and  N_38
REMARK   31  A    between atoms: N_38  and  C_39
REMARK   32  A    between atoms: C_39  and  C_40
REMARK                            x       y       z     vdW  Elec       q    Type
REMARK                         _______ _______ _______ _____ _____    ______ ____
ROOT
ATOM      1  C   UNL     1     149.336 165.601 191.040  0.00  0.00    +0.108 C 
ATOM      2  H   UNL     1     148.782 164.657 190.964  0.00  0.00    +0.074 HD
ENDROOT
BRANCH   1   3
ATOM      3  C   UNL     1     150.110 165.798 189.723  0.00  0.00    -0.015 C 
ATOM      4  H   UNL     1     150.377 164.832 189.283  0.00  0.00    +0.030 HD
ATOM      5  H   UNL     1     149.468 166.324 189.014  0.00  0.00    +0.030 HD
BRANCH   3   6
ATOM      6  C   UNL     1     151.394 166.614 189.918  0.00  0.00    -0.045 C 
ATOM      7  H   UNL     1     151.230 167.412 190.649  0.00  0.00    +0.027 HD
ATOM      8  H   UNL     1     152.147 165.950 190.364  0.00  0.00    +0.027 HD
BRANCH   6   9
ATOM      9  C   UNL     1     151.970 167.196 188.604  0.00  0.00    -0.017 C 
ATOM     10  H   UNL     1     152.128 168.268 188.773  0.00  0.00    +0.032 HD
BRANCH   9  11
ATOM     11  C   UNL     1     150.909 167.085 187.497  0.00  0.00    -0.060 C 
ATOM     12  H   UNL     1     150.025 166.544 187.855  0.00  0.00    +0.023 HD
ATOM     13  H   UNL     1     150.588 168.068 187.136  0.00  0.00    +0.023 HD
ATOM     14  H   UNL     1     151.300 166.529 186.638  0.00  0.00    +0.023 HD
ENDBRANCH   9  11
BRANCH   9  15
ATOM     15  C   UNL     1     153.321 166.580 188.123  0.00  0.00    +0.064 C 
ATOM     16  H   UNL     1     153.087 165.803 187.387  0.00  0.00    +0.060 HD
BRANCH  15  17
ATOM     17  C   UNL     1     154.135 165.942 189.270  0.00  0.00    +0.011 C 
ATOM     18  H   UNL     1     155.124 166.417 189.295  0.00  0.00    +0.033 HD
ATOM     19  H   UNL     1     153.654 166.150 190.231  0.00  0.00    +0.033 HD
BRANCH  17  20
ATOM     20  C   UNL     1     154.359 164.413 189.173  0.00  0.00    +0.108 C 
ATOM     21  H   UNL     1     154.794 164.078 190.123  0.00  0.00    +0.074 HD
BRANCH  20  22
ATOM     22  C   UNL     1     153.074 163.581 188.932  0.00  0.00    -0.009 C 
ATOM     23  H   UNL     1     152.308 164.221 188.476  0.00  0.00    +0.033 HD
BRANCH  22  24
ATOM     24  C   UNL     1     153.337 162.448 187.929  0.00  0.00    -0.059 C 
ATOM     25  H   UNL     1     152.752 162.591 187.013  0.00  0.00    +0.023 HD
ATOM     26  H   UNL     1     153.065 161.475 188.353  0.00  0.00    +0.023 HD
ATOM     27  H   UNL     1     154.392 162.414 187.642  0.00  0.00    +0.023 HD
ENDBRANCH  22  24
BRANCH  22  28
ATOM     28  C   UNL     1     152.511 162.982 190.223  0.00  0.00    -0.059 C 
ATOM     29  H   UNL     1     151.820 162.158 190.006  0.00  0.00    +0.023 HD
ATOM     30  H   UNL     1     153.303 162.600 190.874  0.00  0.00    +0.023 HD
ATOM     31  H   UNL     1     151.965 163.740 190.797  0.00  0.00    +0.023 HD
ENDBRANCH  22  28
ENDBRANCH  20  22
BRANCH  20  32
ATOM     32  O   UNL     1     155.288 164.095 188.113  0.00  0.00    -0.461 OA
BRANCH  32  33
ATOM     33  C   UNL     1     156.613 164.165 188.420  0.00  0.00    +0.307 C 
ATOM     34  O   UNL     1     157.462 164.753 187.763  0.00  0.00    -0.251 OA
BRANCH  33  35
ATOM     35  C   UNL     1     156.884 163.401 189.694  0.00  0.00    +0.046 C 
ATOM     36  H   UNL     1     156.361 162.442 189.632  0.00  0.00    +0.038 HD
ATOM     37  H   UNL     1     156.476 163.972 190.535  0.00  0.00    +0.038 HD
BRANCH  35  38
ATOM     38  C   UNL     1     158.386 163.200 189.903  0.00  0.00    -0.031 C 
ATOM     39  H   UNL     1     158.877 163.000 188.941  0.00  0.00    +0.028 HD
ATOM     40  H   UNL     1     158.824 164.133 190.278  0.00  0.00    +0.028 HD
BRANCH  38  41
ATOM     41  C   UNL     1     158.705 162.078 190.890  0.00  0.00    -0.006 C 
ATOM     42  H   UNL     1     159.240 162.479 191.757  0.00  0.00    +0.042 HD
ATOM     43  H   UNL     1     159.361 161.342 190.408  0.00  0.00    +0.042 HD
BRANCH  41  44
ATOM     44  N   UNL     1     157.488 161.407 191.339  0.00  0.00    -0.330 NA
ATOM     45  H   UNL     1     156.743 161.579 190.661  0.00  0.00    +0.118 HD
ATOM     46  H   UNL     1     157.640 160.398 191.329  0.00  0.00    +0.118 HD
ENDBRANCH  41  44
ENDBRANCH  38  41
ENDBRANCH  35  38
ENDBRANCH  33  35
ENDBRANCH  32  33
ENDBRANCH  20  32
ENDBRANCH  17  20
ENDBRANCH  15  17
BRANCH  15  47
ATOM     47  O   UNL     1     154.153 167.561 187.490  0.00  0.00    -0.379 OA
BRANCH  47  48
ATOM     48  C   UNL     1     154.755 167.120 186.283  0.00  0.00    +0.037 C 
ATOM     49  H   UNL     1     153.992 166.859 185.545  0.00  0.00    +0.052 HD
ATOM     50  H   UNL     1     155.419 166.273 186.463  0.00  0.00    +0.052 HD
ATOM     51  H   UNL     1     155.348 167.946 185.880  0.00  0.00    +0.052 HD
ENDBRANCH  47  48
ENDBRANCH  15  47
ENDBRANCH   9  15
ENDBRANCH   6   9
ENDBRANCH   3   6
ENDBRANCH   1   3
BRANCH   1  52
ATOM     52  C   UNL     1     148.323 166.750 191.344  0.00  0.00    +0.020 C 
ATOM     53  H   UNL     1     147.438 166.272 191.787  0.00  0.00    +0.036 HD
BRANCH  52  54
ATOM     54  C   UNL     1     147.885 167.391 190.016  0.00  0.00    -0.057 C 
ATOM     55  H   UNL     1     147.893 166.651 189.207  0.00  0.00    +0.023 HD
ATOM     56  H   UNL     1     148.541 168.220 189.725  0.00  0.00    +0.023 HD
ATOM     57  H   UNL     1     146.863 167.776 190.077  0.00  0.00    +0.023 HD
ENDBRANCH  52  54
BRANCH  52  58
ATOM     58  C   UNL     1     148.843 167.799 192.379  0.00  0.00    +0.070 C 
ATOM     59  H   UNL     1     149.723 167.385 192.886  0.00  0.00    +0.061 HD
BRANCH  58  60
ATOM     60  C   UNL     1     149.281 169.160 191.749  0.00  0.00    +0.002 C 
ATOM     61  H   UNL     1     149.183 169.072 190.659  0.00  0.00    +0.037 HD
BRANCH  60  62
ATOM     62  C   UNL     1     148.450 170.333 192.236  0.00  0.00    -0.065 C 
ATOM     63  C   UNL     1     148.043 171.331 191.436  0.00  0.00    -0.005 C 
ATOM     64  H   UNL     1     148.206 170.321 193.297  0.00  0.00    +0.059 HD
ATOM     65  H   UNL     1     148.329 171.300 190.385  0.00  0.00    +0.078 HD
BRANCH  63  66
ATOM     66  N   UNL     1     147.288 172.432 191.811  0.00  0.00    -0.281 N 
ATOM     67  C   UNL     1     145.918 172.457 191.568  0.00  0.00    +0.206 C 
ATOM     68  O   UNL     1     145.149 173.381 191.810  0.00  0.00    -0.279 OA
ATOM     69  H   UNL     1     145.548 171.531 191.105  0.00  0.00    +0.126 HD
BRANCH  66  70
ATOM     70  C   UNL     1     147.878 173.621 192.425  0.00  0.00    +0.016 C 
ATOM     71  H   UNL     1     147.397 174.522 192.033  0.00  0.00    +0.047 HD
ATOM     72  H   UNL     1     148.933 173.693 192.130  0.00  0.00    +0.047 HD
BRANCH  70  73
ATOM     73  C   UNL     1     147.807 173.577 193.943  0.00  0.00    -0.049 C 
ATOM     74  H   UNL     1     148.637 172.999 194.366  0.00  0.00    +0.024 HD
ATOM     75  H   UNL     1     146.866 173.119 194.263  0.00  0.00    +0.024 HD
ATOM     76  H   UNL     1     147.861 174.586 194.363  0.00  0.00    +0.024 HD
ENDBRANCH  70  73
ENDBRANCH  66  70
ENDBRANCH  63  66
ENDBRANCH  60  62
BRANCH  60  77
ATOM     77  C   UNL     1     150.760 169.461 192.023  0.00  0.00    -0.057 C 
ATOM     78  H   UNL     1     151.078 170.409 191.575  0.00  0.00    +0.024 HD
ATOM     79  H   UNL     1     150.950 169.507 193.101  0.00  0.00    +0.024 HD
ATOM     80  H   UNL     1     151.399 168.672 191.610  0.00  0.00    +0.024 HD
ENDBRANCH  60  77
ENDBRANCH  58  60
BRANCH  58  81
ATOM     81  O   UNL     1     147.798 168.063 193.333  0.00  0.00    -0.379 OA
BRANCH  81  82
ATOM     82  C   UNL     1     147.352 166.912 194.037  0.00  0.00    +0.037 C 
ATOM     83  H   UNL     1     146.468 167.143 194.634  0.00  0.00    +0.052 HD
ATOM     84  H   UNL     1     147.138 166.089 193.350  0.00  0.00    +0.052 HD
ATOM     85  H   UNL     1     148.152 166.603 194.715  0.00  0.00    +0.052 HD
ENDBRANCH  81  82
ENDBRANCH  58  81
ENDBRANCH  52  58
ENDBRANCH   1  52
BRANCH   1  86
ATOM     86  O   UNL     1     150.315 165.486 192.094  0.00  0.00    -0.459 OA
BRANCH  86  88
ATOM     87  O   UNL     1     149.081 163.836 193.103  0.00  0.00    -0.248 OA
ATOM     88  C   UNL     1     150.062 164.567 193.067  0.00  0.00    +0.337 C 
BRANCH  88  89
ATOM     89  C   UNL     1     151.185 164.611 194.116  0.00  0.00    +0.155 C 
ATOM     90  O   UNL     1     150.823 163.933 195.333  0.00  0.00    -0.365 OA
ATOM     91  C   UNL     1     150.536 164.904 196.344  0.00  0.00    +0.049 C 
ATOM     92  C   UNL     1     150.552 166.263 195.679  0.00  0.00    -0.027 C 
ATOM     93  C   UNL     1     151.484 166.050 194.507  0.00  0.00    -0.014 C 
ATOM     94  H   UNL     1     152.063 164.103 193.699  0.00  0.00    +0.071 HD
ATOM     95  H   UNL     1     151.312 164.832 197.112  0.00  0.00    +0.056 HD
ATOM     96  H   UNL     1     149.570 164.678 196.803  0.00  0.00    +0.056 HD
ATOM     97  H   UNL     1     150.874 167.060 196.353  0.00  0.00    +0.029 HD
ATOM     98  H   UNL     1     149.550 166.517 195.316  0.00  0.00    +0.029 HD
ATOM     99  H   UNL     1     151.320 166.782 193.710  0.00  0.00    +0.030 HD
ATOM    100  H   UNL     1     152.526 166.132 194.849  0.00  0.00    +0.030 HD
ENDBRANCH  88  89
ENDBRANCH  86  88
ENDBRANCH   1  86
TORSDOF 32
ENDMDL
MODEL 7
REMARK VINA RESULT:      -5.1      4.443      8.027
REMARK  Name = 2a_conf1
REMARK  32 active torsions:
REMARK  status: ('A' for Active; 'I' for Inactive)
REMARK    1  A    between atoms: C_2  and  C_3
REMARK    2  A    between atoms: C_2  and  O_8
REMARK    3  A    between atoms: O_8  and  C_9
REMARK    4  A    between atoms: C_9  and  C_10
REMARK    5  A    between atoms: C_9  and  C_29
REMARK    6  A    between atoms: C_10  and  C_11
REMARK    7  A    between atoms: C_11  and  C_12
REMARK    8  A    between atoms: C_12  and  C_13
REMARK    9  A    between atoms: C_12  and  C_14
REMARK   10  A    between atoms: C_14  and  O_15
REMARK   11  A    between atoms: C_14  and  C_17
REMARK   12  A    between atoms: O_15  and  C_16
REMARK   13  A    between atoms: C_17  and  C_18
REMARK   14  A    between atoms: C_18  and  O_19
REMARK   15  A    between atoms: C_18  and  C_26
REMARK   16  A    between atoms: O_19  and  C_20
REMARK   17  A    between atoms: C_20  and  C_21
REMARK   18  A    between atoms: C_21  and  C_22
REMARK   19  A    between atoms: C_22  and  C_23
REMARK   20  A    between atoms: C_23  and  N_24
REMARK   21  A    between atoms: C_26  and  C_27
REMARK   22  A    between atoms: C_26  and  C_28
REMARK   23  A    between atoms: C_29  and  C_30
REMARK   24  A    between atoms: C_29  and  C_31
REMARK   25  A    between atoms: C_31  and  O_32
REMARK   26  A    between atoms: C_31  and  C_34
REMARK   27  A    between atoms: O_32  and  C_33
REMARK   28  A    between atoms: C_34  and  C_35
REMARK   29  A    between atoms: C_34  and  C_36
REMARK   30  A    between atoms: C_37  and  N_38
REMARK   31  A    between atoms: N_38  and  C_39
REMARK   32  A    between atoms: C_39  and  C_40
REMARK                            x       y       z     vdW  Elec       q    Type
REMARK                         _______ _______ _______ _____ _____    ______ ____
ROOT
ATOM      1  C   UNL     1     150.015 165.676 191.121  0.00  0.00    +0.108 C 
ATOM      2  H   UNL     1     149.508 164.725 190.915  0.00  0.00    +0.074 HD
ENDROOT
BRANCH   1   3
ATOM      3  C   UNL     1     151.045 165.910 189.999  0.00  0.00    -0.015 C 
ATOM      4  H   UNL     1     150.822 165.280 189.132  0.00  0.00    +0.030 HD
ATOM      5  H   UNL     1     150.986 166.953 189.681  0.00  0.00    +0.030 HD
BRANCH   3   6
ATOM      6  C   UNL     1     152.480 165.618 190.456  0.00  0.00    -0.045 C 
ATOM      7  H   UNL     1     152.785 166.329 191.230  0.00  0.00    +0.027 HD
ATOM      8  H   UNL     1     152.482 164.631 190.939  0.00  0.00    +0.027 HD
BRANCH   6   9
ATOM      9  C   UNL     1     153.512 165.602 189.301  0.00  0.00    -0.017 C 
ATOM     10  H   UNL     1     154.505 165.544 189.764  0.00  0.00    +0.032 HD
BRANCH   9  11
ATOM     11  C   UNL     1     153.458 166.948 188.561  0.00  0.00    -0.060 C 
ATOM     12  H   UNL     1     154.157 166.958 187.717  0.00  0.00    +0.023 HD
ATOM     13  H   UNL     1     152.455 167.167 188.181  0.00  0.00    +0.023 HD
ATOM     14  H   UNL     1     153.746 167.769 189.227  0.00  0.00    +0.023 HD
ENDBRANCH   9  11
BRANCH   9  15
ATOM     15  C   UNL     1     153.382 164.421 188.290  0.00  0.00    +0.064 C 
ATOM     16  H   UNL     1     152.682 163.694 188.717  0.00  0.00    +0.060 HD
BRANCH  15  17
ATOM     17  C   UNL     1     154.725 163.707 188.019  0.00  0.00    +0.011 C 
ATOM     18  H   UNL     1     154.689 163.280 187.009  0.00  0.00    +0.033 HD
ATOM     19  H   UNL     1     155.543 164.434 188.032  0.00  0.00    +0.033 HD
BRANCH  17  20
ATOM     20  C   UNL     1     155.091 162.562 188.993  0.00  0.00    +0.108 C 
ATOM     21  H   UNL     1     155.361 161.684 188.391  0.00  0.00    +0.074 HD
BRANCH  20  22
ATOM     22  C   UNL     1     156.287 162.863 189.933  0.00  0.00    -0.009 C 
ATOM     23  H   UNL     1     155.914 163.022 190.953  0.00  0.00    +0.033 HD
BRANCH  22  24
ATOM     24  C   UNL     1     157.239 161.661 190.008  0.00  0.00    -0.059 C 
ATOM     25  H   UNL     1     157.566 161.482 191.039  0.00  0.00    +0.023 HD
ATOM     26  H   UNL     1     158.133 161.828 189.396  0.00  0.00    +0.023 HD
ATOM     27  H   UNL     1     156.749 160.748 189.656  0.00  0.00    +0.023 HD
ENDBRANCH  22  24
BRANCH  22  28
ATOM     28  C   UNL     1     157.077 164.099 189.500  0.00  0.00    -0.059 C 
ATOM     29  H   UNL     1     158.021 164.178 190.054  0.00  0.00    +0.023 HD
ATOM     30  H   UNL     1     157.312 164.080 188.431  0.00  0.00    +0.023 HD
ATOM     31  H   UNL     1     156.501 165.013 189.683  0.00  0.00    +0.023 HD
ENDBRANCH  22  28
ENDBRANCH  20  22
BRANCH  20  32
ATOM     32  O   UNL     1     153.963 162.210 189.824  0.00  0.00    -0.461 OA
BRANCH  32  33
ATOM     33  C   UNL     1     153.401 160.989 189.607  0.00  0.00    +0.307 C 
ATOM     34  O   UNL     1     153.810 160.153 188.812  0.00  0.00    -0.251 OA
BRANCH  33  35
ATOM     35  C   UNL     1     152.187 160.820 190.488  0.00  0.00    +0.046 C 
ATOM     36  H   UNL     1     151.460 161.590 190.217  0.00  0.00    +0.038 HD
ATOM     37  H   UNL     1     152.490 160.971 191.530  0.00  0.00    +0.038 HD
BRANCH  35  38
ATOM     38  C   UNL     1     151.591 159.419 190.337  0.00  0.00    -0.031 C 
ATOM     39  H   UNL     1     150.494 159.471 190.369  0.00  0.00    +0.028 HD
ATOM     40  H   UNL     1     151.846 159.026 189.346  0.00  0.00    +0.028 HD
BRANCH  38  41
ATOM     41  C   UNL     1     152.094 158.440 191.397  0.00  0.00    -0.006 C 
ATOM     42  H   UNL     1     151.365 157.637 191.545  0.00  0.00    +0.042 HD
ATOM     43  H   UNL     1     152.207 158.964 192.355  0.00  0.00    +0.042 HD
BRANCH  41  44
ATOM     44  N   UNL     1     153.380 157.864 191.017  0.00  0.00    -0.330 NA
ATOM     45  H   UNL     1     153.963 158.593 190.602  0.00  0.00    +0.118 HD
ATOM     46  H   UNL     1     153.874 157.564 191.858  0.00  0.00    +0.118 HD
ENDBRANCH  41  44
ENDBRANCH  38  41
ENDBRANCH  35  38
ENDBRANCH  33  35
ENDBRANCH  32  33
ENDBRANCH  20  32
ENDBRANCH  17  20
ENDBRANCH  15  17
BRANCH  15  47
ATOM     47  O   UNL     1     152.859 164.860 187.029  0.00  0.00    -0.379 OA
BRANCH  47  48
ATOM     48  C   UNL     1     151.639 164.238 186.658  0.00  0.00    +0.037 C 
ATOM     49  H   UNL     1     151.795 163.175 186.453  0.00  0.00    +0.052 HD
ATOM     50  H   UNL     1     151.193 164.733 185.794  0.00  0.00    +0.052 HD
ATOM     51  H   UNL     1     150.947 164.322 187.501  0.00  0.00    +0.052 HD
ENDBRANCH  47  48
ENDBRANCH  15  47
ENDBRANCH   9  15
ENDBRANCH   6   9
ENDBRANCH   3   6
ENDBRANCH   1   3
BRANCH   1  52
ATOM     52  C   UNL     1     148.938 166.802 191.221  0.00  0.00    +0.020 C 
ATOM     53  H   UNL     1     148.008 166.313 191.541  0.00  0.00    +0.036 HD
BRANCH  52  54
ATOM     54  C   UNL     1     148.694 167.384 189.819  0.00  0.00    -0.057 C 
ATOM     55  H   UNL     1     149.514 167.117 189.139  0.00  0.00    +0.023 HD
ATOM     56  H   UNL     1     148.612 168.478 189.837  0.00  0.00    +0.023 HD
ATOM     57  H   UNL     1     147.778 166.986 189.375  0.00  0.00    +0.023 HD
ENDBRANCH  52  54
BRANCH  52  58
ATOM     58  C   UNL     1     149.265 167.902 192.283  0.00  0.00    +0.070 C 
ATOM     59  H   UNL     1     150.056 167.527 192.944  0.00  0.00    +0.061 HD
BRANCH  58  60
ATOM     60  C   UNL     1     149.780 169.247 191.677  0.00  0.00    +0.002 C 
ATOM     61  H   UNL     1     149.834 169.125 190.587  0.00  0.00    +0.037 HD
BRANCH  60  62
ATOM     62  C   UNL     1     148.885 170.427 192.008  0.00  0.00    -0.065 C 
ATOM     63  C   UNL     1     148.871 171.564 191.295  0.00  0.00    -0.005 C 
ATOM     64  H   UNL     1     148.247 170.296 192.881  0.00  0.00    +0.059 HD
ATOM     65  H   UNL     1     149.542 171.646 190.440  0.00  0.00    +0.078 HD
BRANCH  63  66
ATOM     66  N   UNL     1     148.086 172.681 191.540  0.00  0.00    -0.281 N 
ATOM     67  C   UNL     1     146.881 172.851 190.865  0.00  0.00    +0.206 C 
ATOM     68  O   UNL     1     146.119 173.807 190.958  0.00  0.00    -0.279 OA
ATOM     69  H   UNL     1     146.647 172.015 190.190  0.00  0.00    +0.126 HD
BRANCH  66  70
ATOM     70  C   UNL     1     148.488 173.742 192.463  0.00  0.00    +0.016 C 
ATOM     71  H   UNL     1     148.207 174.717 192.056  0.00  0.00    +0.047 HD
ATOM     72  H   UNL     1     149.583 173.754 192.541  0.00  0.00    +0.047 HD
BRANCH  70  73
ATOM     73  C   UNL     1     147.911 173.540 193.855  0.00  0.00    -0.049 C 
ATOM     74  H   UNL     1     146.816 173.478 193.828  0.00  0.00    +0.024 HD
ATOM     75  H   UNL     1     148.196 174.372 194.506  0.00  0.00    +0.024 HD
ATOM     76  H   UNL     1     148.281 172.611 194.297  0.00  0.00    +0.024 HD
ENDBRANCH  70  73
ENDBRANCH  66  70
ENDBRANCH  63  66
ENDBRANCH  60  62
BRANCH  60  77
ATOM     77  C   UNL     1     151.206 169.569 192.143  0.00  0.00    -0.057 C 
ATOM     78  H   UNL     1     151.823 169.974 191.333  0.00  0.00    +0.024 HD
ATOM     79  H   UNL     1     151.188 170.297 192.962  0.00  0.00    +0.024 HD
ATOM     80  H   UNL     1     151.705 168.667 192.516  0.00  0.00    +0.024 HD
ENDBRANCH  60  77
ENDBRANCH  58  60
BRANCH  58  81
ATOM     81  O   UNL     1     148.074 168.180 193.041  0.00  0.00    -0.379 OA
BRANCH  81  82
ATOM     82  C   UNL     1     147.629 167.092 193.841  0.00  0.00    +0.037 C 
ATOM     83  H   UNL     1     148.106 166.162 193.528  0.00  0.00    +0.052 HD
ATOM     84  H   UNL     1     147.825 167.277 194.900  0.00  0.00    +0.052 HD
ATOM     85  H   UNL     1     146.551 166.989 193.697  0.00  0.00    +0.052 HD
ENDBRANCH  81  82
ENDBRANCH  58  81
ENDBRANCH  52  58
ENDBRANCH   1  52
BRANCH   1  86
ATOM     86  O   UNL     1     150.753 165.557 192.355  0.00  0.00    -0.459 OA
BRANCH  86  88
ATOM     87  O   UNL     1     149.262 163.998 193.137  0.00  0.00    -0.248 OA
ATOM     88  C   UNL     1     150.296 164.643 193.255  0.00  0.00    +0.337 C 
BRANCH  88  89
ATOM     89  C   UNL     1     151.267 164.567 194.445  0.00  0.00    +0.155 C 
ATOM     90  O   UNL     1     150.694 163.885 195.575  0.00  0.00    -0.365 OA
ATOM     91  C   UNL     1     150.347 164.846 196.577  0.00  0.00    +0.049 C 
ATOM     92  C   UNL     1     150.555 166.218 195.973  0.00  0.00    -0.027 C 
ATOM     93  C   UNL     1     151.617 165.966 194.928  0.00  0.00    -0.014 C 
ATOM     94  H   UNL     1     152.153 164.004 194.128  0.00  0.00    +0.071 HD
ATOM     95  H   UNL     1     151.005 164.691 197.437  0.00  0.00    +0.056 HD
ATOM     96  H   UNL     1     149.314 164.685 196.894  0.00  0.00    +0.056 HD
ATOM     97  H   UNL     1     150.840 166.968 196.715  0.00  0.00    +0.029 HD
ATOM     98  H   UNL     1     149.632 166.561 195.491  0.00  0.00    +0.029 HD
ATOM     99  H   UNL     1     151.618 166.731 194.146  0.00  0.00    +0.030 HD
ATOM    100  H   UNL     1     152.607 165.955 195.408  0.00  0.00    +0.030 HD
ENDBRANCH  88  89
ENDBRANCH  86  88
ENDBRANCH   1  86
TORSDOF 32
ENDMDL
MODEL 8
REMARK VINA RESULT:      -5.1      4.033      7.765
REMARK  Name = 2a_conf1
REMARK  32 active torsions:
REMARK  status: ('A' for Active; 'I' for Inactive)
REMARK    1  A    between atoms: C_2  and  C_3
REMARK    2  A    between atoms: C_2  and  O_8
REMARK    3  A    between atoms: O_8  and  C_9
REMARK    4  A    between atoms: C_9  and  C_10
REMARK    5  A    between atoms: C_9  and  C_29
REMARK    6  A    between atoms: C_10  and  C_11
REMARK    7  A    between atoms: C_11  and  C_12
REMARK    8  A    between atoms: C_12  and  C_13
REMARK    9  A    between atoms: C_12  and  C_14
REMARK   10  A    between atoms: C_14  and  O_15
REMARK   11  A    between atoms: C_14  and  C_17
REMARK   12  A    between atoms: O_15  and  C_16
REMARK   13  A    between atoms: C_17  and  C_18
REMARK   14  A    between atoms: C_18  and  O_19
REMARK   15  A    between atoms: C_18  and  C_26
REMARK   16  A    between atoms: O_19  and  C_20
REMARK   17  A    between atoms: C_20  and  C_21
REMARK   18  A    between atoms: C_21  and  C_22
REMARK   19  A    between atoms: C_22  and  C_23
REMARK   20  A    between atoms: C_23  and  N_24
REMARK   21  A    between atoms: C_26  and  C_27
REMARK   22  A    between atoms: C_26  and  C_28
REMARK   23  A    between atoms: C_29  and  C_30
REMARK   24  A    between atoms: C_29  and  C_31
REMARK   25  A    between atoms: C_31  and  O_32
REMARK   26  A    between atoms: C_31  and  C_34
REMARK   27  A    between atoms: O_32  and  C_33
REMARK   28  A    between atoms: C_34  and  C_35
REMARK   29  A    between atoms: C_34  and  C_36
REMARK   30  A    between atoms: C_37  and  N_38
REMARK   31  A    between atoms: N_38  and  C_39
REMARK   32  A    between atoms: C_39  and  C_40
REMARK                            x       y       z     vdW  Elec       q    Type
REMARK                         _______ _______ _______ _____ _____    ______ ____
ROOT
ATOM      1  C   UNL     1     150.058 165.812 191.204  0.00  0.00    +0.108 C 
ATOM      2  H   UNL     1     149.733 164.837 190.820  0.00  0.00    +0.074 HD
ENDROOT
BRANCH   1   3
ATOM      3  C   UNL     1     151.077 166.393 190.205  0.00  0.00    -0.015 C 
ATOM      4  H   UNL     1     150.922 165.973 189.206  0.00  0.00    +0.030 HD
ATOM      5  H   UNL     1     150.929 167.473 190.142  0.00  0.00    +0.030 HD
BRANCH   3   6
ATOM      6  C   UNL     1     152.527 166.123 190.628  0.00  0.00    -0.045 C 
ATOM      7  H   UNL     1     152.844 166.848 191.383  0.00  0.00    +0.027 HD
ATOM      8  H   UNL     1     152.552 165.143 191.125  0.00  0.00    +0.027 HD
BRANCH   6   9
ATOM      9  C   UNL     1     153.528 166.099 189.447  0.00  0.00    -0.017 C 
ATOM     10  H   UNL     1     154.436 166.610 189.790  0.00  0.00    +0.032 HD
BRANCH   9  11
ATOM     11  C   UNL     1     152.965 166.948 188.295  0.00  0.00    -0.060 C 
ATOM     12  H   UNL     1     153.215 166.504 187.324  0.00  0.00    +0.023 HD
ATOM     13  H   UNL     1     151.877 167.053 188.357  0.00  0.00    +0.023 HD
ATOM     14  H   UNL     1     153.397 167.955 188.308  0.00  0.00    +0.023 HD
ENDBRANCH   9  11
BRANCH   9  15
ATOM     15  C   UNL     1     153.935 164.685 188.930  0.00  0.00    +0.064 C 
ATOM     16  H   UNL     1     153.620 164.611 187.883  0.00  0.00    +0.060 HD
BRANCH  15  17
ATOM     17  C   UNL     1     153.272 163.538 189.723  0.00  0.00    +0.011 C 
ATOM     18  H   UNL     1     154.043 162.792 189.958  0.00  0.00    +0.033 HD
ATOM     19  H   UNL     1     152.890 163.916 190.677  0.00  0.00    +0.033 HD
BRANCH  17  20
ATOM     20  C   UNL     1     152.116 162.799 189.008  0.00  0.00    +0.108 C 
ATOM     21  H   UNL     1     151.307 162.658 189.736  0.00  0.00    +0.074 HD
BRANCH  20  22
ATOM     22  C   UNL     1     151.518 163.549 187.790  0.00  0.00    -0.009 C 
ATOM     23  H   UNL     1     151.988 164.537 187.707  0.00  0.00    +0.033 HD
BRANCH  22  24
ATOM     24  C   UNL     1     151.839 162.811 186.483  0.00  0.00    -0.059 C 
ATOM     25  H   UNL     1     150.927 162.419 186.019  0.00  0.00    +0.023 HD
ATOM     26  H   UNL     1     152.515 161.967 186.662  0.00  0.00    +0.023 HD
ATOM     27  H   UNL     1     152.313 163.480 185.758  0.00  0.00    +0.023 HD
ENDBRANCH  22  24
BRANCH  22  28
ATOM     28  C   UNL     1     150.003 163.733 187.899  0.00  0.00    -0.059 C 
ATOM     29  H   UNL     1     149.755 164.567 188.567  0.00  0.00    +0.023 HD
ATOM     30  H   UNL     1     149.544 163.929 186.926  0.00  0.00    +0.023 HD
ATOM     31  H   UNL     1     149.530 162.828 188.298  0.00  0.00    +0.023 HD
ENDBRANCH  22  28
ENDBRANCH  20  22
BRANCH  20  32
ATOM     32  O   UNL     1     152.543 161.496 188.549  0.00  0.00    -0.461 OA
BRANCH  32  33
ATOM     33  C   UNL     1     152.115 160.424 189.272  0.00  0.00    +0.307 C 
ATOM     34  O   UNL     1     152.782 159.818 190.100  0.00  0.00    -0.251 OA
BRANCH  33  35
ATOM     35  C   UNL     1     150.693 160.086 188.894  0.00  0.00    +0.046 C 
ATOM     36  H   UNL     1     150.715 159.205 188.246  0.00  0.00    +0.038 HD
ATOM     37  H   UNL     1     150.273 160.928 188.333  0.00  0.00    +0.038 HD
BRANCH  35  38
ATOM     38  C   UNL     1     149.840 159.836 190.140  0.00  0.00    -0.031 C 
ATOM     39  H   UNL     1     149.041 159.117 189.910  0.00  0.00    +0.028 HD
ATOM     40  H   UNL     1     150.461 159.363 190.910  0.00  0.00    +0.028 HD
BRANCH  38  41
ATOM     41  C   UNL     1     149.236 161.116 190.714  0.00  0.00    -0.006 C 
ATOM     42  H   UNL     1     148.429 161.476 190.068  0.00  0.00    +0.042 HD
ATOM     43  H   UNL     1     150.004 161.899 190.749  0.00  0.00    +0.042 HD
BRANCH  41  44
ATOM     44  N   UNL     1     148.718 160.898 192.061  0.00  0.00    -0.330 NA
ATOM     45  H   UNL     1     147.933 161.532 192.223  0.00  0.00    +0.118 HD
ATOM     46  H   UNL     1     148.327 159.957 192.121  0.00  0.00    +0.118 HD
ENDBRANCH  41  44
ENDBRANCH  38  41
ENDBRANCH  35  38
ENDBRANCH  33  35
ENDBRANCH  32  33
ENDBRANCH  20  32
ENDBRANCH  17  20
ENDBRANCH  15  17
BRANCH  15  47
ATOM     47  O   UNL     1     155.355 164.491 188.986  0.00  0.00    -0.379 OA
BRANCH  47  48
ATOM     48  C   UNL     1     155.747 163.203 189.435  0.00  0.00    +0.037 C 
ATOM     49  H   UNL     1     156.266 162.659 188.642  0.00  0.00    +0.052 HD
ATOM     50  H   UNL     1     154.886 162.632 189.789  0.00  0.00    +0.052 HD
ATOM     51  H   UNL     1     156.443 163.333 190.269  0.00  0.00    +0.052 HD
ENDBRANCH  47  48
ENDBRANCH  15  47
ENDBRANCH   9  15
ENDBRANCH   6   9
ENDBRANCH   3   6
ENDBRANCH   1   3
BRANCH   1  52
ATOM     52  C   UNL     1     148.799 166.713 191.404  0.00  0.00    +0.020 C 
ATOM     53  H   UNL     1     148.013 166.061 191.808  0.00  0.00    +0.036 HD
BRANCH  52  54
ATOM     54  C   UNL     1     148.322 167.214 190.030  0.00  0.00    -0.057 C 
ATOM     55  H   UNL     1     148.308 166.393 189.302  0.00  0.00    +0.023 HD
ATOM     56  H   UNL     1     148.969 168.007 189.635  0.00  0.00    +0.023 HD
ATOM     57  H   UNL     1     147.302 167.605 190.079  0.00  0.00    +0.023 HD
ENDBRANCH  52  54
BRANCH  52  58
ATOM     58  C   UNL     1     149.004 167.873 192.431  0.00  0.00    +0.070 C 
ATOM     59  H   UNL     1     149.891 167.653 193.038  0.00  0.00    +0.061 HD
BRANCH  58  60
ATOM     60  C   UNL     1     149.238 169.274 191.779  0.00  0.00    +0.002 C 
ATOM     61  H   UNL     1     149.138 169.159 190.692  0.00  0.00    +0.037 HD
BRANCH  60  62
ATOM     62  C   UNL     1     148.257 170.325 192.267  0.00  0.00    -0.065 C 
ATOM     63  C   UNL     1     148.488 171.645 192.182  0.00  0.00    -0.005 C 
ATOM     64  H   UNL     1     147.340 169.937 192.706  0.00  0.00    +0.059 HD
ATOM     65  H   UNL     1     149.430 171.977 191.747  0.00  0.00    +0.078 HD
BRANCH  63  66
ATOM     66  N   UNL     1     147.643 172.659 192.609  0.00  0.00    -0.281 N 
ATOM     67  C   UNL     1     147.873 173.293 193.827  0.00  0.00    +0.206 C 
ATOM     68  O   UNL     1     147.183 174.169 194.336  0.00  0.00    -0.279 OA
ATOM     69  H   UNL     1     148.772 172.923 194.340  0.00  0.00    +0.126 HD
BRANCH  66  70
ATOM     70  C   UNL     1     146.467 173.080 191.849  0.00  0.00    +0.016 C 
ATOM     71  H   UNL     1     146.080 174.020 192.251  0.00  0.00    +0.047 HD
ATOM     72  H   UNL     1     145.666 172.343 191.989  0.00  0.00    +0.047 HD
BRANCH  70  73
ATOM     73  C   UNL     1     146.758 173.196 190.362  0.00  0.00    -0.049 C 
ATOM     74  H   UNL     1     145.840 173.370 189.787  0.00  0.00    +0.024 HD
ATOM     75  H   UNL     1     147.228 172.279 189.996  0.00  0.00    +0.024 HD
ATOM     76  H   UNL     1     147.433 174.034 190.163  0.00  0.00    +0.024 HD
ENDBRANCH  70  73
ENDBRANCH  66  70
ENDBRANCH  63  66
ENDBRANCH  60  62
BRANCH  60  77
ATOM     77  C   UNL     1     150.663 169.784 192.028  0.00  0.00    -0.057 C 
ATOM     78  H   UNL     1     150.913 169.806 193.095  0.00  0.00    +0.024 HD
ATOM     79  H   UNL     1     151.394 169.149 191.515  0.00  0.00    +0.024 HD
ATOM     80  H   UNL     1     150.784 170.803 191.641  0.00  0.00    +0.024 HD
ENDBRANCH  60  77
ENDBRANCH  58  60
BRANCH  58  81
ATOM     81  O   UNL     1     147.838 167.959 193.270  0.00  0.00    -0.379 OA
BRANCH  81  82
ATOM     82  C   UNL     1     147.415 166.711 193.803  0.00  0.00    +0.037 C 
ATOM     83  H   UNL     1     146.516 166.357 193.295  0.00  0.00    +0.052 HD
ATOM     84  H   UNL     1     148.208 165.962 193.729  0.00  0.00    +0.052 HD
ATOM     85  H   UNL     1     147.174 166.862 194.858  0.00  0.00    +0.052 HD
ENDBRANCH  81  82
ENDBRANCH  58  81
ENDBRANCH  52  58
ENDBRANCH   1  52
BRANCH   1  86
ATOM     86  O   UNL     1     150.754 165.616 192.453  0.00  0.00    -0.459 OA
BRANCH  86  88
ATOM     87  O   UNL     1     149.413 163.823 192.954  0.00  0.00    -0.248 OA
ATOM     88  C   UNL     1     150.340 164.575 193.228  0.00  0.00    +0.337 C 
BRANCH  88  89
ATOM     89  C   UNL     1     151.199 164.510 194.501  0.00  0.00    +0.155 C 
ATOM     90  O   UNL     1     150.481 163.955 195.617  0.00  0.00    -0.365 OA
ATOM     91  C   UNL     1     150.131 165.008 196.521  0.00  0.00    +0.049 C 
ATOM     92  C   UNL     1     150.499 166.315 195.851  0.00  0.00    -0.027 C 
ATOM     93  C   UNL     1     151.620 165.910 194.922  0.00  0.00    -0.014 C 
ATOM     94  H   UNL     1     152.059 163.861 194.300  0.00  0.00    +0.071 HD
ATOM     95  H   UNL     1     150.700 164.865 197.444  0.00  0.00    +0.056 HD
ATOM     96  H   UNL     1     149.065 164.948 196.755  0.00  0.00    +0.056 HD
ATOM     97  H   UNL     1     150.782 167.091 196.566  0.00  0.00    +0.029 HD
ATOM     98  H   UNL     1     149.650 166.691 195.268  0.00  0.00    +0.029 HD
ATOM     99  H   UNL     1     151.748 166.615 194.096  0.00  0.00    +0.030 HD
ATOM    100  H   UNL     1     152.563 165.858 195.487  0.00  0.00    +0.030 HD
ENDBRANCH  88  89
ENDBRANCH  86  88
ENDBRANCH   1  86
TORSDOF 32
ENDMDL
MODEL 9
REMARK VINA RESULT:      -5.1      2.744      6.190
REMARK  Name = 2a_conf1
REMARK  32 active torsions:
REMARK  status: ('A' for Active; 'I' for Inactive)
REMARK    1  A    between atoms: C_2  and  C_3
REMARK    2  A    between atoms: C_2  and  O_8
REMARK    3  A    between atoms: O_8  and  C_9
REMARK    4  A    between atoms: C_9  and  C_10
REMARK    5  A    between atoms: C_9  and  C_29
REMARK    6  A    between atoms: C_10  and  C_11
REMARK    7  A    between atoms: C_11  and  C_12
REMARK    8  A    between atoms: C_12  and  C_13
REMARK    9  A    between atoms: C_12  and  C_14
REMARK   10  A    between atoms: C_14  and  O_15
REMARK   11  A    between atoms: C_14  and  C_17
REMARK   12  A    between atoms: O_15  and  C_16
REMARK   13  A    between atoms: C_17  and  C_18
REMARK   14  A    between atoms: C_18  and  O_19
REMARK   15  A    between atoms: C_18  and  C_26
REMARK   16  A    between atoms: O_19  and  C_20
REMARK   17  A    between atoms: C_20  and  C_21
REMARK   18  A    between atoms: C_21  and  C_22
REMARK   19  A    between atoms: C_22  and  C_23
REMARK   20  A    between atoms: C_23  and  N_24
REMARK   21  A    between atoms: C_26  and  C_27
REMARK   22  A    between atoms: C_26  and  C_28
REMARK   23  A    between atoms: C_29  and  C_30
REMARK   24  A    between atoms: C_29  and  C_31
REMARK   25  A    between atoms: C_31  and  O_32
REMARK   26  A    between atoms: C_31  and  C_34
REMARK   27  A    between atoms: O_32  and  C_33
REMARK   28  A    between atoms: C_34  and  C_35
REMARK   29  A    between atoms: C_34  and  C_36
REMARK   30  A    between atoms: C_37  and  N_38
REMARK   31  A    between atoms: N_38  and  C_39
REMARK   32  A    between atoms: C_39  and  C_40
REMARK                            x       y       z     vdW  Elec       q    Type
REMARK                         _______ _______ _______ _____ _____    ______ ____
ROOT
ATOM      1  C   UNL     1     147.832 169.727 191.313  0.00  0.00    +0.108 C 
ATOM      2  H   UNL     1     147.034 169.544 192.042  0.00  0.00    +0.074 HD
ENDROOT
BRANCH   1   3
ATOM      3  C   UNL     1     149.178 169.605 192.052  0.00  0.00    -0.015 C 
ATOM      4  H   UNL     1     149.428 170.542 192.560  0.00  0.00    +0.030 HD
ATOM      5  H   UNL     1     149.092 168.824 192.810  0.00  0.00    +0.030 HD
BRANCH   3   6
ATOM      6  C   UNL     1     150.332 169.243 191.107  0.00  0.00    -0.045 C 
ATOM      7  H   UNL     1     150.003 169.303 190.065  0.00  0.00    +0.027 HD
ATOM      8  H   UNL     1     151.109 170.011 191.220  0.00  0.00    +0.027 HD
BRANCH   6   9
ATOM      9  C   UNL     1     150.965 167.859 191.395  0.00  0.00    -0.017 C 
ATOM     10  H   UNL     1     150.191 167.249 191.876  0.00  0.00    +0.032 HD
BRANCH   9  11
ATOM     11  C   UNL     1     152.088 168.026 192.430  0.00  0.00    -0.060 C 
ATOM     12  H   UNL     1     152.129 167.165 193.106  0.00  0.00    +0.023 HD
ATOM     13  H   UNL     1     153.069 168.140 191.956  0.00  0.00    +0.023 HD
ATOM     14  H   UNL     1     151.916 168.913 193.050  0.00  0.00    +0.023 HD
ENDBRANCH   9  11
BRANCH   9  15
ATOM     15  C   UNL     1     151.488 167.079 190.149  0.00  0.00    +0.064 C 
ATOM     16  H   UNL     1     150.616 166.769 189.562  0.00  0.00    +0.060 HD
BRANCH  15  17
ATOM     17  C   UNL     1     152.301 165.820 190.522  0.00  0.00    +0.011 C 
ATOM     18  H   UNL     1     153.312 165.929 190.109  0.00  0.00    +0.033 HD
ATOM     19  H   UNL     1     152.403 165.751 191.610  0.00  0.00    +0.033 HD
BRANCH  17  20
ATOM     20  C   UNL     1     151.736 164.472 190.011  0.00  0.00    +0.108 C 
ATOM     21  H   UNL     1     152.433 164.082 189.258  0.00  0.00    +0.074 HD
BRANCH  20  22
ATOM     22  C   UNL     1     151.571 163.381 191.100  0.00  0.00    -0.009 C 
ATOM     23  H   UNL     1     152.060 163.714 192.023  0.00  0.00    +0.033 HD
BRANCH  22  24
ATOM     24  C   UNL     1     150.089 163.178 191.449  0.00  0.00    -0.059 C 
ATOM     25  H   UNL     1     149.535 164.121 191.372  0.00  0.00    +0.023 HD
ATOM     26  H   UNL     1     149.974 162.803 192.472  0.00  0.00    +0.023 HD
ATOM     27  H   UNL     1     149.618 162.465 190.767  0.00  0.00    +0.023 HD
ENDBRANCH  22  24
BRANCH  22  28
ATOM     28  C   UNL     1     152.172 162.038 190.681  0.00  0.00    -0.059 C 
ATOM     29  H   UNL     1     152.880 161.671 191.435  0.00  0.00    +0.023 HD
ATOM     30  H   UNL     1     151.403 161.274 190.536  0.00  0.00    +0.023 HD
ATOM     31  H   UNL     1     152.710 162.133 189.731  0.00  0.00    +0.023 HD
ENDBRANCH  22  28
ENDBRANCH  20  22
BRANCH  20  32
ATOM     32  O   UNL     1     150.448 164.658 189.383  0.00  0.00    -0.461 OA
BRANCH  32  33
ATOM     33  C   UNL     1     150.366 164.358 188.057  0.00  0.00    +0.307 C 
ATOM     34  O   UNL     1     151.213 163.751 187.416  0.00  0.00    -0.251 OA
BRANCH  33  35
ATOM     35  C   UNL     1     149.074 164.895 187.489  0.00  0.00    +0.046 C 
ATOM     36  H   UNL     1     148.248 164.476 188.071  0.00  0.00    +0.038 HD
ATOM     37  H   UNL     1     148.984 164.556 186.451  0.00  0.00    +0.038 HD
BRANCH  35  38
ATOM     38  C   UNL     1     149.055 166.425 187.522  0.00  0.00    -0.031 C 
ATOM     39  H   UNL     1     148.152 166.778 188.038  0.00  0.00    +0.028 HD
ATOM     40  H   UNL     1     149.904 166.781 188.119  0.00  0.00    +0.028 HD
BRANCH  38  41
ATOM     41  C   UNL     1     149.136 167.051 186.131  0.00  0.00    -0.006 C 
ATOM     42  H   UNL     1     148.307 166.697 185.509  0.00  0.00    +0.042 HD
ATOM     43  H   UNL     1     150.070 166.741 185.644  0.00  0.00    +0.042 HD
BRANCH  41  44
ATOM     44  N   UNL     1     149.100 168.509 186.204  0.00  0.00    -0.330 NA
ATOM     45  H   UNL     1     149.520 168.895 185.357  0.00  0.00    +0.118 HD
ATOM     46  H   UNL     1     148.128 168.820 186.194  0.00  0.00    +0.118 HD
ENDBRANCH  41  44
ENDBRANCH  38  41
ENDBRANCH  35  38
ENDBRANCH  33  35
ENDBRANCH  32  33
ENDBRANCH  20  32
ENDBRANCH  17  20
ENDBRANCH  15  17
BRANCH  15  47
ATOM     47  O   UNL     1     152.317 167.904 189.319  0.00  0.00    -0.379 OA
BRANCH  47  48
ATOM     48  C   UNL     1     152.547 167.375 188.022  0.00  0.00    +0.037 C 
ATOM     49  H   UNL     1     152.991 166.378 188.085  0.00  0.00    +0.052 HD
ATOM     50  H   UNL     1     153.183 168.041 187.435  0.00  0.00    +0.052 HD
ATOM     51  H   UNL     1     151.581 167.286 187.517  0.00  0.00    +0.052 HD
ENDBRANCH  47  48
ENDBRANCH  15  47
ENDBRANCH   9  15
ENDBRANCH   6   9
ENDBRANCH   3   6
ENDBRANCH   1   3
BRANCH   1  52
ATOM     52  C   UNL     1     147.674 168.714 190.136  0.00  0.00    +0.020 C 
ATOM     53  H   UNL     1     148.684 168.344 189.910  0.00  0.00    +0.036 HD
BRANCH  52  54
ATOM     54  C   UNL     1     147.170 169.469 188.894  0.00  0.00    -0.057 C 
ATOM     55  H   UNL     1     147.672 170.440 188.799  0.00  0.00    +0.023 HD
ATOM     56  H   UNL     1     146.089 169.647 188.933  0.00  0.00    +0.023 HD
ATOM     57  H   UNL     1     147.386 168.915 187.975  0.00  0.00    +0.023 HD
ENDBRANCH  52  54
BRANCH  52  58
ATOM     58  C   UNL     1     146.797 167.468 190.483  0.00  0.00    +0.070 C 
ATOM     59  H   UNL     1     146.285 167.134 189.572  0.00  0.00    +0.061 HD
BRANCH  58  60
ATOM     60  C   UNL     1     147.605 166.244 191.023  0.00  0.00    +0.002 C 
ATOM     61  H   UNL     1     148.603 166.274 190.568  0.00  0.00    +0.037 HD
BRANCH  60  62
ATOM     62  C   UNL     1     147.740 166.245 192.535  0.00  0.00    -0.065 C 
ATOM     63  C   UNL     1     148.911 166.082 193.170  0.00  0.00    -0.005 C 
ATOM     64  H   UNL     1     146.810 166.379 193.085  0.00  0.00    +0.059 HD
ATOM     65  H   UNL     1     149.809 165.936 192.569  0.00  0.00    +0.078 HD
BRANCH  63  66
ATOM     66  N   UNL     1     149.110 166.067 194.543  0.00  0.00    -0.281 N 
ATOM     67  C   UNL     1     148.020 166.116 195.408  0.00  0.00    +0.206 C 
ATOM     68  O   UNL     1     148.060 166.150 196.632  0.00  0.00    -0.279 OA
ATOM     69  H   UNL     1     147.055 166.130 194.880  0.00  0.00    +0.126 HD
BRANCH  66  70
ATOM     70  C   UNL     1     150.441 166.046 195.148  0.00  0.00    +0.016 C 
ATOM     71  H   UNL     1     150.363 166.204 196.227  0.00  0.00    +0.047 HD
ATOM     72  H   UNL     1     151.024 166.892 194.763  0.00  0.00    +0.047 HD
BRANCH  70  73
ATOM     73  C   UNL     1     151.192 164.762 194.834  0.00  0.00    -0.049 C 
ATOM     74  H   UNL     1     152.107 164.678 195.433  0.00  0.00    +0.024 HD
ATOM     75  H   UNL     1     151.467 164.735 193.776  0.00  0.00    +0.024 HD
ATOM     76  H   UNL     1     150.574 163.887 195.055  0.00  0.00    +0.024 HD
ENDBRANCH  70  73
ENDBRANCH  66  70
ENDBRANCH  63  66
ENDBRANCH  60  62
BRANCH  60  77
ATOM     77  C   UNL     1     146.975 164.914 190.589  0.00  0.00    -0.057 C 
ATOM     78  H   UNL     1     146.183 165.057 189.845  0.00  0.00    +0.024 HD
ATOM     79  H   UNL     1     147.735 164.249 190.162  0.00  0.00    +0.024 HD
ATOM     80  H   UNL     1     146.531 164.398 191.447  0.00  0.00    +0.024 HD
ENDBRANCH  60  77
ENDBRANCH  58  60
BRANCH  58  81
ATOM     81  O   UNL     1     145.835 167.846 191.484  0.00  0.00    -0.379 OA
BRANCH  81  82
ATOM     82  C   UNL     1     144.483 167.698 191.073  0.00  0.00    +0.037 C 
ATOM     83  H   UNL     1     144.329 168.134 190.084  0.00  0.00    +0.052 HD
ATOM     84  H   UNL     1     144.185 166.646 191.070  0.00  0.00    +0.052 HD
ATOM     85  H   UNL     1     143.854 168.238 191.785  0.00  0.00    +0.052 HD
ENDBRANCH  81  82
ENDBRANCH  58  81
ENDBRANCH  52  58
ENDBRANCH   1  52
BRANCH   1  86
ATOM     86  O   UNL     1     147.732 171.086 190.839  0.00  0.00    -0.459 OA
BRANCH  86  88
ATOM     87  O   UNL     1     145.566 171.497 191.474  0.00  0.00    -0.248 OA
ATOM     88  C   UNL     1     146.734 171.848 191.368  0.00  0.00    +0.337 C 
BRANCH  88  89
ATOM     89  C   UNL     1     147.299 173.215 191.786  0.00  0.00    +0.155 C 
ATOM     90  O   UNL     1     148.725 173.293 191.613  0.00  0.00    -0.365 OA
ATOM     91  C   UNL     1     149.359 173.212 192.893  0.00  0.00    +0.049 C 
ATOM     92  C   UNL     1     148.282 172.893 193.908  0.00  0.00    -0.027 C 
ATOM     93  C   UNL     1     147.038 173.462 193.264  0.00  0.00    -0.014 C 
ATOM     94  H   UNL     1     146.842 173.982 191.150  0.00  0.00    +0.071 HD
ATOM     95  H   UNL     1     149.823 174.180 193.103  0.00  0.00    +0.056 HD
ATOM     96  H   UNL     1     150.141 172.449 192.865  0.00  0.00    +0.056 HD
ATOM     97  H   UNL     1     148.494 173.310 194.895  0.00  0.00    +0.029 HD
ATOM     98  H   UNL     1     148.179 171.807 194.019  0.00  0.00    +0.029 HD
ATOM     99  H   UNL     1     146.125 172.999 193.649  0.00  0.00    +0.030 HD
ATOM    100  H   UNL     1     146.990 174.544 193.456  0.00  0.00    +0.030 HD
ENDBRANCH  88  89
ENDBRANCH  86  88
ENDBRANCH   1  86
TORSDOF 32
ENDMDL
MODEL 10
REMARK VINA RESULT:      -5.0      5.038      8.953
REMARK  Name = 2a_conf1
REMARK  32 active torsions:
REMARK  status: ('A' for Active; 'I' for Inactive)
REMARK    1  A    between atoms: C_2  and  C_3
REMARK    2  A    between atoms: C_2  and  O_8
REMARK    3  A    between atoms: O_8  and  C_9
REMARK    4  A    between atoms: C_9  and  C_10
REMARK    5  A    between atoms: C_9  and  C_29
REMARK    6  A    between atoms: C_10  and  C_11
REMARK    7  A    between atoms: C_11  and  C_12
REMARK    8  A    between atoms: C_12  and  C_13
REMARK    9  A    between atoms: C_12  and  C_14
REMARK   10  A    between atoms: C_14  and  O_15
REMARK   11  A    between atoms: C_14  and  C_17
REMARK   12  A    between atoms: O_15  and  C_16
REMARK   13  A    between atoms: C_17  and  C_18
REMARK   14  A    between atoms: C_18  and  O_19
REMARK   15  A    between atoms: C_18  and  C_26
REMARK   16  A    between atoms: O_19  and  C_20
REMARK   17  A    between atoms: C_20  and  C_21
REMARK   18  A    between atoms: C_21  and  C_22
REMARK   19  A    between atoms: C_22  and  C_23
REMARK   20  A    between atoms: C_23  and  N_24
REMARK   21  A    between atoms: C_26  and  C_27
REMARK   22  A    between atoms: C_26  and  C_28
REMARK   23  A    between atoms: C_29  and  C_30
REMARK   24  A    between atoms: C_29  and  C_31
REMARK   25  A    between atoms: C_31  and  O_32
REMARK   26  A    between atoms: C_31  and  C_34
REMARK   27  A    between atoms: O_32  and  C_33
REMARK   28  A    between atoms: C_34  and  C_35
REMARK   29  A    between atoms: C_34  and  C_36
REMARK   30  A    between atoms: C_37  and  N_38
REMARK   31  A    between atoms: N_38  and  C_39
REMARK   32  A    between atoms: C_39  and  C_40
REMARK                            x       y       z     vdW  Elec       q    Type
REMARK                         _______ _______ _______ _____ _____    ______ ____
ROOT
ATOM      1  C   UNL     1     149.907 165.559 191.139  0.00  0.00    +0.108 C 
ATOM      2  H   UNL     1     149.321 164.635 191.065  0.00  0.00    +0.074 HD
ENDROOT
BRANCH   1   3
ATOM      3  C   UNL     1     150.850 165.613 189.921  0.00  0.00    -0.015 C 
ATOM      4  H   UNL     1     150.669 164.765 189.253  0.00  0.00    +0.030 HD
ATOM      5  H   UNL     1     150.649 166.530 189.363  0.00  0.00    +0.030 HD
BRANCH   3   6
ATOM      6  C   UNL     1     152.329 165.604 190.328  0.00  0.00    -0.045 C 
ATOM      7  H   UNL     1     152.424 165.599 191.419  0.00  0.00    +0.027 HD
ATOM      8  H   UNL     1     152.763 164.653 189.986  0.00  0.00    +0.027 HD
BRANCH   6   9
ATOM      9  C   UNL     1     153.153 166.765 189.720  0.00  0.00    -0.017 C 
ATOM     10  H   UNL     1     153.534 167.358 190.560  0.00  0.00    +0.032 HD
BRANCH   9  11
ATOM     11  C   UNL     1     152.211 167.689 188.931  0.00  0.00    -0.060 C 
ATOM     12  H   UNL     1     151.372 167.124 188.509  0.00  0.00    +0.023 HD
ATOM     13  H   UNL     1     151.807 168.492 189.556  0.00  0.00    +0.023 HD
ATOM     14  H   UNL     1     152.739 168.156 188.092  0.00  0.00    +0.023 HD
ENDBRANCH   9  11
BRANCH   9  15
ATOM     15  C   UNL     1     154.368 166.346 188.835  0.00  0.00    +0.064 C 
ATOM     16  H   UNL     1     154.534 167.143 188.102  0.00  0.00    +0.060 HD
BRANCH  15  17
ATOM     17  C   UNL     1     154.133 165.022 188.076  0.00  0.00    +0.011 C 
ATOM     18  H   UNL     1     155.078 164.463 188.060  0.00  0.00    +0.033 HD
ATOM     19  H   UNL     1     153.405 164.407 188.613  0.00  0.00    +0.033 HD
BRANCH  17  20
ATOM     20  C   UNL     1     153.652 165.157 186.611  0.00  0.00    +0.108 C 
ATOM     21  H   UNL     1     154.210 164.429 186.007  0.00  0.00    +0.074 HD
BRANCH  20  22
ATOM     22  C   UNL     1     152.142 164.880 186.393  0.00  0.00    -0.009 C 
ATOM     23  H   UNL     1     151.557 165.674 186.873  0.00  0.00    +0.033 HD
BRANCH  22  24
ATOM     24  C   UNL     1     151.789 164.930 184.900  0.00  0.00    -0.059 C 
ATOM     25  H   UNL     1     152.493 164.333 184.309  0.00  0.00    +0.023 HD
ATOM     26  H   UNL     1     151.819 165.957 184.522  0.00  0.00    +0.023 HD
ATOM     27  H   UNL     1     150.787 164.528 184.718  0.00  0.00    +0.023 HD
ENDBRANCH  22  24
BRANCH  22  28
ATOM     28  C   UNL     1     151.704 163.531 186.965  0.00  0.00    -0.059 C 
ATOM     29  H   UNL     1     152.482 162.770 186.818  0.00  0.00    +0.023 HD
ATOM     30  H   UNL     1     151.487 163.592 188.035  0.00  0.00    +0.023 HD
ATOM     31  H   UNL     1     150.790 163.179 186.473  0.00  0.00    +0.023 HD
ENDBRANCH  22  28
ENDBRANCH  20  22
BRANCH  20  32
ATOM     32  O   UNL     1     153.931 166.478 186.097  0.00  0.00    -0.461 OA
BRANCH  32  33
ATOM     33  C   UNL     1     155.064 166.618 185.353  0.00  0.00    +0.307 C 
ATOM     34  O   UNL     1     155.631 165.715 184.753  0.00  0.00    -0.251 OA
BRANCH  33  35
ATOM     35  C   UNL     1     155.523 168.056 185.385  0.00  0.00    +0.046 C 
ATOM     36  H   UNL     1     156.341 168.135 186.107  0.00  0.00    +0.038 HD
ATOM     37  H   UNL     1     154.689 168.679 185.727  0.00  0.00    +0.038 HD
BRANCH  35  38
ATOM     38  C   UNL     1     155.963 168.522 183.996  0.00  0.00    -0.031 C 
ATOM     39  H   UNL     1     156.161 167.653 183.353  0.00  0.00    +0.028 HD
ATOM     40  H   UNL     1     155.137 169.066 183.523  0.00  0.00    +0.028 HD
BRANCH  38  41
ATOM     41  C   UNL     1     157.191 169.429 184.034  0.00  0.00    -0.006 C 
ATOM     42  H   UNL     1     157.060 170.271 183.345  0.00  0.00    +0.042 HD
ATOM     43  H   UNL     1     158.073 168.866 183.703  0.00  0.00    +0.042 HD
BRANCH  41  44
ATOM     44  N   UNL     1     157.431 169.939 185.381  0.00  0.00    -0.330 NA
ATOM     45  H   UNL     1     158.434 170.082 185.510  0.00  0.00    +0.118 HD
ATOM     46  H   UNL     1     157.009 170.865 185.468  0.00  0.00    +0.118 HD
ENDBRANCH  41  44
ENDBRANCH  38  41
ENDBRANCH  35  38
ENDBRANCH  33  35
ENDBRANCH  32  33
ENDBRANCH  20  32
ENDBRANCH  17  20
ENDBRANCH  15  17
BRANCH  15  47
ATOM     47  O   UNL     1     155.562 166.197 189.615  0.00  0.00    -0.379 OA
BRANCH  47  48
ATOM     48  C   UNL     1     156.579 165.439 188.978  0.00  0.00    +0.037 C 
ATOM     49  H   UNL     1     156.227 164.427 188.761  0.00  0.00    +0.052 HD
ATOM     50  H   UNL     1     157.484 165.406 189.588  0.00  0.00    +0.052 HD
ATOM     51  H   UNL     1     156.819 165.925 188.029  0.00  0.00    +0.052 HD
ENDBRANCH  47  48
ENDBRANCH  15  47
ENDBRANCH   9  15
ENDBRANCH   6   9
ENDBRANCH   3   6
ENDBRANCH   1   3
BRANCH   1  52
ATOM     52  C   UNL     1     148.924 166.769 191.218  0.00  0.00    +0.020 C 
ATOM     53  H   UNL     1     147.959 166.361 191.547  0.00  0.00    +0.036 HD
BRANCH  52  54
ATOM     54  C   UNL     1     148.726 167.343 189.805  0.00  0.00    -0.057 C 
ATOM     55  H   UNL     1     147.794 166.969 189.362  0.00  0.00    +0.023 HD
ATOM     56  H   UNL     1     149.552 167.076 189.134  0.00  0.00    +0.023 HD
ATOM     57  H   UNL     1     148.647 168.433 189.824  0.00  0.00    +0.023 HD
ENDBRANCH  52  54
BRANCH  52  58
ATOM     58  C   UNL     1     149.339 167.858 192.260  0.00  0.00    +0.070 C 
ATOM     59  H   UNL     1     150.122 167.445 192.907  0.00  0.00    +0.061 HD
BRANCH  58  60
ATOM     60  C   UNL     1     149.917 169.165 191.627  0.00  0.00    +0.002 C 
ATOM     61  H   UNL     1     149.998 169.005 190.544  0.00  0.00    +0.037 HD
BRANCH  60  62
ATOM     62  C   UNL     1     149.053 170.384 191.893  0.00  0.00    -0.065 C 
ATOM     63  C   UNL     1     149.544 171.552 192.338  0.00  0.00    -0.005 C 
ATOM     64  H   UNL     1     147.989 170.250 191.706  0.00  0.00    +0.059 HD
ATOM     65  H   UNL     1     150.616 171.625 192.523  0.00  0.00    +0.078 HD
BRANCH  63  66
ATOM     66  N   UNL     1     148.818 172.702 192.607  0.00  0.00    -0.281 N 
ATOM     67  C   UNL     1     148.336 172.940 193.891  0.00  0.00    +0.206 C 
ATOM     68  O   UNL     1     147.650 173.891 194.250  0.00  0.00    -0.279 OA
ATOM     69  H   UNL     1     148.626 172.160 194.609  0.00  0.00    +0.126 HD
BRANCH  66  70
ATOM     70  C   UNL     1     148.484 173.684 191.577  0.00  0.00    +0.016 C 
ATOM     71  H   UNL     1     149.329 173.811 190.894  0.00  0.00    +0.047 HD
ATOM     72  H   UNL     1     148.333 174.663 192.049  0.00  0.00    +0.047 HD
BRANCH  70  73
ATOM     73  C   UNL     1     147.218 173.315 190.822  0.00  0.00    -0.049 C 
ATOM     74  H   UNL     1     146.321 173.538 191.412  0.00  0.00    +0.024 HD
ATOM     75  H   UNL     1     147.219 172.247 190.583  0.00  0.00    +0.024 HD
ATOM     76  H   UNL     1     147.144 173.879 189.888  0.00  0.00    +0.024 HD
ENDBRANCH  70  73
ENDBRANCH  66  70
ENDBRANCH  63  66
ENDBRANCH  60  62
BRANCH  60  77
ATOM     77  C   UNL     1     151.338 169.454 192.125  0.00  0.00    -0.057 C 
ATOM     78  H   UNL     1     151.847 170.204 191.508  0.00  0.00    +0.024 HD
ATOM     79  H   UNL     1     151.318 169.814 193.160  0.00  0.00    +0.024 HD
ATOM     80  H   UNL     1     151.949 168.544 192.105  0.00  0.00    +0.024 HD
ENDBRANCH  60  77
ENDBRANCH  58  60
BRANCH  58  81
ATOM     81  O   UNL     1     148.184 168.212 193.041  0.00  0.00    -0.379 OA
BRANCH  81  82
ATOM     82  C   UNL     1     147.576 167.114 193.708  0.00  0.00    +0.037 C 
ATOM     83  H   UNL     1     147.026 166.490 193.002  0.00  0.00    +0.052 HD
ATOM     84  H   UNL     1     148.321 166.515 194.238  0.00  0.00    +0.052 HD
ATOM     85  H   UNL     1     146.866 167.515 194.436  0.00  0.00    +0.052 HD
ENDBRANCH  81  82
ENDBRANCH  58  81
ENDBRANCH  52  58
ENDBRANCH   1  52
BRANCH   1  86
ATOM     86  O   UNL     1     150.740 165.493 192.315  0.00  0.00    -0.459 OA
BRANCH  86  88
ATOM     87  O   UNL     1     149.338 163.941 193.258  0.00  0.00    -0.248 OA
ATOM     88  C   UNL     1     150.336 164.647 193.304  0.00  0.00    +0.337 C 
BRANCH  88  89
ATOM     89  C   UNL     1     151.314 164.738 194.487  0.00  0.00    +0.155 C 
ATOM     90  O   UNL     1     150.895 163.937 195.606  0.00  0.00    -0.365 OA
ATOM     91  C   UNL     1     150.378 164.793 196.628  0.00  0.00    +0.049 C 
ATOM     92  C   UNL     1     150.310 166.191 196.053  0.00  0.00    -0.027 C 
ATOM     93  C   UNL     1     151.391 166.169 194.997  0.00  0.00    -0.014 C 
ATOM     94  H   UNL     1     152.290 164.364 194.153  0.00  0.00    +0.071 HD
ATOM     95  H   UNL     1     151.061 164.751 197.482  0.00  0.00    +0.056 HD
ATOM     96  H   UNL     1     149.398 164.428 196.948  0.00  0.00    +0.056 HD
ATOM     97  H   UNL     1     150.452 166.967 196.808  0.00  0.00    +0.029 HD
ATOM     98  H   UNL     1     149.334 166.357 195.582  0.00  0.00    +0.029 HD
ATOM     99  H   UNL     1     151.237 166.935 194.230  0.00  0.00    +0.030 HD
ATOM    100  H   UNL     1     152.369 166.342 195.470  0.00  0.00    +0.030 HD
ENDBRANCH  88  89
ENDBRANCH  86  88
ENDBRANCH   1  86
TORSDOF 32
ENDMDL
