MODEL 1
REMARK VINA RESULT:      -5.3      0.000      0.000
REMARK  Name = 2a_conf3
REMARK  32 active torsions:
REMARK  status: ('A' for Active; 'I' for Inactive)
REMARK    1  A    between atoms: C_2  and  C_3
REMARK    2  A    between atoms: C_2  and  O_8
REMARK    3  A    between atoms: O_8  and  C_9
REMARK    4  A    between atoms: C_9  and  C_10
REMARK    5  A    between atoms: C_9  and  C_29
REMARK    6  A    between atoms: C_10  and  C_11
REMARK    7  A    between atoms: C_11  and  C_12
REMARK    8  A    between atoms: C_12  and  C_13
REMARK    9  A    between atoms: C_12  and  C_14
REMARK   10  A    between atoms: C_14  and  O_15
REMARK   11  A    between atoms: C_14  and  C_17
REMARK   12  A    between atoms: O_15  and  C_16
REMARK   13  A    between atoms: C_17  and  C_18
REMARK   14  A    between atoms: C_18  and  O_19
REMARK   15  A    between atoms: C_18  and  C_26
REMARK   16  A    between atoms: O_19  and  C_20
REMARK   17  A    between atoms: C_20  and  C_21
REMARK   18  A    between atoms: C_21  and  C_22
REMARK   19  A    between atoms: C_22  and  C_23
REMARK   20  A    between atoms: C_23  and  N_24
REMARK   21  A    between atoms: C_26  and  C_27
REMARK   22  A    between atoms: C_26  and  C_28
REMARK   23  A    between atoms: C_29  and  C_30
REMARK   24  A    between atoms: C_29  and  C_31
REMARK   25  A    between atoms: C_31  and  O_32
REMARK   26  A    between atoms: C_31  and  C_34
REMARK   27  A    between atoms: O_32  and  C_33
REMARK   28  A    between atoms: C_34  and  C_35
REMARK   29  A    between atoms: C_34  and  C_36
REMARK   30  A    between atoms: C_37  and  N_38
REMARK   31  A    between atoms: N_38  and  C_39
REMARK   32  A    between atoms: C_39  and  C_40
REMARK                            x       y       z     vdW  Elec       q    Type
REMARK                         _______ _______ _______ _____ _____    ______ ____
ROOT
ATOM      1  C   UNL     1     149.517 165.549 191.030  0.00  0.00    +0.108 C 
ATOM      2  H   UNL     1     148.937 164.631 190.960  0.00  0.00    +0.074 HD
ENDROOT
BRANCH   1   3
ATOM      3  C   UNL     1     150.380 165.615 189.755  0.00  0.00    -0.015 C 
ATOM      4  H   UNL     1     149.797 166.145 188.994  0.00  0.00    +0.030 HD
ATOM      5  H   UNL     1     150.530 164.614 189.333  0.00  0.00    +0.030 HD
BRANCH   3   6
ATOM      6  C   UNL     1     151.736 166.294 189.980  0.00  0.00    -0.045 C 
ATOM      7  H   UNL     1     152.460 165.514 190.253  0.00  0.00    +0.027 HD
ATOM      8  H   UNL     1     151.679 166.980 190.834  0.00  0.00    +0.027 HD
BRANCH   6   9
ATOM      9  C   UNL     1     152.257 167.062 188.738  0.00  0.00    -0.017 C 
ATOM     10  H   UNL     1     152.410 168.101 189.042  0.00  0.00    +0.032 HD
BRANCH   9  11
ATOM     11  C   UNL     1     151.160 167.049 187.663  0.00  0.00    -0.060 C 
ATOM     12  H   UNL     1     151.559 166.778 186.679  0.00  0.00    +0.023 HD
ATOM     13  H   UNL     1     150.381 166.321 187.916  0.00  0.00    +0.023 HD
ATOM     14  H   UNL     1     150.668 168.023 187.583  0.00  0.00    +0.023 HD
ENDBRANCH   9  11
BRANCH   9  15
ATOM     15  C   UNL     1     153.600 166.465 188.223  0.00  0.00    +0.064 C 
ATOM     16  H   UNL     1     153.382 165.673 187.499  0.00  0.00    +0.060 HD
BRANCH  15  17
ATOM     17  C   UNL     1     154.543 165.869 189.293  0.00  0.00    +0.011 C 
ATOM     18  H   UNL     1     155.296 166.634 189.519  0.00  0.00    +0.033 HD
ATOM     19  H   UNL     1     154.001 165.705 190.232  0.00  0.00    +0.033 HD
BRANCH  17  20
ATOM     20  C   UNL     1     155.261 164.576 188.857  0.00  0.00    +0.108 C 
ATOM     21  H   UNL     1     154.909 164.314 187.849  0.00  0.00    +0.074 HD
BRANCH  20  22
ATOM     22  C   UNL     1     156.808 164.730 188.829  0.00  0.00    -0.009 C 
ATOM     23  H   UNL     1     157.071 165.689 189.296  0.00  0.00    +0.033 HD
BRANCH  22  24
ATOM     24  C   UNL     1     157.389 164.711 187.411  0.00  0.00    -0.059 C 
ATOM     25  H   UNL     1     157.935 165.636 187.194  0.00  0.00    +0.023 HD
ATOM     26  H   UNL     1     156.597 164.603 186.663  0.00  0.00    +0.023 HD
ATOM     27  H   UNL     1     158.070 163.865 187.270  0.00  0.00    +0.023 HD
ENDBRANCH  22  24
BRANCH  22  28
ATOM     28  C   UNL     1     157.494 163.630 189.654  0.00  0.00    -0.059 C 
ATOM     29  H   UNL     1     157.680 163.950 190.683  0.00  0.00    +0.023 HD
ATOM     30  H   UNL     1     156.880 162.723 189.689  0.00  0.00    +0.023 HD
ATOM     31  H   UNL     1     158.462 163.368 189.217  0.00  0.00    +0.023 HD
ENDBRANCH  22  28
ENDBRANCH  20  22
BRANCH  20  32
ATOM     32  O   UNL     1     154.926 163.544 189.812  0.00  0.00    -0.461 OA
BRANCH  32  33
ATOM     33  C   UNL     1     154.155 162.512 189.380  0.00  0.00    +0.307 C 
ATOM     34  O   UNL     1     154.584 161.479 188.881  0.00  0.00    -0.251 OA
BRANCH  33  35
ATOM     35  C   UNL     1     152.680 162.813 189.504  0.00  0.00    +0.046 C 
ATOM     36  H   UNL     1     152.570 163.906 189.477  0.00  0.00    +0.038 HD
ATOM     37  H   UNL     1     152.180 162.409 188.616  0.00  0.00    +0.038 HD
BRANCH  35  38
ATOM     38  C   UNL     1     152.003 162.278 190.765  0.00  0.00    -0.031 C 
ATOM     39  H   UNL     1     151.283 163.032 191.109  0.00  0.00    +0.028 HD
ATOM     40  H   UNL     1     152.745 162.181 191.569  0.00  0.00    +0.028 HD
BRANCH  38  41
ATOM     41  C   UNL     1     151.278 160.939 190.607  0.00  0.00    -0.006 C 
ATOM     42  H   UNL     1     150.263 160.992 191.009  0.00  0.00    +0.042 HD
ATOM     43  H   UNL     1     151.184 160.726 189.536  0.00  0.00    +0.042 HD
BRANCH  41  44
ATOM     44  N   UNL     1     151.998 159.839 191.235  0.00  0.00    -0.330 NA
ATOM     45  H   UNL     1     152.927 159.761 190.819  0.00  0.00    +0.118 HD
ATOM     46  H   UNL     1     151.535 158.952 191.040  0.00  0.00    +0.118 HD
ENDBRANCH  41  44
ENDBRANCH  38  41
ENDBRANCH  35  38
ENDBRANCH  33  35
ENDBRANCH  32  33
ENDBRANCH  20  32
ENDBRANCH  17  20
ENDBRANCH  15  17
BRANCH  15  47
ATOM     47  O   UNL     1     154.314 167.527 187.558  0.00  0.00    -0.379 OA
BRANCH  47  48
ATOM     48  C   UNL     1     154.697 167.184 186.229  0.00  0.00    +0.037 C 
ATOM     49  H   UNL     1     154.656 168.055 185.567  0.00  0.00    +0.052 HD
ATOM     50  H   UNL     1     153.999 166.429 185.856  0.00  0.00    +0.052 HD
ATOM     51  H   UNL     1     155.706 166.756 186.226  0.00  0.00    +0.052 HD
ENDBRANCH  47  48
ENDBRANCH  15  47
ENDBRANCH   9  15
ENDBRANCH   6   9
ENDBRANCH   3   6
ENDBRANCH   1   3
BRANCH   1  52
ATOM     52  C   UNL     1     148.536 166.735 191.215  0.00  0.00    +0.020 C 
ATOM     53  H   UNL     1     147.594 166.352 191.620  0.00  0.00    +0.036 HD
BRANCH  52  54
ATOM     54  C   UNL     1     148.192 167.382 189.859  0.00  0.00    -0.057 C 
ATOM     55  H   UNL     1     147.197 167.090 189.505  0.00  0.00    +0.023 HD
ATOM     56  H   UNL     1     148.919 167.082 189.095  0.00  0.00    +0.023 HD
ATOM     57  H   UNL     1     148.226 168.473 189.922  0.00  0.00    +0.023 HD
ENDBRANCH  52  54
BRANCH  52  58
ATOM     58  C   UNL     1     149.045 167.848 192.192  0.00  0.00    +0.070 C 
ATOM     59  H   UNL     1     149.803 167.361 192.822  0.00  0.00    +0.061 HD
BRANCH  58  60
ATOM     60  C   UNL     1     149.762 169.081 191.538  0.00  0.00    +0.002 C 
ATOM     61  H   UNL     1     149.903 168.806 190.482  0.00  0.00    +0.037 HD
BRANCH  60  62
ATOM     62  C   UNL     1     148.859 170.303 191.483  0.00  0.00    -0.065 C 
ATOM     63  C   UNL     1     149.180 171.556 191.832  0.00  0.00    -0.005 C 
ATOM     64  H   UNL     1     147.853 170.077 191.138  0.00  0.00    +0.059 HD
ATOM     65  H   UNL     1     150.179 171.764 192.211  0.00  0.00    +0.078 HD
BRANCH  63  66
ATOM     66  N   UNL     1     148.333 172.654 191.793  0.00  0.00    -0.281 N 
ATOM     67  C   UNL     1     147.287 172.700 190.870  0.00  0.00    +0.206 C 
ATOM     68  O   UNL     1     146.492 173.624 190.728  0.00  0.00    -0.279 OA
ATOM     69  H   UNL     1     147.230 171.798 190.237  0.00  0.00    +0.126 HD
BRANCH  66  70
ATOM     70  C   UNL     1     148.498 173.812 192.672  0.00  0.00    +0.016 C 
ATOM     71  H   UNL     1     148.223 174.727 192.139  0.00  0.00    +0.047 HD
ATOM     72  H   UNL     1     149.558 173.922 192.928  0.00  0.00    +0.047 HD
BRANCH  70  73
ATOM     73  C   UNL     1     147.706 173.671 193.964  0.00  0.00    -0.049 C 
ATOM     74  H   UNL     1     146.931 172.901 193.878  0.00  0.00    +0.024 HD
ATOM     75  H   UNL     1     148.360 173.391 194.798  0.00  0.00    +0.024 HD
ATOM     76  H   UNL     1     147.219 174.619 194.215  0.00  0.00    +0.024 HD
ENDBRANCH  70  73
ENDBRANCH  66  70
ENDBRANCH  63  66
ENDBRANCH  60  62
BRANCH  60  77
ATOM     77  C   UNL     1     151.192 169.349 192.020  0.00  0.00    -0.057 C 
ATOM     78  H   UNL     1     151.953 169.179 191.256  0.00  0.00    +0.024 HD
ATOM     79  H   UNL     1     151.435 168.683 192.855  0.00  0.00    +0.024 HD
ATOM     80  H   UNL     1     151.304 170.372 192.386  0.00  0.00    +0.024 HD
ENDBRANCH  60  77
ENDBRANCH  58  60
BRANCH  58  81
ATOM     81  O   UNL     1     147.970 168.245 193.055  0.00  0.00    -0.379 OA
BRANCH  81  82
ATOM     82  C   UNL     1     147.562 167.246 193.981  0.00  0.00    +0.037 C 
ATOM     83  H   UNL     1     146.482 167.103 193.876  0.00  0.00    +0.052 HD
ATOM     84  H   UNL     1     148.059 166.294 193.769  0.00  0.00    +0.052 HD
ATOM     85  H   UNL     1     147.760 167.562 195.007  0.00  0.00    +0.052 HD
ENDBRANCH  81  82
ENDBRANCH  58  81
ENDBRANCH  52  58
ENDBRANCH   1  52
BRANCH   1  86
ATOM     86  O   UNL     1     150.430 165.484 192.145  0.00  0.00    -0.459 OA
BRANCH  86  88
ATOM     87  O   UNL     1     149.110 163.910 193.172  0.00  0.00    -0.248 OA
ATOM     88  C   UNL     1     150.115 164.611 193.146  0.00  0.00    +0.337 C 
BRANCH  88  89
ATOM     89  C   UNL     1     151.222 164.617 194.210  0.00  0.00    +0.155 C 
ATOM     90  O   UNL     1     150.829 163.908 195.397  0.00  0.00    -0.365 OA
ATOM     91  C   UNL     1     150.552 164.858 196.434  0.00  0.00    +0.049 C 
ATOM     92  C   UNL     1     150.591 166.230 195.800  0.00  0.00    -0.027 C 
ATOM     93  C   UNL     1     151.568 166.024 194.668  0.00  0.00    -0.014 C 
ATOM     94  H   UNL     1     152.088 164.101 193.781  0.00  0.00    +0.071 HD
ATOM     95  H   UNL     1     149.586 164.634 196.895  0.00  0.00    +0.056 HD
ATOM     96  H   UNL     1     151.335 164.753 197.194  0.00  0.00    +0.056 HD
ATOM     97  H   UNL     1     149.603 166.488 195.400  0.00  0.00    +0.029 HD
ATOM     98  H   UNL     1     150.887 167.014 196.501  0.00  0.00    +0.029 HD
ATOM     99  H   UNL     1     151.492 166.788 193.892  0.00  0.00    +0.030 HD
ATOM    100  H   UNL     1     152.589 166.043 195.066  0.00  0.00    +0.030 HD
ENDBRANCH  88  89
ENDBRANCH  86  88
ENDBRANCH   1  86
TORSDOF 32
ENDMDL
MODEL 2
REMARK VINA RESULT:      -5.3      2.922      6.726
REMARK  Name = 2a_conf3
REMARK  32 active torsions:
REMARK  status: ('A' for Active; 'I' for Inactive)
REMARK    1  A    between atoms: C_2  and  C_3
REMARK    2  A    between atoms: C_2  and  O_8
REMARK    3  A    between atoms: O_8  and  C_9
REMARK    4  A    between atoms: C_9  and  C_10
REMARK    5  A    between atoms: C_9  and  C_29
REMARK    6  A    between atoms: C_10  and  C_11
REMARK    7  A    between atoms: C_11  and  C_12
REMARK    8  A    between atoms: C_12  and  C_13
REMARK    9  A    between atoms: C_12  and  C_14
REMARK   10  A    between atoms: C_14  and  O_15
REMARK   11  A    between atoms: C_14  and  C_17
REMARK   12  A    between atoms: O_15  and  C_16
REMARK   13  A    between atoms: C_17  and  C_18
REMARK   14  A    between atoms: C_18  and  O_19
REMARK   15  A    between atoms: C_18  and  C_26
REMARK   16  A    between atoms: O_19  and  C_20
REMARK   17  A    between atoms: C_20  and  C_21
REMARK   18  A    between atoms: C_21  and  C_22
REMARK   19  A    between atoms: C_22  and  C_23
REMARK   20  A    between atoms: C_23  and  N_24
REMARK   21  A    between atoms: C_26  and  C_27
REMARK   22  A    between atoms: C_26  and  C_28
REMARK   23  A    between atoms: C_29  and  C_30
REMARK   24  A    between atoms: C_29  and  C_31
REMARK   25  A    between atoms: C_31  and  O_32
REMARK   26  A    between atoms: C_31  and  C_34
REMARK   27  A    between atoms: O_32  and  C_33
REMARK   28  A    between atoms: C_34  and  C_35
REMARK   29  A    between atoms: C_34  and  C_36
REMARK   30  A    between atoms: C_37  and  N_38
REMARK   31  A    between atoms: N_38  and  C_39
REMARK   32  A    between atoms: C_39  and  C_40
REMARK                            x       y       z     vdW  Elec       q    Type
REMARK                         _______ _______ _______ _____ _____    ______ ____
ROOT
ATOM      1  C   UNL     1     147.183 170.061 191.169  0.00  0.00    +0.108 C 
ATOM      2  H   UNL     1     146.264 169.976 191.746  0.00  0.00    +0.074 HD
ENDROOT
BRANCH   1   3
ATOM      3  C   UNL     1     148.330 169.663 192.119  0.00  0.00    -0.015 C 
ATOM      4  H   UNL     1     147.923 168.942 192.835  0.00  0.00    +0.030 HD
ATOM      5  H   UNL     1     148.637 170.516 192.738  0.00  0.00    +0.030 HD
BRANCH   3   6
ATOM      6  C   UNL     1     149.546 169.087 191.386  0.00  0.00    -0.045 C 
ATOM      7  H   UNL     1     149.826 169.793 190.593  0.00  0.00    +0.027 HD
ATOM      8  H   UNL     1     149.278 168.148 190.888  0.00  0.00    +0.027 HD
BRANCH   6   9
ATOM      9  C   UNL     1     150.769 168.846 192.311  0.00  0.00    -0.017 C 
ATOM     10  H   UNL     1     150.414 168.926 193.341  0.00  0.00    +0.032 HD
BRANCH   9  11
ATOM     11  C   UNL     1     151.782 169.978 192.079  0.00  0.00    -0.060 C 
ATOM     12  H   UNL     1     151.422 170.932 192.479  0.00  0.00    +0.023 HD
ATOM     13  H   UNL     1     152.734 169.749 192.571  0.00  0.00    +0.023 HD
ATOM     14  H   UNL     1     152.000 170.106 191.014  0.00  0.00    +0.023 HD
ENDBRANCH   9  11
BRANCH   9  15
ATOM     15  C   UNL     1     151.388 167.437 192.078  0.00  0.00    +0.064 C 
ATOM     16  H   UNL     1     150.658 166.811 191.553  0.00  0.00    +0.060 HD
BRANCH  15  17
ATOM     17  C   UNL     1     151.839 166.666 193.339  0.00  0.00    +0.011 C 
ATOM     18  H   UNL     1     152.892 166.395 193.190  0.00  0.00    +0.033 HD
ATOM     19  H   UNL     1     151.829 167.326 194.215  0.00  0.00    +0.033 HD
BRANCH  17  20
ATOM     20  C   UNL     1     151.029 165.386 193.624  0.00  0.00    +0.108 C 
ATOM     21  H   UNL     1     151.736 164.549 193.718  0.00  0.00    +0.074 HD
BRANCH  20  22
ATOM     22  C   UNL     1     150.189 165.487 194.928  0.00  0.00    -0.009 C 
ATOM     23  H   UNL     1     149.862 164.478 195.212  0.00  0.00    +0.033 HD
BRANCH  22  24
ATOM     24  C   UNL     1     148.945 166.370 194.776  0.00  0.00    -0.059 C 
ATOM     25  H   UNL     1     148.068 165.775 194.501  0.00  0.00    +0.023 HD
ATOM     26  H   UNL     1     149.095 167.129 194.001  0.00  0.00    +0.023 HD
ATOM     27  H   UNL     1     148.722 166.909 195.702  0.00  0.00    +0.023 HD
ENDBRANCH  22  24
BRANCH  22  28
ATOM     28  C   UNL     1     151.031 166.026 196.096  0.00  0.00    -0.059 C 
ATOM     29  H   UNL     1     151.367 167.051 195.916  0.00  0.00    +0.023 HD
ATOM     30  H   UNL     1     150.461 166.016 197.031  0.00  0.00    +0.023 HD
ATOM     31  H   UNL     1     151.927 165.414 196.238  0.00  0.00    +0.023 HD
ENDBRANCH  22  28
ENDBRANCH  20  22
BRANCH  20  32
ATOM     32  O   UNL     1     150.123 165.183 192.516  0.00  0.00    -0.461 OA
BRANCH  32  33
ATOM     33  C   UNL     1     149.906 163.906 192.107  0.00  0.00    +0.307 C 
ATOM     34  O   UNL     1     148.940 163.223 192.425  0.00  0.00    -0.251 OA
BRANCH  33  35
ATOM     35  C   UNL     1     151.046 163.375 191.269  0.00  0.00    +0.046 C 
ATOM     36  H   UNL     1     151.514 164.238 190.777  0.00  0.00    +0.038 HD
ATOM     37  H   UNL     1     151.787 162.941 191.949  0.00  0.00    +0.038 HD
BRANCH  35  38
ATOM     38  C   UNL     1     150.658 162.349 190.206  0.00  0.00    -0.031 C 
ATOM     39  H   UNL     1     151.242 162.562 189.300  0.00  0.00    +0.028 HD
ATOM     40  H   UNL     1     149.605 162.488 189.926  0.00  0.00    +0.028 HD
BRANCH  38  41
ATOM     41  C   UNL     1     150.868 160.884 190.596  0.00  0.00    -0.006 C 
ATOM     42  H   UNL     1     151.046 160.264 189.712  0.00  0.00    +0.042 HD
ATOM     43  H   UNL     1     151.770 160.820 191.214  0.00  0.00    +0.042 HD
BRANCH  41  44
ATOM     44  N   UNL     1     149.748 160.344 191.356  0.00  0.00    -0.330 NA
ATOM     45  H   UNL     1     148.924 160.295 190.756  0.00  0.00    +0.118 HD
ATOM     46  H   UNL     1     149.496 160.975 192.116  0.00  0.00    +0.118 HD
ENDBRANCH  41  44
ENDBRANCH  38  41
ENDBRANCH  35  38
ENDBRANCH  33  35
ENDBRANCH  32  33
ENDBRANCH  20  32
ENDBRANCH  17  20
ENDBRANCH  15  17
BRANCH  15  47
ATOM     47  O   UNL     1     152.547 167.612 191.237  0.00  0.00    -0.379 OA
BRANCH  47  48
ATOM     48  C   UNL     1     152.585 166.688 190.154  0.00  0.00    +0.037 C 
ATOM     49  H   UNL     1     153.046 165.742 190.456  0.00  0.00    +0.052 HD
ATOM     50  H   UNL     1     153.184 167.126 189.350  0.00  0.00    +0.052 HD
ATOM     51  H   UNL     1     151.573 166.509 189.775  0.00  0.00    +0.052 HD
ENDBRANCH  47  48
ENDBRANCH  15  47
ENDBRANCH   9  15
ENDBRANCH   6   9
ENDBRANCH   3   6
ENDBRANCH   1   3
BRANCH   1  52
ATOM     52  C   UNL     1     147.050 169.178 189.902  0.00  0.00    +0.020 C 
ATOM     53  H   UNL     1     148.032 168.759 189.661  0.00  0.00    +0.036 HD
BRANCH  52  54
ATOM     54  C   UNL     1     146.627 170.022 188.684  0.00  0.00    -0.057 C 
ATOM     55  H   UNL     1     145.835 169.537 188.103  0.00  0.00    +0.023 HD
ATOM     56  H   UNL     1     147.480 170.185 188.015  0.00  0.00    +0.023 HD
ATOM     57  H   UNL     1     146.270 171.009 188.993  0.00  0.00    +0.023 HD
ENDBRANCH  52  54
BRANCH  52  58
ATOM     58  C   UNL     1     146.057 167.976 190.055  0.00  0.00    +0.070 C 
ATOM     59  H   UNL     1     145.509 167.926 189.103  0.00  0.00    +0.061 HD
BRANCH  58  60
ATOM     60  C   UNL     1     146.698 166.557 190.252  0.00  0.00    +0.002 C 
ATOM     61  H   UNL     1     145.980 165.851 189.808  0.00  0.00    +0.037 HD
BRANCH  60  62
ATOM     62  C   UNL     1     147.956 166.378 189.418  0.00  0.00    -0.065 C 
ATOM     63  C   UNL     1     148.020 166.149 188.100  0.00  0.00    -0.005 C 
ATOM     64  H   UNL     1     148.871 166.429 190.005  0.00  0.00    +0.059 HD
ATOM     65  H   UNL     1     147.098 166.064 187.528  0.00  0.00    +0.078 HD
BRANCH  63  66
ATOM     66  N   UNL     1     149.181 165.970 187.360  0.00  0.00    -0.281 N 
ATOM     67  C   UNL     1     150.134 165.035 187.767  0.00  0.00    +0.206 C 
ATOM     68  O   UNL     1     151.202 164.807 187.209  0.00  0.00    -0.279 OA
ATOM     69  H   UNL     1     149.844 164.494 188.684  0.00  0.00    +0.126 HD
BRANCH  66  70
ATOM     70  C   UNL     1     149.480 166.748 186.158  0.00  0.00    +0.016 C 
ATOM     71  H   UNL     1     149.250 166.158 185.266  0.00  0.00    +0.047 HD
ATOM     72  H   UNL     1     150.557 166.946 186.115  0.00  0.00    +0.047 HD
BRANCH  70  73
ATOM     73  C   UNL     1     148.748 168.082 186.138  0.00  0.00    -0.049 C 
ATOM     74  H   UNL     1     149.172 168.761 185.390  0.00  0.00    +0.024 HD
ATOM     75  H   UNL     1     147.687 167.945 185.899  0.00  0.00    +0.024 HD
ATOM     76  H   UNL     1     148.819 168.566 187.117  0.00  0.00    +0.024 HD
ENDBRANCH  70  73
ENDBRANCH  66  70
ENDBRANCH  63  66
ENDBRANCH  60  62
BRANCH  60  77
ATOM     77  C   UNL     1     146.805 166.075 191.704  0.00  0.00    -0.057 C 
ATOM     78  H   UNL     1     146.790 164.989 191.809  0.00  0.00    +0.024 HD
ATOM     79  H   UNL     1     145.959 166.456 192.287  0.00  0.00    +0.024 HD
ATOM     80  H   UNL     1     147.714 166.448 192.182  0.00  0.00    +0.024 HD
ENDBRANCH  60  77
ENDBRANCH  58  60
BRANCH  58  81
ATOM     81  O   UNL     1     145.100 168.282 191.079  0.00  0.00    -0.379 OA
BRANCH  81  82
ATOM     82  C   UNL     1     143.747 168.256 190.643  0.00  0.00    +0.037 C 
ATOM     83  H   UNL     1     143.416 169.288 190.496  0.00  0.00    +0.052 HD
ATOM     84  H   UNL     1     143.655 167.724 189.692  0.00  0.00    +0.052 HD
ATOM     85  H   UNL     1     143.104 167.803 191.401  0.00  0.00    +0.052 HD
ENDBRANCH  81  82
ENDBRANCH  58  81
ENDBRANCH  52  58
ENDBRANCH   1  52
BRANCH   1  86
ATOM     86  O   UNL     1     147.416 171.434 190.793  0.00  0.00    -0.459 OA
BRANCH  86  88
ATOM     87  O   UNL     1     145.459 172.315 191.614  0.00  0.00    -0.248 OA
ATOM     88  C   UNL     1     146.669 172.381 191.435  0.00  0.00    +0.337 C 
BRANCH  88  89
ATOM     89  C   UNL     1     147.579 173.517 191.925  0.00  0.00    +0.155 C 
ATOM     90  O   UNL     1     148.971 173.200 191.753  0.00  0.00    -0.365 OA
ATOM     91  C   UNL     1     149.540 172.899 193.034  0.00  0.00    +0.049 C 
ATOM     92  C   UNL     1     148.397 172.840 194.022  0.00  0.00    -0.027 C 
ATOM     93  C   UNL     1     147.402 173.793 193.408  0.00  0.00    -0.014 C 
ATOM     94  H   UNL     1     147.357 174.399 191.314  0.00  0.00    +0.071 HD
ATOM     95  H   UNL     1     150.100 171.961 192.980  0.00  0.00    +0.056 HD
ATOM     96  H   UNL     1     150.235 173.709 193.284  0.00  0.00    +0.056 HD
ATOM     97  H   UNL     1     147.977 171.827 194.052  0.00  0.00    +0.029 HD
ATOM     98  H   UNL     1     148.699 173.110 195.038  0.00  0.00    +0.029 HD
ATOM     99  H   UNL     1     146.385 173.651 193.780  0.00  0.00    +0.030 HD
ATOM    100  H   UNL     1     147.705 174.823 193.632  0.00  0.00    +0.030 HD
ENDBRANCH  88  89
ENDBRANCH  86  88
ENDBRANCH   1  86
TORSDOF 32
ENDMDL
MODEL 3
REMARK VINA RESULT:      -5.2      3.181      6.941
REMARK  Name = 2a_conf3
REMARK  32 active torsions:
REMARK  status: ('A' for Active; 'I' for Inactive)
REMARK    1  A    between atoms: C_2  and  C_3
REMARK    2  A    between atoms: C_2  and  O_8
REMARK    3  A    between atoms: O_8  and  C_9
REMARK    4  A    between atoms: C_9  and  C_10
REMARK    5  A    between atoms: C_9  and  C_29
REMARK    6  A    between atoms: C_10  and  C_11
REMARK    7  A    between atoms: C_11  and  C_12
REMARK    8  A    between atoms: C_12  and  C_13
REMARK    9  A    between atoms: C_12  and  C_14
REMARK   10  A    between atoms: C_14  and  O_15
REMARK   11  A    between atoms: C_14  and  C_17
REMARK   12  A    between atoms: O_15  and  C_16
REMARK   13  A    between atoms: C_17  and  C_18
REMARK   14  A    between atoms: C_18  and  O_19
REMARK   15  A    between atoms: C_18  and  C_26
REMARK   16  A    between atoms: O_19  and  C_20
REMARK   17  A    between atoms: C_20  and  C_21
REMARK   18  A    between atoms: C_21  and  C_22
REMARK   19  A    between atoms: C_22  and  C_23
REMARK   20  A    between atoms: C_23  and  N_24
REMARK   21  A    between atoms: C_26  and  C_27
REMARK   22  A    between atoms: C_26  and  C_28
REMARK   23  A    between atoms: C_29  and  C_30
REMARK   24  A    between atoms: C_29  and  C_31
REMARK   25  A    between atoms: C_31  and  O_32
REMARK   26  A    between atoms: C_31  and  C_34
REMARK   27  A    between atoms: O_32  and  C_33
REMARK   28  A    between atoms: C_34  and  C_35
REMARK   29  A    between atoms: C_34  and  C_36
REMARK   30  A    between atoms: C_37  and  N_38
REMARK   31  A    between atoms: N_38  and  C_39
REMARK   32  A    between atoms: C_39  and  C_40
REMARK                            x       y       z     vdW  Elec       q    Type
REMARK                         _______ _______ _______ _____ _____    ______ ____
ROOT
ATOM      1  C   UNL     1     147.732 168.379 191.295  0.00  0.00    +0.108 C 
ATOM      2  H   UNL     1     146.664 168.583 191.336  0.00  0.00    +0.074 HD
ENDROOT
BRANCH   1   3
ATOM      3  C   UNL     1     148.148 167.952 192.716  0.00  0.00    -0.015 C 
ATOM      4  H   UNL     1     147.997 168.816 193.372  0.00  0.00    +0.030 HD
ATOM      5  H   UNL     1     149.227 167.760 192.766  0.00  0.00    +0.030 HD
BRANCH   3   6
ATOM      6  C   UNL     1     147.377 166.730 193.228  0.00  0.00    -0.045 C 
ATOM      7  H   UNL     1     147.028 166.164 192.354  0.00  0.00    +0.027 HD
ATOM      8  H   UNL     1     146.480 167.050 193.772  0.00  0.00    +0.027 HD
BRANCH   6   9
ATOM      9  C   UNL     1     148.224 165.800 194.135  0.00  0.00    -0.017 C 
ATOM     10  H   UNL     1     147.818 164.790 194.029  0.00  0.00    +0.032 HD
BRANCH   9  11
ATOM     11  C   UNL     1     148.023 166.231 195.595  0.00  0.00    -0.060 C 
ATOM     12  H   UNL     1     147.242 165.641 196.088  0.00  0.00    +0.023 HD
ATOM     13  H   UNL     1     148.948 166.100 196.168  0.00  0.00    +0.023 HD
ATOM     14  H   UNL     1     147.756 167.290 195.665  0.00  0.00    +0.023 HD
ENDBRANCH   9  11
BRANCH   9  15
ATOM     15  C   UNL     1     149.723 165.808 193.715  0.00  0.00    +0.064 C 
ATOM     16  H   UNL     1     149.850 166.488 192.865  0.00  0.00    +0.060 HD
BRANCH  15  17
ATOM     17  C   UNL     1     150.333 164.446 193.314  0.00  0.00    +0.011 C 
ATOM     18  H   UNL     1     151.319 164.383 193.792  0.00  0.00    +0.033 HD
ATOM     19  H   UNL     1     149.748 163.624 193.742  0.00  0.00    +0.033 HD
BRANCH  17  20
ATOM     20  C   UNL     1     150.502 164.248 191.794  0.00  0.00    +0.108 C 
ATOM     21  H   UNL     1     151.295 163.504 191.633  0.00  0.00    +0.074 HD
BRANCH  20  22
ATOM     22  C   UNL     1     149.198 163.754 191.106  0.00  0.00    -0.009 C 
ATOM     23  H   UNL     1     148.364 164.382 191.448  0.00  0.00    +0.033 HD
BRANCH  22  24
ATOM     24  C   UNL     1     148.863 162.294 191.428  0.00  0.00    -0.059 C 
ATOM     25  H   UNL     1     149.086 162.057 192.474  0.00  0.00    +0.023 HD
ATOM     26  H   UNL     1     149.442 161.610 190.797  0.00  0.00    +0.023 HD
ATOM     27  H   UNL     1     147.807 162.075 191.239  0.00  0.00    +0.023 HD
ENDBRANCH  22  24
BRANCH  22  28
ATOM     28  C   UNL     1     149.277 163.914 189.579  0.00  0.00    -0.059 C 
ATOM     29  H   UNL     1     148.285 163.957 189.123  0.00  0.00    +0.023 HD
ATOM     30  H   UNL     1     149.815 164.828 189.306  0.00  0.00    +0.023 HD
ATOM     31  H   UNL     1     149.803 163.065 189.131  0.00  0.00    +0.023 HD
ENDBRANCH  22  28
ENDBRANCH  20  22
BRANCH  20  32
ATOM     32  O   UNL     1     150.860 165.526 191.221  0.00  0.00    -0.461 OA
BRANCH  32  33
ATOM     33  C   UNL     1     152.105 165.654 190.695  0.00  0.00    +0.307 C 
ATOM     34  O   UNL     1     152.752 164.739 190.198  0.00  0.00    -0.251 OA
BRANCH  33  35
ATOM     35  C   UNL     1     152.656 167.050 190.866  0.00  0.00    +0.046 C 
ATOM     36  H   UNL     1     153.739 166.993 190.688  0.00  0.00    +0.038 HD
ATOM     37  H   UNL     1     152.225 167.679 190.080  0.00  0.00    +0.038 HD
BRANCH  35  38
ATOM     38  C   UNL     1     152.413 167.691 192.231  0.00  0.00    -0.031 C 
ATOM     39  H   UNL     1     153.386 167.829 192.720  0.00  0.00    +0.028 HD
ATOM     40  H   UNL     1     151.851 166.995 192.870  0.00  0.00    +0.028 HD
BRANCH  38  41
ATOM     41  C   UNL     1     151.676 169.032 192.208  0.00  0.00    -0.006 C 
ATOM     42  H   UNL     1     150.652 168.924 192.577  0.00  0.00    +0.042 HD
ATOM     43  H   UNL     1     152.189 169.717 192.892  0.00  0.00    +0.042 HD
BRANCH  41  44
ATOM     44  N   UNL     1     151.658 169.634 190.881  0.00  0.00    -0.330 NA
ATOM     45  H   UNL     1     152.172 169.038 190.231  0.00  0.00    +0.118 HD
ATOM     46  H   UNL     1     152.154 170.525 190.886  0.00  0.00    +0.118 HD
ENDBRANCH  41  44
ENDBRANCH  38  41
ENDBRANCH  35  38
ENDBRANCH  33  35
ENDBRANCH  32  33
ENDBRANCH  20  32
ENDBRANCH  17  20
ENDBRANCH  15  17
BRANCH  15  47
ATOM     47  O   UNL     1     150.480 166.311 194.835  0.00  0.00    -0.379 OA
BRANCH  47  48
ATOM     48  C   UNL     1     151.573 165.467 195.183  0.00  0.00    +0.037 C 
ATOM     49  H   UNL     1     152.253 165.329 194.335  0.00  0.00    +0.052 HD
ATOM     50  H   UNL     1     151.174 164.490 195.472  0.00  0.00    +0.052 HD
ATOM     51  H   UNL     1     152.117 165.886 196.037  0.00  0.00    +0.052 HD
ENDBRANCH  47  48
ENDBRANCH  15  47
ENDBRANCH   9  15
ENDBRANCH   6   9
ENDBRANCH   3   6
ENDBRANCH   1   3
BRANCH   1  52
ATOM     52  C   UNL     1     147.985 167.316 190.195  0.00  0.00    +0.020 C 
ATOM     53  H   UNL     1     148.220 166.362 190.676  0.00  0.00    +0.036 HD
BRANCH  52  54
ATOM     54  C   UNL     1     149.216 167.687 189.344  0.00  0.00    -0.057 C 
ATOM     55  H   UNL     1     148.941 168.259 188.451  0.00  0.00    +0.023 HD
ATOM     56  H   UNL     1     149.740 166.783 189.013  0.00  0.00    +0.023 HD
ATOM     57  H   UNL     1     149.932 168.278 189.922  0.00  0.00    +0.023 HD
ENDBRANCH  52  54
BRANCH  52  58
ATOM     58  C   UNL     1     146.766 167.070 189.242  0.00  0.00    +0.070 C 
ATOM     59  H   UNL     1     147.204 166.812 188.267  0.00  0.00    +0.061 HD
BRANCH  58  60
ATOM     60  C   UNL     1     145.816 165.877 189.612  0.00  0.00    +0.002 C 
ATOM     61  H   UNL     1     146.251 165.434 190.521  0.00  0.00    +0.037 HD
BRANCH  60  62
ATOM     62  C   UNL     1     144.444 166.358 190.056  0.00  0.00    -0.065 C 
ATOM     63  C   UNL     1     144.075 166.699 191.297  0.00  0.00    -0.005 C 
ATOM     64  H   UNL     1     143.718 166.389 189.246  0.00  0.00    +0.059 HD
ATOM     65  H   UNL     1     144.799 166.630 192.107  0.00  0.00    +0.078 HD
BRANCH  63  66
ATOM     66  N   UNL     1     142.809 167.117 191.684  0.00  0.00    -0.281 N 
ATOM     67  C   UNL     1     142.073 166.367 192.602  0.00  0.00    +0.206 C 
ATOM     68  O   UNL     1     140.942 166.624 193.000  0.00  0.00    -0.279 OA
ATOM     69  H   UNL     1     142.611 165.471 192.957  0.00  0.00    +0.126 HD
BRANCH  66  70
ATOM     70  C   UNL     1     142.175 168.321 191.147  0.00  0.00    +0.016 C 
ATOM     71  H   UNL     1     141.164 168.422 191.551  0.00  0.00    +0.047 HD
ATOM     72  H   UNL     1     142.054 168.212 190.063  0.00  0.00    +0.047 HD
BRANCH  70  73
ATOM     73  C   UNL     1     143.000 169.573 191.411  0.00  0.00    -0.049 C 
ATOM     74  H   UNL     1     143.951 169.331 191.899  0.00  0.00    +0.024 HD
ATOM     75  H   UNL     1     143.230 170.098 190.478  0.00  0.00    +0.024 HD
ATOM     76  H   UNL     1     142.448 170.258 192.063  0.00  0.00    +0.024 HD
ENDBRANCH  70  73
ENDBRANCH  66  70
ENDBRANCH  63  66
ENDBRANCH  60  62
BRANCH  60  77
ATOM     77  C   UNL     1     145.809 164.705 188.624  0.00  0.00    -0.057 C 
ATOM     78  H   UNL     1     144.857 164.173 188.580  0.00  0.00    +0.024 HD
ATOM     79  H   UNL     1     146.565 163.968 188.914  0.00  0.00    +0.024 HD
ATOM     80  H   UNL     1     146.058 165.035 187.613  0.00  0.00    +0.024 HD
ENDBRANCH  60  77
ENDBRANCH  58  60
BRANCH  58  81
ATOM     81  O   UNL     1     146.047 168.300 189.071  0.00  0.00    -0.379 OA
BRANCH  81  82
ATOM     82  C   UNL     1     146.111 168.838 187.756  0.00  0.00    +0.037 C 
ATOM     83  H   UNL     1     145.188 168.573 187.233  0.00  0.00    +0.052 HD
ATOM     84  H   UNL     1     146.191 169.929 187.787  0.00  0.00    +0.052 HD
ATOM     85  H   UNL     1     146.947 168.407 187.200  0.00  0.00    +0.052 HD
ENDBRANCH  81  82
ENDBRANCH  58  81
ENDBRANCH  52  58
ENDBRANCH   1  52
BRANCH   1  86
ATOM     86  O   UNL     1     148.464 169.586 190.994  0.00  0.00    -0.459 OA
BRANCH  86  88
ATOM     87  O   UNL     1     146.615 170.886 191.408  0.00  0.00    -0.248 OA
ATOM     88  C   UNL     1     147.822 170.767 191.235  0.00  0.00    +0.337 C 
BRANCH  88  89
ATOM     89  C   UNL     1     148.844 171.912 191.288  0.00  0.00    +0.155 C 
ATOM     90  O   UNL     1     149.750 171.772 192.396  0.00  0.00    -0.365 OA
ATOM     91  C   UNL     1     149.405 172.735 193.401  0.00  0.00    +0.049 C 
ATOM     92  C   UNL     1     148.102 173.373 192.974  0.00  0.00    -0.027 C 
ATOM     93  C   UNL     1     148.179 173.266 191.470  0.00  0.00    -0.014 C 
ATOM     94  H   UNL     1     149.433 171.867 190.364  0.00  0.00    +0.071 HD
ATOM     95  H   UNL     1     149.335 172.244 194.376  0.00  0.00    +0.056 HD
ATOM     96  H   UNL     1     150.212 173.475 193.438  0.00  0.00    +0.056 HD
ATOM     97  H   UNL     1     147.254 172.786 193.349  0.00  0.00    +0.029 HD
ATOM     98  H   UNL     1     147.991 174.397 193.339  0.00  0.00    +0.029 HD
ATOM     99  H   UNL     1     147.206 173.365 190.984  0.00  0.00    +0.030 HD
ATOM    100  H   UNL     1     148.835 174.056 191.087  0.00  0.00    +0.030 HD
ENDBRANCH  88  89
ENDBRANCH  86  88
ENDBRANCH   1  86
TORSDOF 32
ENDMDL
MODEL 4
REMARK VINA RESULT:      -5.2      1.364      2.126
REMARK  Name = 2a_conf3
REMARK  32 active torsions:
REMARK  status: ('A' for Active; 'I' for Inactive)
REMARK    1  A    between atoms: C_2  and  C_3
REMARK    2  A    between atoms: C_2  and  O_8
REMARK    3  A    between atoms: O_8  and  C_9
REMARK    4  A    between atoms: C_9  and  C_10
REMARK    5  A    between atoms: C_9  and  C_29
REMARK    6  A    between atoms: C_10  and  C_11
REMARK    7  A    between atoms: C_11  and  C_12
REMARK    8  A    between atoms: C_12  and  C_13
REMARK    9  A    between atoms: C_12  and  C_14
REMARK   10  A    between atoms: C_14  and  O_15
REMARK   11  A    between atoms: C_14  and  C_17
REMARK   12  A    between atoms: O_15  and  C_16
REMARK   13  A    between atoms: C_17  and  C_18
REMARK   14  A    between atoms: C_18  and  O_19
REMARK   15  A    between atoms: C_18  and  C_26
REMARK   16  A    between atoms: O_19  and  C_20
REMARK   17  A    between atoms: C_20  and  C_21
REMARK   18  A    between atoms: C_21  and  C_22
REMARK   19  A    between atoms: C_22  and  C_23
REMARK   20  A    between atoms: C_23  and  N_24
REMARK   21  A    between atoms: C_26  and  C_27
REMARK   22  A    between atoms: C_26  and  C_28
REMARK   23  A    between atoms: C_29  and  C_30
REMARK   24  A    between atoms: C_29  and  C_31
REMARK   25  A    between atoms: C_31  and  O_32
REMARK   26  A    between atoms: C_31  and  C_34
REMARK   27  A    between atoms: O_32  and  C_33
REMARK   28  A    between atoms: C_34  and  C_35
REMARK   29  A    between atoms: C_34  and  C_36
REMARK   30  A    between atoms: C_37  and  N_38
REMARK   31  A    between atoms: N_38  and  C_39
REMARK   32  A    between atoms: C_39  and  C_40
REMARK                            x       y       z     vdW  Elec       q    Type
REMARK                         _______ _______ _______ _____ _____    ______ ____
ROOT
ATOM      1  C   UNL     1     149.720 165.580 190.932  0.00  0.00    +0.108 C 
ATOM      2  H   UNL     1     149.142 164.664 190.826  0.00  0.00    +0.074 HD
ENDROOT
BRANCH   1   3
ATOM      3  C   UNL     1     150.631 165.664 189.692  0.00  0.00    -0.015 C 
ATOM      4  H   UNL     1     150.170 166.374 188.997  0.00  0.00    +0.030 HD
ATOM      5  H   UNL     1     150.634 164.713 189.145  0.00  0.00    +0.030 HD
BRANCH   3   6
ATOM      6  C   UNL     1     152.069 166.076 190.028  0.00  0.00    -0.045 C 
ATOM      7  H   UNL     1     152.701 165.182 189.948  0.00  0.00    +0.027 HD
ATOM      8  H   UNL     1     152.133 166.412 191.070  0.00  0.00    +0.027 HD
BRANCH   6   9
ATOM      9  C   UNL     1     152.629 167.183 189.096  0.00  0.00    -0.017 C 
ATOM     10  H   UNL     1     152.668 168.106 189.680  0.00  0.00    +0.032 HD
BRANCH   9  11
ATOM     11  C   UNL     1     151.632 167.401 187.948  0.00  0.00    -0.060 C 
ATOM     12  H   UNL     1     151.359 168.457 187.843  0.00  0.00    +0.023 HD
ATOM     13  H   UNL     1     152.063 167.074 186.995  0.00  0.00    +0.023 HD
ATOM     14  H   UNL     1     150.718 166.818 188.098  0.00  0.00    +0.023 HD
ENDBRANCH   9  11
BRANCH   9  15
ATOM     15  C   UNL     1     154.055 166.826 188.584  0.00  0.00    +0.064 C 
ATOM     16  H   UNL     1     154.617 167.752 188.425  0.00  0.00    +0.060 HD
BRANCH  15  17
ATOM     17  C   UNL     1     154.132 166.007 187.276  0.00  0.00    +0.011 C 
ATOM     18  H   UNL     1     153.676 166.618 186.488  0.00  0.00    +0.033 HD
ATOM     19  H   UNL     1     155.177 165.870 186.971  0.00  0.00    +0.033 HD
BRANCH  17  20
ATOM     20  C   UNL     1     153.409 164.647 187.334  0.00  0.00    +0.108 C 
ATOM     21  H   UNL     1     152.694 164.676 188.169  0.00  0.00    +0.074 HD
BRANCH  20  22
ATOM     22  C   UNL     1     152.640 164.321 186.022  0.00  0.00    -0.009 C 
ATOM     23  H   UNL     1     153.022 163.373 185.621  0.00  0.00    +0.033 HD
BRANCH  22  24
ATOM     24  C   UNL     1     152.803 165.399 184.946  0.00  0.00    -0.059 C 
ATOM     25  H   UNL     1     152.096 166.222 185.099  0.00  0.00    +0.023 HD
ATOM     26  H   UNL     1     152.628 164.986 183.946  0.00  0.00    +0.023 HD
ATOM     27  H   UNL     1     153.817 165.809 184.941  0.00  0.00    +0.023 HD
ENDBRANCH  22  24
BRANCH  22  28
ATOM     28  C   UNL     1     151.140 164.118 186.290  0.00  0.00    -0.059 C 
ATOM     29  H   UNL     1     150.911 163.082 186.556  0.00  0.00    +0.023 HD
ATOM     30  H   UNL     1     150.794 164.761 187.106  0.00  0.00    +0.023 HD
ATOM     31  H   UNL     1     150.554 164.358 185.397  0.00  0.00    +0.023 HD
ENDBRANCH  22  28
ENDBRANCH  20  22
BRANCH  20  32
ATOM     32  O   UNL     1     154.410 163.624 187.538  0.00  0.00    -0.461 OA
BRANCH  32  33
ATOM     33  C   UNL     1     154.347 162.901 188.686  0.00  0.00    +0.307 C 
ATOM     34  O   UNL     1     155.319 162.524 189.330  0.00  0.00    -0.251 OA
BRANCH  33  35
ATOM     35  C   UNL     1     152.928 162.531 189.049  0.00  0.00    +0.046 C 
ATOM     36  H   UNL     1     152.296 163.395 188.804  0.00  0.00    +0.038 HD
ATOM     37  H   UNL     1     152.622 161.703 188.401  0.00  0.00    +0.038 HD
BRANCH  35  38
ATOM     38  C   UNL     1     152.701 162.152 190.512  0.00  0.00    -0.031 C 
ATOM     39  H   UNL     1     152.370 163.051 191.048  0.00  0.00    +0.028 HD
ATOM     40  H   UNL     1     153.656 161.862 190.970  0.00  0.00    +0.028 HD
BRANCH  38  41
ATOM     41  C   UNL     1     151.686 161.031 190.752  0.00  0.00    -0.006 C 
ATOM     42  H   UNL     1     151.607 160.379 189.878  0.00  0.00    +0.042 HD
ATOM     43  H   UNL     1     152.051 160.411 191.578  0.00  0.00    +0.042 HD
BRANCH  41  44
ATOM     44  N   UNL     1     150.368 161.541 191.105  0.00  0.00    -0.330 NA
ATOM     45  H   UNL     1     149.754 160.759 191.339  0.00  0.00    +0.118 HD
ATOM     46  H   UNL     1     149.935 161.999 190.304  0.00  0.00    +0.118 HD
ENDBRANCH  41  44
ENDBRANCH  38  41
ENDBRANCH  35  38
ENDBRANCH  33  35
ENDBRANCH  32  33
ENDBRANCH  20  32
ENDBRANCH  17  20
ENDBRANCH  15  17
BRANCH  15  47
ATOM     47  O   UNL     1     154.701 166.056 189.619  0.00  0.00    -0.379 OA
BRANCH  47  48
ATOM     48  C   UNL     1     156.123 166.110 189.538  0.00  0.00    +0.037 C 
ATOM     49  H   UNL     1     156.524 165.231 189.021  0.00  0.00    +0.052 HD
ATOM     50  H   UNL     1     156.523 166.129 190.555  0.00  0.00    +0.052 HD
ATOM     51  H   UNL     1     156.437 167.025 189.024  0.00  0.00    +0.052 HD
ENDBRANCH  47  48
ENDBRANCH  15  47
ENDBRANCH   9  15
ENDBRANCH   6   9
ENDBRANCH   3   6
ENDBRANCH   1   3
BRANCH   1  52
ATOM     52  C   UNL     1     148.734 166.764 191.098  0.00  0.00    +0.020 C 
ATOM     53  H   UNL     1     147.746 166.367 191.350  0.00  0.00    +0.036 HD
BRANCH  52  54
ATOM     54  C   UNL     1     148.568 167.532 189.772  0.00  0.00    -0.057 C 
ATOM     55  H   UNL     1     149.351 168.286 189.633  0.00  0.00    +0.023 HD
ATOM     56  H   UNL     1     147.601 168.047 189.745  0.00  0.00    +0.023 HD
ATOM     57  H   UNL     1     148.592 166.852 188.916  0.00  0.00    +0.023 HD
ENDBRANCH  52  54
BRANCH  52  58
ATOM     58  C   UNL     1     149.128 167.779 192.225  0.00  0.00    +0.070 C 
ATOM     59  H   UNL     1     149.844 167.244 192.865  0.00  0.00    +0.061 HD
BRANCH  58  60
ATOM     60  C   UNL     1     149.863 169.087 191.764  0.00  0.00    +0.002 C 
ATOM     61  H   UNL     1     149.848 169.054 190.664  0.00  0.00    +0.037 HD
BRANCH  60  62
ATOM     62  C   UNL     1     149.070 170.338 192.107  0.00  0.00    -0.065 C 
ATOM     63  C   UNL     1     149.541 171.589 192.196  0.00  0.00    -0.005 C 
ATOM     64  H   UNL     1     148.021 170.137 192.313  0.00  0.00    +0.059 HD
ATOM     65  H   UNL     1     150.599 171.773 192.023  0.00  0.00    +0.078 HD
BRANCH  63  66
ATOM     66  N   UNL     1     148.802 172.715 192.530  0.00  0.00    -0.281 N 
ATOM     67  C   UNL     1     148.323 172.879 193.831  0.00  0.00    +0.206 C 
ATOM     68  O   UNL     1     147.644 173.817 194.234  0.00  0.00    -0.279 OA
ATOM     69  H   UNL     1     148.609 172.053 194.503  0.00  0.00    +0.126 HD
BRANCH  66  70
ATOM     70  C   UNL     1     148.465 173.756 191.559  0.00  0.00    +0.016 C 
ATOM     71  H   UNL     1     149.345 174.004 190.958  0.00  0.00    +0.047 HD
ATOM     72  H   UNL     1     148.199 174.675 192.093  0.00  0.00    +0.047 HD
BRANCH  70  73
ATOM     73  C   UNL     1     147.291 173.360 190.675  0.00  0.00    -0.049 C 
ATOM     74  H   UNL     1     146.360 173.834 191.008  0.00  0.00    +0.024 HD
ATOM     75  H   UNL     1     147.461 173.660 189.635  0.00  0.00    +0.024 HD
ATOM     76  H   UNL     1     147.148 172.275 190.700  0.00  0.00    +0.024 HD
ENDBRANCH  70  73
ENDBRANCH  66  70
ENDBRANCH  63  66
ENDBRANCH  60  62
BRANCH  60  77
ATOM     77  C   UNL     1     151.360 169.155 192.089  0.00  0.00    -0.057 C 
ATOM     78  H   UNL     1     151.575 169.228 193.156  0.00  0.00    +0.024 HD
ATOM     79  H   UNL     1     151.804 170.039 191.619  0.00  0.00    +0.024 HD
ATOM     80  H   UNL     1     151.892 168.285 191.696  0.00  0.00    +0.024 HD
ENDBRANCH  60  77
ENDBRANCH  58  60
BRANCH  58  81
ATOM     81  O   UNL     1     147.973 168.064 193.027  0.00  0.00    -0.379 OA
BRANCH  81  82
ATOM     82  C   UNL     1     147.453 166.939 193.724  0.00  0.00    +0.037 C 
ATOM     83  H   UNL     1     148.136 166.098 193.574  0.00  0.00    +0.052 HD
ATOM     84  H   UNL     1     147.386 167.144 194.797  0.00  0.00    +0.052 HD
ATOM     85  H   UNL     1     146.476 166.653 193.326  0.00  0.00    +0.052 HD
ENDBRANCH  81  82
ENDBRANCH  58  81
ENDBRANCH  52  58
ENDBRANCH   1  52
BRANCH   1  86
ATOM     86  O   UNL     1     150.591 165.496 192.080  0.00  0.00    -0.459 OA
BRANCH  86  88
ATOM     87  O   UNL     1     149.299 163.820 192.974  0.00  0.00    -0.248 OA
ATOM     88  C   UNL     1     150.257 164.581 193.037  0.00  0.00    +0.337 C 
BRANCH  88  89
ATOM     89  C   UNL     1     151.280 164.629 194.181  0.00  0.00    +0.155 C 
ATOM     90  O   UNL     1     150.801 163.953 195.357  0.00  0.00    -0.365 OA
ATOM     91  C   UNL     1     150.441 164.933 196.340  0.00  0.00    +0.049 C 
ATOM     92  C   UNL     1     150.520 166.284 195.668  0.00  0.00    -0.027 C 
ATOM     93  C   UNL     1     151.582 166.052 194.620  0.00  0.00    -0.014 C 
ATOM     94  H   UNL     1     152.179 164.107 193.836  0.00  0.00    +0.071 HD
ATOM     95  H   UNL     1     149.444 164.715 196.733  0.00  0.00    +0.056 HD
ATOM     96  H   UNL     1     151.164 164.857 197.160  0.00  0.00    +0.056 HD
ATOM     97  H   UNL     1     149.564 166.523 195.186  0.00  0.00    +0.029 HD
ATOM     98  H   UNL     1     150.757 167.092 196.365  0.00  0.00    +0.029 HD
ATOM     99  H   UNL     1     151.561 166.791 193.817  0.00  0.00    +0.030 HD
ATOM    100  H   UNL     1     152.570 166.092 195.094  0.00  0.00    +0.030 HD
ENDBRANCH  88  89
ENDBRANCH  86  88
ENDBRANCH   1  86
TORSDOF 32
ENDMDL
MODEL 5
REMARK VINA RESULT:      -5.2      4.085      7.616
REMARK  Name = 2a_conf3
REMARK  32 active torsions:
REMARK  status: ('A' for Active; 'I' for Inactive)
REMARK    1  A    between atoms: C_2  and  C_3
REMARK    2  A    between atoms: C_2  and  O_8
REMARK    3  A    between atoms: O_8  and  C_9
REMARK    4  A    between atoms: C_9  and  C_10
REMARK    5  A    between atoms: C_9  and  C_29
REMARK    6  A    between atoms: C_10  and  C_11
REMARK    7  A    between atoms: C_11  and  C_12
REMARK    8  A    between atoms: C_12  and  C_13
REMARK    9  A    between atoms: C_12  and  C_14
REMARK   10  A    between atoms: C_14  and  O_15
REMARK   11  A    between atoms: C_14  and  C_17
REMARK   12  A    between atoms: O_15  and  C_16
REMARK   13  A    between atoms: C_17  and  C_18
REMARK   14  A    between atoms: C_18  and  O_19
REMARK   15  A    between atoms: C_18  and  C_26
REMARK   16  A    between atoms: O_19  and  C_20
REMARK   17  A    between atoms: C_20  and  C_21
REMARK   18  A    between atoms: C_21  and  C_22
REMARK   19  A    between atoms: C_22  and  C_23
REMARK   20  A    between atoms: C_23  and  N_24
REMARK   21  A    between atoms: C_26  and  C_27
REMARK   22  A    between atoms: C_26  and  C_28
REMARK   23  A    between atoms: C_29  and  C_30
REMARK   24  A    between atoms: C_29  and  C_31
REMARK   25  A    between atoms: C_31  and  O_32
REMARK   26  A    between atoms: C_31  and  C_34
REMARK   27  A    between atoms: O_32  and  C_33
REMARK   28  A    between atoms: C_34  and  C_35
REMARK   29  A    between atoms: C_34  and  C_36
REMARK   30  A    between atoms: C_37  and  N_38
REMARK   31  A    between atoms: N_38  and  C_39
REMARK   32  A    between atoms: C_39  and  C_40
REMARK                            x       y       z     vdW  Elec       q    Type
REMARK                         _______ _______ _______ _____ _____    ______ ____
ROOT
ATOM      1  C   UNL     1     146.168 171.269 190.122  0.00  0.00    +0.108 C 
ATOM      2  H   UNL     1     146.263 170.912 191.145  0.00  0.00    +0.074 HD
ENDROOT
BRANCH   1   3
ATOM      3  C   UNL     1     146.839 170.208 189.228  0.00  0.00    -0.015 C 
ATOM      4  H   UNL     1     147.786 170.631 188.877  0.00  0.00    +0.030 HD
ATOM      5  H   UNL     1     146.258 170.046 188.311  0.00  0.00    +0.030 HD
BRANCH   3   6
ATOM      6  C   UNL     1     147.064 168.872 189.944  0.00  0.00    -0.045 C 
ATOM      7  H   UNL     1     147.663 168.233 189.282  0.00  0.00    +0.027 HD
ATOM      8  H   UNL     1     146.108 168.356 190.094  0.00  0.00    +0.027 HD
BRANCH   6   9
ATOM      9  C   UNL     1     147.789 169.015 191.308  0.00  0.00    -0.017 C 
ATOM     10  H   UNL     1     147.337 169.866 191.825  0.00  0.00    +0.032 HD
BRANCH   9  11
ATOM     11  C   UNL     1     149.261 169.362 191.041  0.00  0.00    -0.060 C 
ATOM     12  H   UNL     1     149.795 168.529 190.571  0.00  0.00    +0.023 HD
ATOM     13  H   UNL     1     149.339 170.225 190.371  0.00  0.00    +0.023 HD
ATOM     14  H   UNL     1     149.781 169.632 191.965  0.00  0.00    +0.023 HD
ENDBRANCH   9  11
BRANCH   9  15
ATOM     15  C   UNL     1     147.628 167.731 192.174  0.00  0.00    +0.064 C 
ATOM     16  H   UNL     1     147.946 167.952 193.199  0.00  0.00    +0.060 HD
BRANCH  15  17
ATOM     17  C   UNL     1     148.409 166.483 191.706  0.00  0.00    +0.011 C 
ATOM     18  H   UNL     1     147.666 165.712 191.464  0.00  0.00    +0.033 HD
ATOM     19  H   UNL     1     148.932 166.690 190.764  0.00  0.00    +0.033 HD
BRANCH  17  20
ATOM     20  C   UNL     1     149.392 165.919 192.751  0.00  0.00    +0.108 C 
ATOM     21  H   UNL     1     149.151 164.858 192.908  0.00  0.00    +0.074 HD
BRANCH  20  22
ATOM     22  C   UNL     1     150.876 166.039 192.303  0.00  0.00    -0.009 C 
ATOM     23  H   UNL     1     151.413 165.138 192.630  0.00  0.00    +0.033 HD
BRANCH  22  24
ATOM     24  C   UNL     1     151.586 167.262 192.893  0.00  0.00    -0.059 C 
ATOM     25  H   UNL     1     150.865 167.989 193.283  0.00  0.00    +0.023 HD
ATOM     26  H   UNL     1     152.196 167.766 192.136  0.00  0.00    +0.023 HD
ATOM     27  H   UNL     1     152.265 166.978 193.703  0.00  0.00    +0.023 HD
ENDBRANCH  22  24
BRANCH  22  28
ATOM     28  C   UNL     1     150.995 166.096 190.772  0.00  0.00    -0.059 C 
ATOM     29  H   UNL     1     151.383 165.160 190.359  0.00  0.00    +0.023 HD
ATOM     30  H   UNL     1     150.022 166.291 190.308  0.00  0.00    +0.023 HD
ATOM     31  H   UNL     1     151.681 166.892 190.468  0.00  0.00    +0.023 HD
ENDBRANCH  22  28
ENDBRANCH  20  22
BRANCH  20  32
ATOM     32  O   UNL     1     149.224 166.680 193.968  0.00  0.00    -0.461 OA
BRANCH  32  33
ATOM     33  C   UNL     1     148.687 166.042 195.040  0.00  0.00    +0.307 C 
ATOM     34  O   UNL     1     147.602 165.472 195.044  0.00  0.00    -0.251 OA
BRANCH  33  35
ATOM     35  C   UNL     1     149.544 166.183 196.276  0.00  0.00    +0.046 C 
ATOM     36  H   UNL     1     149.558 167.249 196.539  0.00  0.00    +0.038 HD
ATOM     37  H   UNL     1     149.045 165.648 197.092  0.00  0.00    +0.038 HD
BRANCH  35  38
ATOM     38  C   UNL     1     150.983 165.688 196.139  0.00  0.00    -0.031 C 
ATOM     39  H   UNL     1     151.455 165.738 197.129  0.00  0.00    +0.028 HD
ATOM     40  H   UNL     1     151.550 166.377 195.498  0.00  0.00    +0.028 HD
BRANCH  38  41
ATOM     41  C   UNL     1     151.142 164.269 195.586  0.00  0.00    -0.006 C 
ATOM     42  H   UNL     1     150.502 164.114 194.713  0.00  0.00    +0.042 HD
ATOM     43  H   UNL     1     152.176 164.148 195.245  0.00  0.00    +0.042 HD
BRANCH  41  44
ATOM     44  N   UNL     1     150.863 163.247 196.586  0.00  0.00    -0.330 NA
ATOM     45  H   UNL     1     151.734 162.785 196.850  0.00  0.00    +0.118 HD
ATOM     46  H   UNL     1     150.272 162.515 196.194  0.00  0.00    +0.118 HD
ENDBRANCH  41  44
ENDBRANCH  38  41
ENDBRANCH  35  38
ENDBRANCH  33  35
ENDBRANCH  32  33
ENDBRANCH  20  32
ENDBRANCH  17  20
ENDBRANCH  15  17
BRANCH  15  47
ATOM     47  O   UNL     1     146.227 167.391 192.180  0.00  0.00    -0.379 OA
BRANCH  47  48
ATOM     48  C   UNL     1     145.991 166.024 191.855  0.00  0.00    +0.037 C 
ATOM     49  H   UNL     1     145.090 165.912 191.243  0.00  0.00    +0.052 HD
ATOM     50  H   UNL     1     145.851 165.470 192.788  0.00  0.00    +0.052 HD
ATOM     51  H   UNL     1     146.858 165.607 191.331  0.00  0.00    +0.052 HD
ENDBRANCH  47  48
ENDBRANCH  15  47
ENDBRANCH   9  15
ENDBRANCH   6   9
ENDBRANCH   3   6
ENDBRANCH   1   3
BRANCH   1  52
ATOM     52  C   UNL     1     144.666 171.514 189.827  0.00  0.00    +0.020 C 
ATOM     53  H   UNL     1     144.380 170.929 188.948  0.00  0.00    +0.036 HD
BRANCH  52  54
ATOM     54  C   UNL     1     144.410 172.991 189.467  0.00  0.00    -0.057 C 
ATOM     55  H   UNL     1     144.230 173.127 188.394  0.00  0.00    +0.023 HD
ATOM     56  H   UNL     1     145.273 173.609 189.741  0.00  0.00    +0.023 HD
ATOM     57  H   UNL     1     143.548 173.387 190.011  0.00  0.00    +0.023 HD
ENDBRANCH  52  54
BRANCH  52  58
ATOM     58  C   UNL     1     143.703 171.104 190.993  0.00  0.00    +0.070 C 
ATOM     59  H   UNL     1     143.913 171.809 191.809  0.00  0.00    +0.061 HD
BRANCH  58  60
ATOM     60  C   UNL     1     142.165 171.227 190.707  0.00  0.00    +0.002 C 
ATOM     61  H   UNL     1     141.737 170.259 191.010  0.00  0.00    +0.037 HD
BRANCH  60  62
ATOM     62  C   UNL     1     141.492 172.232 191.628  0.00  0.00    -0.065 C 
ATOM     63  C   UNL     1     142.094 173.177 192.362  0.00  0.00    -0.005 C 
ATOM     64  H   UNL     1     140.412 172.114 191.676  0.00  0.00    +0.059 HD
ATOM     65  H   UNL     1     143.179 173.263 192.335  0.00  0.00    +0.078 HD
BRANCH  63  66
ATOM     66  N   UNL     1     141.462 174.073 193.213  0.00  0.00    -0.281 N 
ATOM     67  C   UNL     1     140.176 173.805 193.683  0.00  0.00    +0.206 C 
ATOM     68  O   UNL     1     139.512 174.529 194.417  0.00  0.00    -0.279 OA
ATOM     69  H   UNL     1     139.775 172.843 193.318  0.00  0.00    +0.126 HD
BRANCH  66  70
ATOM     70  C   UNL     1     142.076 175.332 193.633  0.00  0.00    +0.016 C 
ATOM     71  H   UNL     1     142.751 175.154 194.476  0.00  0.00    +0.047 HD
ATOM     72  H   UNL     1     141.298 176.005 194.010  0.00  0.00    +0.047 HD
BRANCH  70  73
ATOM     73  C   UNL     1     142.799 176.030 192.489  0.00  0.00    -0.049 C 
ATOM     74  H   UNL     1     143.470 176.815 192.858  0.00  0.00    +0.024 HD
ATOM     75  H   UNL     1     143.403 175.320 191.914  0.00  0.00    +0.024 HD
ATOM     76  H   UNL     1     142.075 176.492 191.811  0.00  0.00    +0.024 HD
ENDBRANCH  70  73
ENDBRANCH  66  70
ENDBRANCH  63  66
ENDBRANCH  60  62
BRANCH  60  77
ATOM     77  C   UNL     1     141.772 171.332 189.229  0.00  0.00    -0.057 C 
ATOM     78  H   UNL     1     141.429 172.325 188.935  0.00  0.00    +0.024 HD
ATOM     79  H   UNL     1     140.951 170.641 189.010  0.00  0.00    +0.024 HD
ATOM     80  H   UNL     1     142.603 171.055 188.576  0.00  0.00    +0.024 HD
ENDBRANCH  60  77
ENDBRANCH  58  60
BRANCH  58  81
ATOM     81  O   UNL     1     144.062 169.796 191.460  0.00  0.00    -0.379 OA
BRANCH  81  82
ATOM     82  C   UNL     1     143.018 168.834 191.367  0.00  0.00    +0.037 C 
ATOM     83  H   UNL     1     143.124 168.134 192.201  0.00  0.00    +0.052 HD
ATOM     84  H   UNL     1     142.039 169.315 191.442  0.00  0.00    +0.052 HD
ATOM     85  H   UNL     1     143.097 168.264 190.439  0.00  0.00    +0.052 HD
ENDBRANCH  81  82
ENDBRANCH  58  81
ENDBRANCH  52  58
ENDBRANCH   1  52
BRANCH   1  86
ATOM     86  O   UNL     1     146.913 172.491 189.944  0.00  0.00    -0.459 OA
BRANCH  86  88
ATOM     87  O   UNL     1     148.827 173.449 190.779  0.00  0.00    -0.248 OA
ATOM     88  C   UNL     1     147.782 172.830 190.942  0.00  0.00    +0.337 C 
BRANCH  88  89
ATOM     89  C   UNL     1     147.235 172.350 192.293  0.00  0.00    +0.155 C 
ATOM     90  O   UNL     1     146.425 173.353 192.931  0.00  0.00    -0.365 OA
ATOM     91  C   UNL     1     147.162 173.918 194.023  0.00  0.00    +0.049 C 
ATOM     92  C   UNL     1     148.569 173.371 193.938  0.00  0.00    -0.027 C 
ATOM     93  C   UNL     1     148.345 172.031 193.280  0.00  0.00    -0.014 C 
ATOM     94  H   UNL     1     146.599 171.480 192.097  0.00  0.00    +0.071 HD
ATOM     95  H   UNL     1     147.129 175.010 193.968  0.00  0.00    +0.056 HD
ATOM     96  H   UNL     1     146.671 173.600 194.950  0.00  0.00    +0.056 HD
ATOM     97  H   UNL     1     149.183 174.009 193.291  0.00  0.00    +0.029 HD
ATOM     98  H   UNL     1     149.060 173.308 194.912  0.00  0.00    +0.029 HD
ATOM     99  H   UNL     1     149.250 171.618 192.831  0.00  0.00    +0.030 HD
ATOM    100  H   UNL     1     147.981 171.319 194.030  0.00  0.00    +0.030 HD
ENDBRANCH  88  89
ENDBRANCH  86  88
ENDBRANCH   1  86
TORSDOF 32
ENDMDL
MODEL 6
REMARK VINA RESULT:      -5.1      1.564      2.698
REMARK  Name = 2a_conf3
REMARK  32 active torsions:
REMARK  status: ('A' for Active; 'I' for Inactive)
REMARK    1  A    between atoms: C_2  and  C_3
REMARK    2  A    between atoms: C_2  and  O_8
REMARK    3  A    between atoms: O_8  and  C_9
REMARK    4  A    between atoms: C_9  and  C_10
REMARK    5  A    between atoms: C_9  and  C_29
REMARK    6  A    between atoms: C_10  and  C_11
REMARK    7  A    between atoms: C_11  and  C_12
REMARK    8  A    between atoms: C_12  and  C_13
REMARK    9  A    between atoms: C_12  and  C_14
REMARK   10  A    between atoms: C_14  and  O_15
REMARK   11  A    between atoms: C_14  and  C_17
REMARK   12  A    between atoms: O_15  and  C_16
REMARK   13  A    between atoms: C_17  and  C_18
REMARK   14  A    between atoms: C_18  and  O_19
REMARK   15  A    between atoms: C_18  and  C_26
REMARK   16  A    between atoms: O_19  and  C_20
REMARK   17  A    between atoms: C_20  and  C_21
REMARK   18  A    between atoms: C_21  and  C_22
REMARK   19  A    between atoms: C_22  and  C_23
REMARK   20  A    between atoms: C_23  and  N_24
REMARK   21  A    between atoms: C_26  and  C_27
REMARK   22  A    between atoms: C_26  and  C_28
REMARK   23  A    between atoms: C_29  and  C_30
REMARK   24  A    between atoms: C_29  and  C_31
REMARK   25  A    between atoms: C_31  and  O_32
REMARK   26  A    between atoms: C_31  and  C_34
REMARK   27  A    between atoms: O_32  and  C_33
REMARK   28  A    between atoms: C_34  and  C_35
REMARK   29  A    between atoms: C_34  and  C_36
REMARK   30  A    between atoms: C_37  and  N_38
REMARK   31  A    between atoms: N_38  and  C_39
REMARK   32  A    between atoms: C_39  and  C_40
REMARK                            x       y       z     vdW  Elec       q    Type
REMARK                         _______ _______ _______ _____ _____    ______ ____
ROOT
ATOM      1  C   UNL     1     149.735 165.675 191.017  0.00  0.00    +0.108 C 
ATOM      2  H   UNL     1     149.155 164.766 190.873  0.00  0.00    +0.074 HD
ENDROOT
BRANCH   1   3
ATOM      3  C   UNL     1     150.695 165.772 189.816  0.00  0.00    -0.015 C 
ATOM      4  H   UNL     1     150.236 166.447 189.086  0.00  0.00    +0.030 HD
ATOM      5  H   UNL     1     150.762 164.811 189.291  0.00  0.00    +0.030 HD
BRANCH   3   6
ATOM      6  C   UNL     1     152.099 166.252 190.203  0.00  0.00    -0.045 C 
ATOM      7  H   UNL     1     152.652 165.388 190.596  0.00  0.00    +0.027 HD
ATOM      8  H   UNL     1     152.037 166.981 191.020  0.00  0.00    +0.027 HD
BRANCH   6   9
ATOM      9  C   UNL     1     152.890 166.870 189.020  0.00  0.00    -0.017 C 
ATOM     10  H   UNL     1     153.318 167.811 189.376  0.00  0.00    +0.032 HD
BRANCH   9  11
ATOM     11  C   UNL     1     151.898 167.206 187.896  0.00  0.00    -0.060 C 
ATOM     12  H   UNL     1     152.334 167.032 186.906  0.00  0.00    +0.023 HD
ATOM     13  H   UNL     1     150.999 166.585 187.977  0.00  0.00    +0.023 HD
ATOM     14  H   UNL     1     151.568 168.247 187.953  0.00  0.00    +0.023 HD
ENDBRANCH   9  11
BRANCH   9  15
ATOM     15  C   UNL     1     154.030 165.923 188.544  0.00  0.00    +0.064 C 
ATOM     16  H   UNL     1     154.601 166.424 187.754  0.00  0.00    +0.060 HD
BRANCH  15  17
ATOM     17  C   UNL     1     153.597 164.544 187.998  0.00  0.00    +0.011 C 
ATOM     18  H   UNL     1     152.514 164.591 187.831  0.00  0.00    +0.033 HD
ATOM     19  H   UNL     1     154.037 164.367 187.010  0.00  0.00    +0.033 HD
BRANCH  17  20
ATOM     20  C   UNL     1     153.905 163.363 188.940  0.00  0.00    +0.108 C 
ATOM     21  H   UNL     1     154.300 163.771 189.881  0.00  0.00    +0.074 HD
BRANCH  20  22
ATOM     22  C   UNL     1     152.649 162.501 189.250  0.00  0.00    -0.009 C 
ATOM     23  H   UNL     1     151.799 162.905 188.684  0.00  0.00    +0.033 HD
BRANCH  22  24
ATOM     24  C   UNL     1     152.276 162.494 190.736  0.00  0.00    -0.059 C 
ATOM     25  H   UNL     1     152.914 163.175 191.309  0.00  0.00    +0.023 HD
ATOM     26  H   UNL     1     152.384 161.491 191.164  0.00  0.00    +0.023 HD
ATOM     27  H   UNL     1     151.232 162.787 190.888  0.00  0.00    +0.023 HD
ENDBRANCH  22  24
BRANCH  22  28
ATOM     28  C   UNL     1     152.840 161.048 188.787  0.00  0.00    -0.059 C 
ATOM     29  H   UNL     1     153.836 160.669 189.036  0.00  0.00    +0.023 HD
ATOM     30  H   UNL     1     152.102 160.385 189.251  0.00  0.00    +0.023 HD
ATOM     31  H   UNL     1     152.729 160.972 187.701  0.00  0.00    +0.023 HD
ENDBRANCH  22  28
ENDBRANCH  20  22
BRANCH  20  32
ATOM     32  O   UNL     1     154.881 162.521 188.285  0.00  0.00    -0.461 OA
BRANCH  32  33
ATOM     33  C   UNL     1     156.180 162.655 188.658  0.00  0.00    +0.307 C 
ATOM     34  O   UNL     1     157.115 162.830 187.886  0.00  0.00    -0.251 OA
BRANCH  33  35
ATOM     35  C   UNL     1     156.367 162.478 190.147  0.00  0.00    +0.046 C 
ATOM     36  H   UNL     1     156.284 163.474 190.602  0.00  0.00    +0.038 HD
ATOM     37  H   UNL     1     155.532 161.875 190.519  0.00  0.00    +0.038 HD
BRANCH  35  38
ATOM     38  C   UNL     1     157.691 161.847 190.573  0.00  0.00    -0.031 C 
ATOM     39  H   UNL     1     157.770 161.930 191.665  0.00  0.00    +0.028 HD
ATOM     40  H   UNL     1     158.526 162.431 190.164  0.00  0.00    +0.028 HD
BRANCH  38  41
ATOM     41  C   UNL     1     157.881 160.381 190.173  0.00  0.00    -0.006 C 
ATOM     42  H   UNL     1     157.114 160.066 189.460  0.00  0.00    +0.042 HD
ATOM     43  H   UNL     1     158.845 160.289 189.661  0.00  0.00    +0.042 HD
BRANCH  41  44
ATOM     44  N   UNL     1     157.881 159.486 191.322  0.00  0.00    -0.330 NA
ATOM     45  H   UNL     1     156.981 159.010 191.381  0.00  0.00    +0.118 HD
ATOM     46  H   UNL     1     157.968 160.017 192.188  0.00  0.00    +0.118 HD
ENDBRANCH  41  44
ENDBRANCH  38  41
ENDBRANCH  35  38
ENDBRANCH  33  35
ENDBRANCH  32  33
ENDBRANCH  20  32
ENDBRANCH  17  20
ENDBRANCH  15  17
BRANCH  15  47
ATOM     47  O   UNL     1     154.895 165.692 189.674  0.00  0.00    -0.379 OA
BRANCH  47  48
ATOM     48  C   UNL     1     156.203 166.226 189.484  0.00  0.00    +0.037 C 
ATOM     49  H   UNL     1     156.163 167.294 189.244  0.00  0.00    +0.052 HD
ATOM     50  H   UNL     1     156.671 165.698 188.649  0.00  0.00    +0.052 HD
ATOM     51  H   UNL     1     156.810 166.065 190.382  0.00  0.00    +0.052 HD
ENDBRANCH  47  48
ENDBRANCH  15  47
ENDBRANCH   9  15
ENDBRANCH   6   9
ENDBRANCH   3   6
ENDBRANCH   1   3
BRANCH   1  52
ATOM     52  C   UNL     1     148.753 166.865 191.164  0.00  0.00    +0.020 C 
ATOM     53  H   UNL     1     147.766 166.476 191.431  0.00  0.00    +0.036 HD
BRANCH  52  54
ATOM     54  C   UNL     1     148.579 167.605 189.823  0.00  0.00    -0.057 C 
ATOM     55  H   UNL     1     147.587 167.439 189.388  0.00  0.00    +0.023 HD
ATOM     56  H   UNL     1     149.323 167.260 189.095  0.00  0.00    +0.023 HD
ATOM     57  H   UNL     1     148.724 168.682 189.944  0.00  0.00    +0.023 HD
ENDBRANCH  52  54
BRANCH  52  58
ATOM     58  C   UNL     1     149.157 167.904 192.266  0.00  0.00    +0.070 C 
ATOM     59  H   UNL     1     149.891 167.387 192.901  0.00  0.00    +0.061 HD
BRANCH  58  60
ATOM     60  C   UNL     1     149.868 169.212 191.769  0.00  0.00    +0.002 C 
ATOM     61  H   UNL     1     149.874 169.137 190.671  0.00  0.00    +0.037 HD
BRANCH  60  62
ATOM     62  C   UNL     1     149.039 170.454 192.051  0.00  0.00    -0.065 C 
ATOM     63  C   UNL     1     149.498 171.683 192.317  0.00  0.00    -0.005 C 
ATOM     64  H   UNL     1     147.968 170.265 192.045  0.00  0.00    +0.059 HD
ATOM     65  H   UNL     1     150.573 171.854 192.356  0.00  0.00    +0.078 HD
BRANCH  63  66
ATOM     66  N   UNL     1     148.723 172.801 192.591  0.00  0.00    -0.281 N 
ATOM     67  C   UNL     1     148.197 172.993 193.869  0.00  0.00    +0.206 C 
ATOM     68  O   UNL     1     147.483 173.927 194.221  0.00  0.00    -0.279 OA
ATOM     69  H   UNL     1     148.480 172.195 194.576  0.00  0.00    +0.126 HD
BRANCH  66  70
ATOM     70  C   UNL     1     148.394 173.803 191.577  0.00  0.00    +0.016 C 
ATOM     71  H   UNL     1     149.279 174.027 190.974  0.00  0.00    +0.047 HD
ATOM     72  H   UNL     1     148.124 174.743 192.072  0.00  0.00    +0.047 HD
BRANCH  70  73
ATOM     73  C   UNL     1     147.227 173.373 190.699  0.00  0.00    -0.049 C 
ATOM     74  H   UNL     1     146.267 173.687 191.126  0.00  0.00    +0.024 HD
ATOM     75  H   UNL     1     147.304 173.811 189.698  0.00  0.00    +0.024 HD
ATOM     76  H   UNL     1     147.213 172.283 190.596  0.00  0.00    +0.024 HD
ENDBRANCH  70  73
ENDBRANCH  66  70
ENDBRANCH  63  66
ENDBRANCH  60  62
BRANCH  60  77
ATOM     77  C   UNL     1     151.357 169.328 192.116  0.00  0.00    -0.057 C 
ATOM     78  H   UNL     1     151.857 168.366 192.238  0.00  0.00    +0.024 HD
ATOM     79  H   UNL     1     151.478 169.864 193.063  0.00  0.00    +0.024 HD
ATOM     80  H   UNL     1     151.899 169.897 191.357  0.00  0.00    +0.024 HD
ENDBRANCH  60  77
ENDBRANCH  58  60
BRANCH  58  81
ATOM     81  O   UNL     1     148.014 168.189 193.085  0.00  0.00    -0.379 OA
BRANCH  81  82
ATOM     82  C   UNL     1     147.463 167.052 193.738  0.00  0.00    +0.037 C 
ATOM     83  H   UNL     1     147.208 167.338 194.763  0.00  0.00    +0.052 HD
ATOM     84  H   UNL     1     146.552 166.718 193.234  0.00  0.00    +0.052 HD
ATOM     85  H   UNL     1     148.193 166.242 193.789  0.00  0.00    +0.052 HD
ENDBRANCH  81  82
ENDBRANCH  58  81
ENDBRANCH  52  58
ENDBRANCH   1  52
BRANCH   1  86
ATOM     86  O   UNL     1     150.559 165.565 192.197  0.00  0.00    -0.459 OA
BRANCH  86  88
ATOM     87  O   UNL     1     149.223 163.881 193.007  0.00  0.00    -0.248 OA
ATOM     88  C   UNL     1     150.196 164.617 193.111  0.00  0.00    +0.337 C 
BRANCH  88  89
ATOM     89  C   UNL     1     151.209 164.594 194.265  0.00  0.00    +0.155 C 
ATOM     90  O   UNL     1     150.676 163.947 195.433  0.00  0.00    -0.365 OA
ATOM     91  C   UNL     1     150.370 164.944 196.417  0.00  0.00    +0.049 C 
ATOM     92  C   UNL     1     150.544 166.290 195.751  0.00  0.00    -0.027 C 
ATOM     93  C   UNL     1     151.598 165.993 194.713  0.00  0.00    -0.014 C 
ATOM     94  H   UNL     1     152.076 164.016 193.926  0.00  0.00    +0.071 HD
ATOM     95  H   UNL     1     149.357 164.790 196.799  0.00  0.00    +0.056 HD
ATOM     96  H   UNL     1     151.079 164.819 197.243  0.00  0.00    +0.056 HD
ATOM     97  H   UNL     1     149.610 166.592 195.262  0.00  0.00    +0.029 HD
ATOM     98  H   UNL     1     150.826 167.079 196.454  0.00  0.00    +0.029 HD
ATOM     99  H   UNL     1     151.633 166.735 193.913  0.00  0.00    +0.030 HD
ATOM    100  H   UNL     1     152.582 165.967 195.197  0.00  0.00    +0.030 HD
ENDBRANCH  88  89
ENDBRANCH  86  88
ENDBRANCH   1  86
TORSDOF 32
ENDMDL
MODEL 7
REMARK VINA RESULT:      -5.1      2.094      3.318
REMARK  Name = 2a_conf3
REMARK  32 active torsions:
REMARK  status: ('A' for Active; 'I' for Inactive)
REMARK    1  A    between atoms: C_2  and  C_3
REMARK    2  A    between atoms: C_2  and  O_8
REMARK    3  A    between atoms: O_8  and  C_9
REMARK    4  A    between atoms: C_9  and  C_10
REMARK    5  A    between atoms: C_9  and  C_29
REMARK    6  A    between atoms: C_10  and  C_11
REMARK    7  A    between atoms: C_11  and  C_12
REMARK    8  A    between atoms: C_12  and  C_13
REMARK    9  A    between atoms: C_12  and  C_14
REMARK   10  A    between atoms: C_14  and  O_15
REMARK   11  A    between atoms: C_14  and  C_17
REMARK   12  A    between atoms: O_15  and  C_16
REMARK   13  A    between atoms: C_17  and  C_18
REMARK   14  A    between atoms: C_18  and  O_19
REMARK   15  A    between atoms: C_18  and  C_26
REMARK   16  A    between atoms: O_19  and  C_20
REMARK   17  A    between atoms: C_20  and  C_21
REMARK   18  A    between atoms: C_21  and  C_22
REMARK   19  A    between atoms: C_22  and  C_23
REMARK   20  A    between atoms: C_23  and  N_24
REMARK   21  A    between atoms: C_26  and  C_27
REMARK   22  A    between atoms: C_26  and  C_28
REMARK   23  A    between atoms: C_29  and  C_30
REMARK   24  A    between atoms: C_29  and  C_31
REMARK   25  A    between atoms: C_31  and  O_32
REMARK   26  A    between atoms: C_31  and  C_34
REMARK   27  A    between atoms: O_32  and  C_33
REMARK   28  A    between atoms: C_34  and  C_35
REMARK   29  A    between atoms: C_34  and  C_36
REMARK   30  A    between atoms: C_37  and  N_38
REMARK   31  A    between atoms: N_38  and  C_39
REMARK   32  A    between atoms: C_39  and  C_40
REMARK                            x       y       z     vdW  Elec       q    Type
REMARK                         _______ _______ _______ _____ _____    ______ ____
ROOT
ATOM      1  C   UNL     1     150.231 165.846 191.253  0.00  0.00    +0.108 C 
ATOM      2  H   UNL     1     149.926 164.880 190.855  0.00  0.00    +0.074 HD
ENDROOT
BRANCH   1   3
ATOM      3  C   UNL     1     151.330 166.375 190.312  0.00  0.00    -0.015 C 
ATOM      4  H   UNL     1     151.696 167.316 190.736  0.00  0.00    +0.030 HD
ATOM      5  H   UNL     1     150.908 166.662 189.340  0.00  0.00    +0.030 HD
BRANCH   3   6
ATOM      6  C   UNL     1     152.478 165.380 190.106  0.00  0.00    -0.045 C 
ATOM      7  H   UNL     1     152.935 165.189 191.086  0.00  0.00    +0.027 HD
ATOM      8  H   UNL     1     153.259 165.827 189.479  0.00  0.00    +0.027 HD
BRANCH   6   9
ATOM      9  C   UNL     1     152.026 164.034 189.483  0.00  0.00    -0.017 C 
ATOM     10  H   UNL     1     150.941 164.085 189.357  0.00  0.00    +0.032 HD
BRANCH   9  11
ATOM     11  C   UNL     1     152.325 162.909 190.486  0.00  0.00    -0.060 C 
ATOM     12  H   UNL     1     152.346 163.281 191.516  0.00  0.00    +0.023 HD
ATOM     13  H   UNL     1     151.557 162.129 190.430  0.00  0.00    +0.023 HD
ATOM     14  H   UNL     1     153.282 162.426 190.270  0.00  0.00    +0.023 HD
ENDBRANCH   9  11
BRANCH   9  15
ATOM     15  C   UNL     1     152.702 163.793 188.101  0.00  0.00    +0.064 C 
ATOM     16  H   UNL     1     152.080 163.106 187.517  0.00  0.00    +0.060 HD
BRANCH  15  17
ATOM     17  C   UNL     1     154.134 163.213 188.128  0.00  0.00    +0.011 C 
ATOM     18  H   UNL     1     154.274 162.748 189.112  0.00  0.00    +0.033 HD
ATOM     19  H   UNL     1     154.230 162.396 187.403  0.00  0.00    +0.033 HD
BRANCH  17  20
ATOM     20  C   UNL     1     155.246 164.257 187.907  0.00  0.00    +0.108 C 
ATOM     21  H   UNL     1     154.770 165.211 187.639  0.00  0.00    +0.074 HD
BRANCH  20  22
ATOM     22  C   UNL     1     156.129 164.469 189.170  0.00  0.00    -0.009 C 
ATOM     23  H   UNL     1     155.641 163.978 190.022  0.00  0.00    +0.033 HD
BRANCH  22  24
ATOM     24  C   UNL     1     156.334 165.947 189.519  0.00  0.00    -0.059 C 
ATOM     25  H   UNL     1     157.066 166.414 188.852  0.00  0.00    +0.023 HD
ATOM     26  H   UNL     1     156.695 166.061 190.547  0.00  0.00    +0.023 HD
ATOM     27  H   UNL     1     155.396 166.507 189.453  0.00  0.00    +0.023 HD
ENDBRANCH  22  24
BRANCH  22  28
ATOM     28  C   UNL     1     157.507 163.809 189.005  0.00  0.00    -0.059 C 
ATOM     29  H   UNL     1     158.310 164.440 189.396  0.00  0.00    +0.023 HD
ATOM     30  H   UNL     1     157.548 162.847 189.528  0.00  0.00    +0.023 HD
ATOM     31  H   UNL     1     157.724 163.629 187.947  0.00  0.00    +0.023 HD
ENDBRANCH  22  28
ENDBRANCH  20  22
BRANCH  20  32
ATOM     32  O   UNL     1     156.094 163.778 186.838  0.00  0.00    -0.461 OA
BRANCH  32  33
ATOM     33  C   UNL     1     155.914 164.314 185.603  0.00  0.00    +0.307 C 
ATOM     34  O   UNL     1     155.072 163.942 184.795  0.00  0.00    -0.251 OA
BRANCH  33  35
ATOM     35  C   UNL     1     156.936 165.382 185.291  0.00  0.00    +0.046 C 
ATOM     36  H   UNL     1     157.893 165.045 185.712  0.00  0.00    +0.038 HD
ATOM     37  H   UNL     1     157.051 165.427 184.202  0.00  0.00    +0.038 HD
BRANCH  35  38
ATOM     38  C   UNL     1     156.619 166.774 185.835  0.00  0.00    -0.031 C 
ATOM     39  H   UNL     1     157.294 167.491 185.348  0.00  0.00    +0.028 HD
ATOM     40  H   UNL     1     156.859 166.815 186.906  0.00  0.00    +0.028 HD
BRANCH  38  41
ATOM     41  C   UNL     1     155.175 167.245 185.642  0.00  0.00    -0.006 C 
ATOM     42  H   UNL     1     155.121 168.053 184.907  0.00  0.00    +0.042 HD
ATOM     43  H   UNL     1     154.595 166.409 185.236  0.00  0.00    +0.042 HD
BRANCH  41  44
ATOM     44  N   UNL     1     154.557 167.672 186.890  0.00  0.00    -0.330 NA
ATOM     45  H   UNL     1     155.268 168.084 187.496  0.00  0.00    +0.118 HD
ATOM     46  H   UNL     1     154.193 166.869 187.401  0.00  0.00    +0.118 HD
ENDBRANCH  41  44
ENDBRANCH  38  41
ENDBRANCH  35  38
ENDBRANCH  33  35
ENDBRANCH  32  33
ENDBRANCH  20  32
ENDBRANCH  17  20
ENDBRANCH  15  17
BRANCH  15  47
ATOM     47  O   UNL     1     152.760 165.065 187.425  0.00  0.00    -0.379 OA
BRANCH  47  48
ATOM     48  C   UNL     1     151.856 165.145 186.326  0.00  0.00    +0.037 C 
ATOM     49  H   UNL     1     150.832 165.331 186.667  0.00  0.00    +0.052 HD
ATOM     50  H   UNL     1     151.878 164.189 185.794  0.00  0.00    +0.052 HD
ATOM     51  H   UNL     1     152.172 165.934 185.635  0.00  0.00    +0.052 HD
ENDBRANCH  47  48
ENDBRANCH  15  47
ENDBRANCH   9  15
ENDBRANCH   6   9
ENDBRANCH   3   6
ENDBRANCH   1   3
BRANCH   1  52
ATOM     52  C   UNL     1     148.976 166.749 191.362  0.00  0.00    +0.020 C 
ATOM     53  H   UNL     1     148.125 166.134 191.670  0.00  0.00    +0.036 HD
BRANCH  52  54
ATOM     54  C   UNL     1     148.605 167.345 189.989  0.00  0.00    -0.057 C 
ATOM     55  H   UNL     1     149.301 167.030 189.204  0.00  0.00    +0.023 HD
ATOM     56  H   UNL     1     148.619 168.440 190.029  0.00  0.00    +0.023 HD
ATOM     57  H   UNL     1     147.596 167.048 189.690  0.00  0.00    +0.023 HD
ENDBRANCH  52  54
BRANCH  52  58
ATOM     58  C   UNL     1     149.107 167.915 192.401  0.00  0.00    +0.070 C 
ATOM     59  H   UNL     1     149.935 167.625 193.063  0.00  0.00    +0.061 HD
BRANCH  58  60
ATOM     60  C   UNL     1     149.492 169.324 191.827  0.00  0.00    +0.002 C 
ATOM     61  H   UNL     1     149.441 169.215 190.733  0.00  0.00    +0.037 HD
BRANCH  60  62
ATOM     62  C   UNL     1     148.441 170.375 192.143  0.00  0.00    -0.065 C 
ATOM     63  C   UNL     1     148.659 171.649 192.496  0.00  0.00    -0.005 C 
ATOM     64  H   UNL     1     147.424 169.996 192.082  0.00  0.00    +0.059 HD
ATOM     65  H   UNL     1     149.682 172.009 192.589  0.00  0.00    +0.078 HD
BRANCH  63  66
ATOM     66  N   UNL     1     147.683 172.588 192.799  0.00  0.00    -0.281 N 
ATOM     67  C   UNL     1     147.825 173.410 193.918  0.00  0.00    +0.206 C 
ATOM     68  O   UNL     1     147.021 174.256 194.296  0.00  0.00    -0.279 OA
ATOM     69  H   UNL     1     148.761 173.226 194.472  0.00  0.00    +0.126 HD
BRANCH  66  70
ATOM     70  C   UNL     1     146.466 172.749 192.003  0.00  0.00    +0.016 C 
ATOM     71  H   UNL     1     145.729 173.332 192.563  0.00  0.00    +0.047 HD
ATOM     72  H   UNL     1     146.009 171.766 191.841  0.00  0.00    +0.047 HD
BRANCH  70  73
ATOM     73  C   UNL     1     146.745 173.377 190.645  0.00  0.00    -0.049 C 
ATOM     74  H   UNL     1     146.233 172.836 189.841  0.00  0.00    +0.024 HD
ATOM     75  H   UNL     1     146.405 174.417 190.615  0.00  0.00    +0.024 HD
ATOM     76  H   UNL     1     147.820 173.361 190.435  0.00  0.00    +0.024 HD
ENDBRANCH  70  73
ENDBRANCH  66  70
ENDBRANCH  63  66
ENDBRANCH  60  62
BRANCH  60  77
ATOM     77  C   UNL     1     150.943 169.761 192.064  0.00  0.00    -0.057 C 
ATOM     78  H   UNL     1     151.587 168.963 192.437  0.00  0.00    +0.024 HD
ATOM     79  H   UNL     1     150.975 170.561 192.810  0.00  0.00    +0.024 HD
ATOM     80  H   UNL     1     151.393 170.158 191.151  0.00  0.00    +0.024 HD
ENDBRANCH  60  77
ENDBRANCH  58  60
BRANCH  58  81
ATOM     81  O   UNL     1     147.919 167.966 193.204  0.00  0.00    -0.379 OA
BRANCH  81  82
ATOM     82  C   UNL     1     147.398 166.692 193.559  0.00  0.00    +0.037 C 
ATOM     83  H   UNL     1     147.290 166.100 192.645  0.00  0.00    +0.052 HD
ATOM     84  H   UNL     1     148.081 166.167 194.234  0.00  0.00    +0.052 HD
ATOM     85  H   UNL     1     146.409 166.789 194.013  0.00  0.00    +0.052 HD
ENDBRANCH  81  82
ENDBRANCH  58  81
ENDBRANCH  52  58
ENDBRANCH   1  52
BRANCH   1  86
ATOM     86  O   UNL     1     150.840 165.686 192.551  0.00  0.00    -0.459 OA
BRANCH  86  88
ATOM     87  O   UNL     1     149.586 163.800 192.939  0.00  0.00    -0.248 OA
ATOM     88  C   UNL     1     150.436 164.610 193.289  0.00  0.00    +0.337 C 
BRANCH  88  89
ATOM     89  C   UNL     1     151.232 164.551 194.601  0.00  0.00    +0.155 C 
ATOM     90  O   UNL     1     150.470 163.954 195.664  0.00  0.00    -0.365 OA
ATOM     91  C   UNL     1     150.056 164.983 196.573  0.00  0.00    +0.049 C 
ATOM     92  C   UNL     1     150.417 166.306 195.937  0.00  0.00    -0.027 C 
ATOM     93  C   UNL     1     151.616 165.934 195.099  0.00  0.00    -0.014 C 
ATOM     94  H   UNL     1     152.110 163.922 194.422  0.00  0.00    +0.071 HD
ATOM     95  H   UNL     1     148.985 164.891 196.775  0.00  0.00    +0.056 HD
ATOM     96  H   UNL     1     150.603 164.834 197.510  0.00  0.00    +0.056 HD
ATOM     97  H   UNL     1     149.600 166.650 195.291  0.00  0.00    +0.029 HD
ATOM     98  H   UNL     1     150.618 167.090 196.672  0.00  0.00    +0.029 HD
ATOM     99  H   UNL     1     151.830 166.660 194.312  0.00  0.00    +0.030 HD
ATOM    100  H   UNL     1     152.499 165.863 195.746  0.00  0.00    +0.030 HD
ENDBRANCH  88  89
ENDBRANCH  86  88
ENDBRANCH   1  86
TORSDOF 32
ENDMDL
MODEL 8
REMARK VINA RESULT:      -5.1      2.550      3.972
REMARK  Name = 2a_conf3
REMARK  32 active torsions:
REMARK  status: ('A' for Active; 'I' for Inactive)
REMARK    1  A    between atoms: C_2  and  C_3
REMARK    2  A    between atoms: C_2  and  O_8
REMARK    3  A    between atoms: O_8  and  C_9
REMARK    4  A    between atoms: C_9  and  C_10
REMARK    5  A    between atoms: C_9  and  C_29
REMARK    6  A    between atoms: C_10  and  C_11
REMARK    7  A    between atoms: C_11  and  C_12
REMARK    8  A    between atoms: C_12  and  C_13
REMARK    9  A    between atoms: C_12  and  C_14
REMARK   10  A    between atoms: C_14  and  O_15
REMARK   11  A    between atoms: C_14  and  C_17
REMARK   12  A    between atoms: O_15  and  C_16
REMARK   13  A    between atoms: C_17  and  C_18
REMARK   14  A    between atoms: C_18  and  O_19
REMARK   15  A    between atoms: C_18  and  C_26
REMARK   16  A    between atoms: O_19  and  C_20
REMARK   17  A    between atoms: C_20  and  C_21
REMARK   18  A    between atoms: C_21  and  C_22
REMARK   19  A    between atoms: C_22  and  C_23
REMARK   20  A    between atoms: C_23  and  N_24
REMARK   21  A    between atoms: C_26  and  C_27
REMARK   22  A    between atoms: C_26  and  C_28
REMARK   23  A    between atoms: C_29  and  C_30
REMARK   24  A    between atoms: C_29  and  C_31
REMARK   25  A    between atoms: C_31  and  O_32
REMARK   26  A    between atoms: C_31  and  C_34
REMARK   27  A    between atoms: O_32  and  C_33
REMARK   28  A    between atoms: C_34  and  C_35
REMARK   29  A    between atoms: C_34  and  C_36
REMARK   30  A    between atoms: C_37  and  N_38
REMARK   31  A    between atoms: N_38  and  C_39
REMARK   32  A    between atoms: C_39  and  C_40
REMARK                            x       y       z     vdW  Elec       q    Type
REMARK                         _______ _______ _______ _____ _____    ______ ____
ROOT
ATOM      1  C   UNL     1     149.770 165.525 191.044  0.00  0.00    +0.108 C 
ATOM      2  H   UNL     1     149.213 164.599 190.917  0.00  0.00    +0.074 HD
ENDROOT
BRANCH   1   3
ATOM      3  C   UNL     1     150.726 165.626 189.840  0.00  0.00    -0.015 C 
ATOM      4  H   UNL     1     150.383 166.462 189.221  0.00  0.00    +0.030 HD
ATOM      5  H   UNL     1     150.627 164.749 189.188  0.00  0.00    +0.030 HD
BRANCH   3   6
ATOM      6  C   UNL     1     152.192 165.807 190.248  0.00  0.00    -0.045 C 
ATOM      7  H   UNL     1     152.704 164.848 190.095  0.00  0.00    +0.027 HD
ATOM      8  H   UNL     1     152.262 166.031 191.320  0.00  0.00    +0.027 HD
BRANCH   6   9
ATOM      9  C   UNL     1     152.927 166.912 189.444  0.00  0.00    -0.017 C 
ATOM     10  H   UNL     1     153.191 167.703 190.151  0.00  0.00    +0.032 HD
BRANCH   9  11
ATOM     11  C   UNL     1     151.942 167.507 188.427  0.00  0.00    -0.060 C 
ATOM     12  H   UNL     1     152.297 167.383 187.398  0.00  0.00    +0.023 HD
ATOM     13  H   UNL     1     150.965 167.016 188.502  0.00  0.00    +0.023 HD
ATOM     14  H   UNL     1     151.773 168.573 188.611  0.00  0.00    +0.023 HD
ENDBRANCH   9  11
BRANCH   9  15
ATOM     15  C   UNL     1     154.217 166.360 188.769  0.00  0.00    +0.064 C 
ATOM     16  H   UNL     1     154.476 167.003 187.921  0.00  0.00    +0.060 HD
BRANCH  15  17
ATOM     17  C   UNL     1     154.153 164.907 188.247  0.00  0.00    +0.011 C 
ATOM     18  H   UNL     1     154.986 164.363 188.710  0.00  0.00    +0.033 HD
ATOM     19  H   UNL     1     153.244 164.411 188.607  0.00  0.00    +0.033 HD
BRANCH  17  20
ATOM     20  C   UNL     1     154.263 164.777 186.715  0.00  0.00    +0.108 C 
ATOM     21  H   UNL     1     155.045 164.038 186.491  0.00  0.00    +0.074 HD
BRANCH  20  22
ATOM     22  C   UNL     1     152.931 164.319 186.056  0.00  0.00    -0.009 C 
ATOM     23  H   UNL     1     153.166 163.607 185.253  0.00  0.00    +0.033 HD
BRANCH  22  24
ATOM     24  C   UNL     1     152.130 165.477 185.451  0.00  0.00    -0.059 C 
ATOM     25  H   UNL     1     152.119 165.423 184.357  0.00  0.00    +0.023 HD
ATOM     26  H   UNL     1     152.559 166.443 185.736  0.00  0.00    +0.023 HD
ATOM     27  H   UNL     1     151.095 165.476 185.808  0.00  0.00    +0.023 HD
ENDBRANCH  22  24
BRANCH  22  28
ATOM     28  C   UNL     1     152.036 163.577 187.061  0.00  0.00    -0.059 C 
ATOM     29  H   UNL     1     151.828 162.553 186.742  0.00  0.00    +0.023 HD
ATOM     30  H   UNL     1     152.506 163.534 188.050  0.00  0.00    +0.023 HD
ATOM     31  H   UNL     1     151.072 164.085 187.166  0.00  0.00    +0.023 HD
ENDBRANCH  22  28
ENDBRANCH  20  22
BRANCH  20  32
ATOM     32  O   UNL     1     154.605 166.078 186.186  0.00  0.00    -0.461 OA
BRANCH  32  33
ATOM     33  C   UNL     1     155.750 166.182 185.463  0.00  0.00    +0.307 C 
ATOM     34  O   UNL     1     156.819 165.666 185.766  0.00  0.00    -0.251 OA
BRANCH  33  35
ATOM     35  C   UNL     1     155.587 167.089 184.265  0.00  0.00    +0.046 C 
ATOM     36  H   UNL     1     156.236 166.694 183.471  0.00  0.00    +0.038 HD
ATOM     37  H   UNL     1     154.551 167.003 183.919  0.00  0.00    +0.038 HD
BRANCH  35  38
ATOM     38  C   UNL     1     155.933 168.558 184.501  0.00  0.00    -0.031 C 
ATOM     39  H   UNL     1     155.532 168.848 185.481  0.00  0.00    +0.028 HD
ATOM     40  H   UNL     1     155.409 169.183 183.764  0.00  0.00    +0.028 HD
BRANCH  38  41
ATOM     41  C   UNL     1     157.424 168.900 184.456  0.00  0.00    -0.006 C 
ATOM     42  H   UNL     1     158.036 167.994 184.500  0.00  0.00    +0.042 HD
ATOM     43  H   UNL     1     157.637 169.378 183.494  0.00  0.00    +0.042 HD
BRANCH  41  44
ATOM     44  N   UNL     1     157.819 169.811 185.521  0.00  0.00    -0.330 NA
ATOM     45  H   UNL     1     157.533 169.425 186.422  0.00  0.00    +0.118 HD
ATOM     46  H   UNL     1     157.325 170.698 185.434  0.00  0.00    +0.118 HD
ENDBRANCH  41  44
ENDBRANCH  38  41
ENDBRANCH  35  38
ENDBRANCH  33  35
ENDBRANCH  32  33
ENDBRANCH  20  32
ENDBRANCH  17  20
ENDBRANCH  15  17
BRANCH  15  47
ATOM     47  O   UNL     1     155.273 166.425 189.748  0.00  0.00    -0.379 OA
BRANCH  47  48
ATOM     48  C   UNL     1     156.444 165.723 189.341  0.00  0.00    +0.037 C 
ATOM     49  H   UNL     1     156.222 165.015 188.535  0.00  0.00    +0.052 HD
ATOM     50  H   UNL     1     156.825 165.164 190.200  0.00  0.00    +0.052 HD
ATOM     51  H   UNL     1     157.215 166.431 189.018  0.00  0.00    +0.052 HD
ENDBRANCH  47  48
ENDBRANCH  15  47
ENDBRANCH   9  15
ENDBRANCH   6   9
ENDBRANCH   3   6
ENDBRANCH   1   3
BRANCH   1  52
ATOM     52  C   UNL     1     148.757 166.692 191.172  0.00  0.00    +0.020 C 
ATOM     53  H   UNL     1     147.790 166.286 191.480  0.00  0.00    +0.036 HD
BRANCH  52  54
ATOM     54  C   UNL     1     148.527 167.373 189.808  0.00  0.00    -0.057 C 
ATOM     55  H   UNL     1     147.507 167.217 189.438  0.00  0.00    +0.023 HD
ATOM     56  H   UNL     1     149.218 166.972 189.057  0.00  0.00    +0.023 HD
ATOM     57  H   UNL     1     148.708 168.449 189.868  0.00  0.00    +0.023 HD
ENDBRANCH  52  54
BRANCH  52  58
ATOM     58  C   UNL     1     149.159 167.784 192.221  0.00  0.00    +0.070 C 
ATOM     59  H   UNL     1     149.914 167.310 192.863  0.00  0.00    +0.061 HD
BRANCH  58  60
ATOM     60  C   UNL     1     149.834 169.084 191.656  0.00  0.00    +0.002 C 
ATOM     61  H   UNL     1     149.889 168.931 190.568  0.00  0.00    +0.037 HD
BRANCH  60  62
ATOM     62  C   UNL     1     148.942 170.304 191.812  0.00  0.00    -0.065 C 
ATOM     63  C   UNL     1     149.201 171.549 191.391  0.00  0.00    -0.005 C 
ATOM     64  H   UNL     1     148.019 170.095 192.349  0.00  0.00    +0.059 HD
ATOM     65  H   UNL     1     150.144 171.756 190.887  0.00  0.00    +0.078 HD
BRANCH  63  66
ATOM     66  N   UNL     1     148.380 172.654 191.562  0.00  0.00    -0.281 N 
ATOM     67  C   UNL     1     147.240 172.810 190.771  0.00  0.00    +0.206 C 
ATOM     68  O   UNL     1     146.456 173.752 190.816  0.00  0.00    -0.279 OA
ATOM     69  H   UNL     1     147.095 171.982 190.056  0.00  0.00    +0.126 HD
BRANCH  66  70
ATOM     70  C   UNL     1     148.666 173.709 192.534  0.00  0.00    +0.016 C 
ATOM     71  H   UNL     1     148.323 174.674 192.149  0.00  0.00    +0.047 HD
ATOM     72  H   UNL     1     149.751 173.804 192.655  0.00  0.00    +0.047 HD
BRANCH  70  73
ATOM     73  C   UNL     1     148.057 173.415 193.898  0.00  0.00    -0.049 C 
ATOM     74  H   UNL     1     147.174 172.772 193.813  0.00  0.00    +0.024 HD
ATOM     75  H   UNL     1     148.777 172.906 194.549  0.00  0.00    +0.024 HD
ATOM     76  H   UNL     1     147.754 174.348 194.386  0.00  0.00    +0.024 HD
ENDBRANCH  70  73
ENDBRANCH  66  70
ENDBRANCH  63  66
ENDBRANCH  60  62
BRANCH  60  77
ATOM     77  C   UNL     1     151.301 169.293 192.051  0.00  0.00    -0.057 C 
ATOM     78  H   UNL     1     151.987 169.307 191.202  0.00  0.00    +0.024 HD
ATOM     79  H   UNL     1     151.631 168.480 192.706  0.00  0.00    +0.024 HD
ATOM     80  H   UNL     1     151.434 170.224 192.608  0.00  0.00    +0.024 HD
ENDBRANCH  60  77
ENDBRANCH  58  60
BRANCH  58  81
ATOM     81  O   UNL     1     148.025 168.082 193.048  0.00  0.00    -0.379 OA
BRANCH  81  82
ATOM     82  C   UNL     1     147.520 166.967 193.772  0.00  0.00    +0.037 C 
ATOM     83  H   UNL     1     148.363 166.467 194.259  0.00  0.00    +0.052 HD
ATOM     84  H   UNL     1     146.817 167.292 194.544  0.00  0.00    +0.052 HD
ATOM     85  H   UNL     1     147.048 166.248 193.099  0.00  0.00    +0.052 HD
ENDBRANCH  81  82
ENDBRANCH  58  81
ENDBRANCH  52  58
ENDBRANCH   1  52
BRANCH   1  86
ATOM     86  O   UNL     1     150.597 165.457 192.224  0.00  0.00    -0.459 OA
BRANCH  86  88
ATOM     87  O   UNL     1     149.224 163.854 193.130  0.00  0.00    -0.248 OA
ATOM     88  C   UNL     1     150.217 164.568 193.189  0.00  0.00    +0.337 C 
BRANCH  88  89
ATOM     89  C   UNL     1     151.238 164.578 194.336  0.00  0.00    +0.155 C 
ATOM     90  O   UNL     1     150.735 163.913 195.507  0.00  0.00    -0.365 OA
ATOM     91  C   UNL     1     150.404 164.899 196.494  0.00  0.00    +0.049 C 
ATOM     92  C   UNL     1     150.529 166.251 195.828  0.00  0.00    -0.027 C 
ATOM     93  C   UNL     1     151.585 165.988 194.782  0.00  0.00    -0.014 C 
ATOM     94  H   UNL     1     152.121 164.029 193.990  0.00  0.00    +0.071 HD
ATOM     95  H   UNL     1     149.400 164.712 196.883  0.00  0.00    +0.056 HD
ATOM     96  H   UNL     1     151.123 164.796 197.315  0.00  0.00    +0.056 HD
ATOM     97  H   UNL     1     149.582 166.522 195.345  0.00  0.00    +0.029 HD
ATOM     98  H   UNL     1     150.790 167.047 196.529  0.00  0.00    +0.029 HD
ATOM     99  H   UNL     1     151.590 166.731 193.982  0.00  0.00    +0.030 HD
ATOM    100  H   UNL     1     152.573 165.994 195.259  0.00  0.00    +0.030 HD
ENDBRANCH  88  89
ENDBRANCH  86  88
ENDBRANCH   1  86
TORSDOF 32
ENDMDL
MODEL 9
REMARK VINA RESULT:      -5.1      3.555      7.567
REMARK  Name = 2a_conf3
REMARK  32 active torsions:
REMARK  status: ('A' for Active; 'I' for Inactive)
REMARK    1  A    between atoms: C_2  and  C_3
REMARK    2  A    between atoms: C_2  and  O_8
REMARK    3  A    between atoms: O_8  and  C_9
REMARK    4  A    between atoms: C_9  and  C_10
REMARK    5  A    between atoms: C_9  and  C_29
REMARK    6  A    between atoms: C_10  and  C_11
REMARK    7  A    between atoms: C_11  and  C_12
REMARK    8  A    between atoms: C_12  and  C_13
REMARK    9  A    between atoms: C_12  and  C_14
REMARK   10  A    between atoms: C_14  and  O_15
REMARK   11  A    between atoms: C_14  and  C_17
REMARK   12  A    between atoms: O_15  and  C_16
REMARK   13  A    between atoms: C_17  and  C_18
REMARK   14  A    between atoms: C_18  and  O_19
REMARK   15  A    between atoms: C_18  and  C_26
REMARK   16  A    between atoms: O_19  and  C_20
REMARK   17  A    between atoms: C_20  and  C_21
REMARK   18  A    between atoms: C_21  and  C_22
REMARK   19  A    between atoms: C_22  and  C_23
REMARK   20  A    between atoms: C_23  and  N_24
REMARK   21  A    between atoms: C_26  and  C_27
REMARK   22  A    between atoms: C_26  and  C_28
REMARK   23  A    between atoms: C_29  and  C_30
REMARK   24  A    between atoms: C_29  and  C_31
REMARK   25  A    between atoms: C_31  and  O_32
REMARK   26  A    between atoms: C_31  and  C_34
REMARK   27  A    between atoms: O_32  and  C_33
REMARK   28  A    between atoms: C_34  and  C_35
REMARK   29  A    between atoms: C_34  and  C_36
REMARK   30  A    between atoms: C_37  and  N_38
REMARK   31  A    between atoms: N_38  and  C_39
REMARK   32  A    between atoms: C_39  and  C_40
REMARK                            x       y       z     vdW  Elec       q    Type
REMARK                         _______ _______ _______ _____ _____    ______ ____
ROOT
ATOM      1  C   UNL     1     146.030 170.173 190.055  0.00  0.00    +0.108 C 
ATOM      2  H   UNL     1     145.621 170.018 191.052  0.00  0.00    +0.074 HD
ENDROOT
BRANCH   1   3
ATOM      3  C   UNL     1     146.231 168.773 189.446  0.00  0.00    -0.015 C 
ATOM      4  H   UNL     1     147.153 168.804 188.857  0.00  0.00    +0.030 HD
ATOM      5  H   UNL     1     145.447 168.551 188.710  0.00  0.00    +0.030 HD
BRANCH   3   6
ATOM      6  C   UNL     1     146.286 167.660 190.498  0.00  0.00    -0.045 C 
ATOM      7  H   UNL     1     145.673 166.824 190.135  0.00  0.00    +0.027 HD
ATOM      8  H   UNL     1     145.827 168.001 191.434  0.00  0.00    +0.027 HD
BRANCH   6   9
ATOM      9  C   UNL     1     147.723 167.151 190.786  0.00  0.00    -0.017 C 
ATOM     10  H   UNL     1     148.122 167.758 191.603  0.00  0.00    +0.032 HD
BRANCH   9  11
ATOM     11  C   UNL     1     148.589 167.415 189.545  0.00  0.00    -0.060 C 
ATOM     12  H   UNL     1     149.595 167.752 189.816  0.00  0.00    +0.023 HD
ATOM     13  H   UNL     1     148.695 166.502 188.947  0.00  0.00    +0.023 HD
ATOM     14  H   UNL     1     148.133 168.167 188.893  0.00  0.00    +0.023 HD
ENDBRANCH   9  11
BRANCH   9  15
ATOM     15  C   UNL     1     147.722 165.651 191.201  0.00  0.00    +0.064 C 
ATOM     16  H   UNL     1     146.699 165.265 191.135  0.00  0.00    +0.060 HD
BRANCH  15  17
ATOM     17  C   UNL     1     148.247 165.329 192.618  0.00  0.00    +0.011 C 
ATOM     18  H   UNL     1     147.427 164.842 193.161  0.00  0.00    +0.033 HD
ATOM     19  H   UNL     1     149.048 164.581 192.569  0.00  0.00    +0.033 HD
BRANCH  17  20
ATOM     20  C   UNL     1     148.714 166.561 193.418  0.00  0.00    +0.108 C 
ATOM     21  H   UNL     1     148.372 167.461 192.888  0.00  0.00    +0.074 HD
BRANCH  20  22
ATOM     22  C   UNL     1     148.150 166.583 194.867  0.00  0.00    -0.009 C 
ATOM     23  H   UNL     1     147.820 167.605 195.098  0.00  0.00    +0.033 HD
BRANCH  22  24
ATOM     24  C   UNL     1     149.179 166.161 195.921  0.00  0.00    -0.059 C 
ATOM     25  H   UNL     1     148.903 166.529 196.915  0.00  0.00    +0.023 HD
ATOM     26  H   UNL     1     150.172 166.556 195.680  0.00  0.00    +0.023 HD
ATOM     27  H   UNL     1     149.279 165.072 195.969  0.00  0.00    +0.023 HD
ENDBRANCH  22  24
BRANCH  22  28
ATOM     28  C   UNL     1     146.915 165.677 195.000  0.00  0.00    -0.059 C 
ATOM     29  H   UNL     1     147.183 164.671 195.336  0.00  0.00    +0.023 HD
ATOM     30  H   UNL     1     146.196 166.092 195.715  0.00  0.00    +0.023 HD
ATOM     31  H   UNL     1     146.410 165.571 194.034  0.00  0.00    +0.023 HD
ENDBRANCH  22  28
ENDBRANCH  20  22
BRANCH  20  32
ATOM     32  O   UNL     1     150.157 166.515 193.496  0.00  0.00    -0.461 OA
BRANCH  32  33
ATOM     33  C   UNL     1     150.855 167.426 192.770  0.00  0.00    +0.307 C 
ATOM     34  O   UNL     1     150.477 168.567 192.529  0.00  0.00    -0.251 OA
BRANCH  33  35
ATOM     35  C   UNL     1     152.133 166.849 192.208  0.00  0.00    +0.046 C 
ATOM     36  H   UNL     1     152.837 167.684 192.086  0.00  0.00    +0.038 HD
ATOM     37  H   UNL     1     152.553 166.171 192.960  0.00  0.00    +0.038 HD
BRANCH  35  38
ATOM     38  C   UNL     1     151.995 166.119 190.874  0.00  0.00    -0.031 C 
ATOM     39  H   UNL     1     150.940 165.842 190.746  0.00  0.00    +0.028 HD
ATOM     40  H   UNL     1     152.553 165.174 190.911  0.00  0.00    +0.028 HD
BRANCH  38  41
ATOM     41  C   UNL     1     152.453 166.905 189.642  0.00  0.00    -0.006 C 
ATOM     42  H   UNL     1     153.536 166.834 189.512  0.00  0.00    +0.042 HD
ATOM     43  H   UNL     1     151.997 166.449 188.756  0.00  0.00    +0.042 HD
BRANCH  41  44
ATOM     44  N   UNL     1     152.055 168.306 189.696  0.00  0.00    -0.330 NA
ATOM     45  H   UNL     1     152.519 168.819 188.946  0.00  0.00    +0.118 HD
ATOM     46  H   UNL     1     152.377 168.735 190.562  0.00  0.00    +0.118 HD
ENDBRANCH  41  44
ENDBRANCH  38  41
ENDBRANCH  35  38
ENDBRANCH  33  35
ENDBRANCH  32  33
ENDBRANCH  20  32
ENDBRANCH  17  20
ENDBRANCH  15  17
BRANCH  15  47
ATOM     47  O   UNL     1     148.553 164.944 190.258  0.00  0.00    -0.379 OA
BRANCH  47  48
ATOM     48  C   UNL     1     149.061 163.720 190.782  0.00  0.00    +0.037 C 
ATOM     49  H   UNL     1     150.153 163.748 190.864  0.00  0.00    +0.052 HD
ATOM     50  H   UNL     1     148.783 162.913 190.097  0.00  0.00    +0.052 HD
ATOM     51  H   UNL     1     148.614 163.515 191.760  0.00  0.00    +0.052 HD
ENDBRANCH  47  48
ENDBRANCH  15  47
ENDBRANCH   9  15
ENDBRANCH   6   9
ENDBRANCH   3   6
ENDBRANCH   1   3
BRANCH   1  52
ATOM     52  C   UNL     1     145.063 171.094 189.268  0.00  0.00    +0.020 C 
ATOM     53  H   UNL     1     144.489 170.483 188.565  0.00  0.00    +0.036 HD
BRANCH  52  54
ATOM     54  C   UNL     1     145.845 172.115 188.418  0.00  0.00    -0.057 C 
ATOM     55  H   UNL     1     146.312 171.648 187.543  0.00  0.00    +0.023 HD
ATOM     56  H   UNL     1     146.640 172.581 189.012  0.00  0.00    +0.023 HD
ATOM     57  H   UNL     1     145.193 172.920 188.068  0.00  0.00    +0.023 HD
ENDBRANCH  52  54
BRANCH  52  58
ATOM     58  C   UNL     1     144.033 171.865 190.163  0.00  0.00    +0.070 C 
ATOM     59  H   UNL     1     143.901 172.844 189.681  0.00  0.00    +0.061 HD
BRANCH  58  60
ATOM     60  C   UNL     1     142.595 171.244 190.268  0.00  0.00    +0.002 C 
ATOM     61  H   UNL     1     142.099 171.502 189.320  0.00  0.00    +0.037 HD
BRANCH  60  62
ATOM     62  C   UNL     1     142.628 169.725 190.267  0.00  0.00    -0.065 C 
ATOM     63  C   UNL     1     142.496 168.918 191.328  0.00  0.00    -0.005 C 
ATOM     64  H   UNL     1     142.800 169.301 189.281  0.00  0.00    +0.059 HD
ATOM     65  H   UNL     1     142.360 169.353 192.316  0.00  0.00    +0.078 HD
BRANCH  63  66
ATOM     66  N   UNL     1     142.549 167.531 191.308  0.00  0.00    -0.281 N 
ATOM     67  C   UNL     1     142.651 166.851 190.093  0.00  0.00    +0.206 C 
ATOM     68  O   UNL     1     142.683 165.634 189.950  0.00  0.00    -0.279 OA
ATOM     69  H   UNL     1     142.694 167.528 189.222  0.00  0.00    +0.126 HD
BRANCH  66  70
ATOM     70  C   UNL     1     142.474 166.719 192.522  0.00  0.00    +0.016 C 
ATOM     71  H   UNL     1     142.007 165.756 192.298  0.00  0.00    +0.047 HD
ATOM     72  H   UNL     1     141.813 167.211 193.245  0.00  0.00    +0.047 HD
BRANCH  70  73
ATOM     73  C   UNL     1     143.837 166.529 193.173  0.00  0.00    -0.049 C 
ATOM     74  H   UNL     1     143.966 167.194 194.035  0.00  0.00    +0.024 HD
ATOM     75  H   UNL     1     143.965 165.501 193.526  0.00  0.00    +0.024 HD
ATOM     76  H   UNL     1     144.633 166.747 192.453  0.00  0.00    +0.024 HD
ENDBRANCH  70  73
ENDBRANCH  66  70
ENDBRANCH  63  66
ENDBRANCH  60  62
BRANCH  60  77
ATOM     77  C   UNL     1     141.677 171.877 191.322  0.00  0.00    -0.057 C 
ATOM     78  H   UNL     1     142.206 172.489 192.055  0.00  0.00    +0.024 HD
ATOM     79  H   UNL     1     141.160 171.093 191.885  0.00  0.00    +0.024 HD
ATOM     80  H   UNL     1     140.906 172.496 190.858  0.00  0.00    +0.024 HD
ENDBRANCH  60  77
ENDBRANCH  58  60
BRANCH  58  81
ATOM     81  O   UNL     1     144.614 172.101 191.453  0.00  0.00    -0.379 OA
BRANCH  81  82
ATOM     82  C   UNL     1     144.823 173.474 191.758  0.00  0.00    +0.037 C 
ATOM     83  H   UNL     1     145.868 173.602 192.056  0.00  0.00    +0.052 HD
ATOM     84  H   UNL     1     144.634 174.101 190.881  0.00  0.00    +0.052 HD
ATOM     85  H   UNL     1     144.195 173.786 192.596  0.00  0.00    +0.052 HD
ENDBRANCH  81  82
ENDBRANCH  58  81
ENDBRANCH  52  58
ENDBRANCH   1  52
BRANCH   1  86
ATOM     86  O   UNL     1     147.336 170.781 190.136  0.00  0.00    -0.459 OA
BRANCH  86  88
ATOM     87  O   UNL     1     147.534 170.242 192.360  0.00  0.00    -0.248 OA
ATOM     88  C   UNL     1     147.887 170.888 191.381  0.00  0.00    +0.337 C 
BRANCH  88  89
ATOM     89  C   UNL     1     149.031 171.912 191.357  0.00  0.00    +0.155 C 
ATOM     90  O   UNL     1     149.830 171.851 192.551  0.00  0.00    -0.365 OA
ATOM     91  C   UNL     1     149.530 172.990 193.368  0.00  0.00    +0.049 C 
ATOM     92  C   UNL     1     148.347 173.688 192.737  0.00  0.00    -0.027 C 
ATOM     93  C   UNL     1     148.519 173.340 191.278  0.00  0.00    -0.014 C 
ATOM     94  H   UNL     1     149.675 171.660 190.508  0.00  0.00    +0.071 HD
ATOM     95  H   UNL     1     149.331 172.668 194.395  0.00  0.00    +0.056 HD
ATOM     96  H   UNL     1     150.415 173.636 193.369  0.00  0.00    +0.056 HD
ATOM     97  H   UNL     1     147.410 173.261 193.116  0.00  0.00    +0.029 HD
ATOM     98  H   UNL     1     148.332 174.763 192.936  0.00  0.00    +0.029 HD
ATOM     99  H   UNL     1     147.604 173.465 190.697  0.00  0.00    +0.030 HD
ATOM    100  H   UNL     1     149.291 173.987 190.843  0.00  0.00    +0.030 HD
ENDBRANCH  88  89
ENDBRANCH  86  88
ENDBRANCH   1  86
TORSDOF 32
ENDMDL
MODEL 10
REMARK VINA RESULT:      -5.1      1.541      2.531
REMARK  Name = 2a_conf3
REMARK  32 active torsions:
REMARK  status: ('A' for Active; 'I' for Inactive)
REMARK    1  A    between atoms: C_2  and  C_3
REMARK    2  A    between atoms: C_2  and  O_8
REMARK    3  A    between atoms: O_8  and  C_9
REMARK    4  A    between atoms: C_9  and  C_10
REMARK    5  A    between atoms: C_9  and  C_29
REMARK    6  A    between atoms: C_10  and  C_11
REMARK    7  A    between atoms: C_11  and  C_12
REMARK    8  A    between atoms: C_12  and  C_13
REMARK    9  A    between atoms: C_12  and  C_14
REMARK   10  A    between atoms: C_14  and  O_15
REMARK   11  A    between atoms: C_14  and  C_17
REMARK   12  A    between atoms: O_15  and  C_16
REMARK   13  A    between atoms: C_17  and  C_18
REMARK   14  A    between atoms: C_18  and  O_19
REMARK   15  A    between atoms: C_18  and  C_26
REMARK   16  A    between atoms: O_19  and  C_20
REMARK   17  A    between atoms: C_20  and  C_21
REMARK   18  A    between atoms: C_21  and  C_22
REMARK   19  A    between atoms: C_22  and  C_23
REMARK   20  A    between atoms: C_23  and  N_24
REMARK   21  A    between atoms: C_26  and  C_27
REMARK   22  A    between atoms: C_26  and  C_28
REMARK   23  A    between atoms: C_29  and  C_30
REMARK   24  A    between atoms: C_29  and  C_31
REMARK   25  A    between atoms: C_31  and  O_32
REMARK   26  A    between atoms: C_31  and  C_34
REMARK   27  A    between atoms: O_32  and  C_33
REMARK   28  A    between atoms: C_34  and  C_35
REMARK   29  A    between atoms: C_34  and  C_36
REMARK   30  A    between atoms: C_37  and  N_38
REMARK   31  A    between atoms: N_38  and  C_39
REMARK   32  A    between atoms: C_39  and  C_40
REMARK                            x       y       z     vdW  Elec       q    Type
REMARK                         _______ _______ _______ _____ _____    ______ ____
ROOT
ATOM      1  C   UNL     1     150.003 165.673 191.130  0.00  0.00    +0.108 C 
ATOM      2  H   UNL     1     149.490 164.737 190.917  0.00  0.00    +0.074 HD
ENDROOT
BRANCH   1   3
ATOM      3  C   UNL     1     151.096 165.824 190.055  0.00  0.00    -0.015 C 
ATOM      4  H   UNL     1     150.712 166.512 189.294  0.00  0.00    +0.030 HD
ATOM      5  H   UNL     1     151.245 164.880 189.515  0.00  0.00    +0.030 HD
BRANCH   3   6
ATOM      6  C   UNL     1     152.433 166.317 190.619  0.00  0.00    -0.045 C 
ATOM      7  H   UNL     1     152.834 165.528 191.270  0.00  0.00    +0.027 HD
ATOM      8  H   UNL     1     152.274 167.196 191.255  0.00  0.00    +0.027 HD
BRANCH   6   9
ATOM      9  C   UNL     1     153.479 166.657 189.526  0.00  0.00    -0.017 C 
ATOM     10  H   UNL     1     154.002 167.560 189.850  0.00  0.00    +0.032 HD
BRANCH   9  11
ATOM     11  C   UNL     1     152.732 166.993 188.227  0.00  0.00    -0.060 C 
ATOM     12  H   UNL     1     152.300 168.000 188.256  0.00  0.00    +0.023 HD
ATOM     13  H   UNL     1     153.411 166.948 187.368  0.00  0.00    +0.023 HD
ATOM     14  H   UNL     1     151.928 166.275 188.032  0.00  0.00    +0.023 HD
ENDBRANCH   9  11
BRANCH   9  15
ATOM     15  C   UNL     1     154.503 165.498 189.339  0.00  0.00    +0.064 C 
ATOM     16  H   UNL     1     154.561 164.924 190.270  0.00  0.00    +0.060 HD
BRANCH  15  17
ATOM     17  C   UNL     1     155.943 165.907 188.956  0.00  0.00    +0.011 C 
ATOM     18  H   UNL     1     155.941 166.996 188.816  0.00  0.00    +0.033 HD
ATOM     19  H   UNL     1     156.629 165.722 189.791  0.00  0.00    +0.033 HD
BRANCH  17  20
ATOM     20  C   UNL     1     156.472 165.240 187.671  0.00  0.00    +0.108 C 
ATOM     21  H   UNL     1     155.690 164.570 187.287  0.00  0.00    +0.074 HD
BRANCH  20  22
ATOM     22  C   UNL     1     156.839 166.273 186.568  0.00  0.00    -0.009 C 
ATOM     23  H   UNL     1     157.325 167.135 187.045  0.00  0.00    +0.033 HD
BRANCH  22  24
ATOM     24  C   UNL     1     155.622 166.779 185.787  0.00  0.00    -0.059 C 
ATOM     25  H   UNL     1     155.061 165.948 185.345  0.00  0.00    +0.023 HD
ATOM     26  H   UNL     1     155.926 167.450 184.976  0.00  0.00    +0.023 HD
ATOM     27  H   UNL     1     154.945 167.351 186.429  0.00  0.00    +0.023 HD
ENDBRANCH  22  24
BRANCH  22  28
ATOM     28  C   UNL     1     157.852 165.688 185.571  0.00  0.00    -0.059 C 
ATOM     29  H   UNL     1     158.883 165.831 185.907  0.00  0.00    +0.023 HD
ATOM     30  H   UNL     1     157.689 164.614 185.427  0.00  0.00    +0.023 HD
ATOM     31  H   UNL     1     157.760 166.178 184.596  0.00  0.00    +0.023 HD
ENDBRANCH  22  28
ENDBRANCH  20  22
BRANCH  20  32
ATOM     32  O   UNL     1     157.667 164.504 188.017  0.00  0.00    -0.461 OA
BRANCH  32  33
ATOM     33  C   UNL     1     157.511 163.260 188.539  0.00  0.00    +0.307 C 
ATOM     34  O   UNL     1     156.951 162.329 187.973  0.00  0.00    -0.251 OA
BRANCH  33  35
ATOM     35  C   UNL     1     158.035 163.165 189.953  0.00  0.00    +0.046 C 
ATOM     36  H   UNL     1     159.124 163.041 189.885  0.00  0.00    +0.038 HD
ATOM     37  H   UNL     1     157.841 164.124 190.447  0.00  0.00    +0.038 HD
BRANCH  35  38
ATOM     38  C   UNL     1     157.458 162.026 190.793  0.00  0.00    -0.031 C 
ATOM     39  H   UNL     1     156.736 161.479 190.173  0.00  0.00    +0.028 HD
ATOM     40  H   UNL     1     156.883 162.441 191.632  0.00  0.00    +0.028 HD
BRANCH  38  41
ATOM     41  C   UNL     1     158.483 161.034 191.349  0.00  0.00    -0.006 C 
ATOM     42  H   UNL     1     158.676 160.228 190.636  0.00  0.00    +0.042 HD
ATOM     43  H   UNL     1     159.431 161.565 191.491  0.00  0.00    +0.042 HD
BRANCH  41  44
ATOM     44  N   UNL     1     158.074 160.471 192.629  0.00  0.00    -0.330 NA
ATOM     45  H   UNL     1     157.946 161.224 193.306  0.00  0.00    +0.118 HD
ATOM     46  H   UNL     1     158.813 159.881 193.012  0.00  0.00    +0.118 HD
ENDBRANCH  41  44
ENDBRANCH  38  41
ENDBRANCH  35  38
ENDBRANCH  33  35
ENDBRANCH  32  33
ENDBRANCH  20  32
ENDBRANCH  17  20
ENDBRANCH  15  17
BRANCH  15  47
ATOM     47  O   UNL     1     153.999 164.646 188.291  0.00  0.00    -0.379 OA
BRANCH  47  48
ATOM     48  C   UNL     1     153.610 163.360 188.767  0.00  0.00    +0.037 C 
ATOM     49  H   UNL     1     153.718 163.291 189.855  0.00  0.00    +0.052 HD
ATOM     50  H   UNL     1     154.260 162.613 188.304  0.00  0.00    +0.052 HD
ATOM     51  H   UNL     1     152.575 163.148 188.478  0.00  0.00    +0.052 HD
ENDBRANCH  47  48
ENDBRANCH  15  47
ENDBRANCH   9  15
ENDBRANCH   6   9
ENDBRANCH   3   6
ENDBRANCH   1   3
BRANCH   1  52
ATOM     52  C   UNL     1     148.952 166.812 191.155  0.00  0.00    +0.020 C 
ATOM     53  H   UNL     1     147.972 166.382 191.378  0.00  0.00    +0.036 HD
BRANCH  52  54
ATOM     54  C   UNL     1     148.829 167.479 189.771  0.00  0.00    -0.057 C 
ATOM     55  H   UNL     1     149.360 168.436 189.727  0.00  0.00    +0.023 HD
ATOM     56  H   UNL     1     147.777 167.669 189.528  0.00  0.00    +0.023 HD
ATOM     57  H   UNL     1     149.227 166.831 188.984  0.00  0.00    +0.023 HD
ENDBRANCH  52  54
BRANCH  52  58
ATOM     58  C   UNL     1     149.227 167.921 192.228  0.00  0.00    +0.070 C 
ATOM     59  H   UNL     1     149.959 167.483 192.921  0.00  0.00    +0.061 HD
BRANCH  58  60
ATOM     60  C   UNL     1     149.875 169.253 191.708  0.00  0.00    +0.002 C 
ATOM     61  H   UNL     1     149.980 169.118 190.621  0.00  0.00    +0.037 HD
BRANCH  60  62
ATOM     62  C   UNL     1     148.932 170.437 191.845  0.00  0.00    -0.065 C 
ATOM     63  C   UNL     1     149.145 171.688 191.415  0.00  0.00    -0.005 C 
ATOM     64  H   UNL     1     148.013 170.195 192.373  0.00  0.00    +0.059 HD
ATOM     65  H   UNL     1     150.084 171.929 190.920  0.00  0.00    +0.078 HD
BRANCH  63  66
ATOM     66  N   UNL     1     148.278 172.760 191.567  0.00  0.00    -0.281 N 
ATOM     67  C   UNL     1     147.138 172.859 190.768  0.00  0.00    +0.206 C 
ATOM     68  O   UNL     1     146.316 173.768 190.797  0.00  0.00    -0.279 OA
ATOM     69  H   UNL     1     147.032 172.018 190.062  0.00  0.00    +0.126 HD
BRANCH  66  70
ATOM     70  C   UNL     1     148.513 173.837 192.529  0.00  0.00    +0.016 C 
ATOM     71  H   UNL     1     148.115 174.778 192.139  0.00  0.00    +0.047 HD
ATOM     72  H   UNL     1     149.593 173.992 192.640  0.00  0.00    +0.047 HD
BRANCH  70  73
ATOM     73  C   UNL     1     147.933 173.522 193.900  0.00  0.00    -0.049 C 
ATOM     74  H   UNL     1     148.722 173.306 194.630  0.00  0.00    +0.024 HD
ATOM     75  H   UNL     1     147.348 174.364 194.284  0.00  0.00    +0.024 HD
ATOM     76  H   UNL     1     147.276 172.647 193.841  0.00  0.00    +0.024 HD
ENDBRANCH  70  73
ENDBRANCH  66  70
ENDBRANCH  63  66
ENDBRANCH  60  62
BRANCH  60  77
ATOM     77  C   UNL     1     151.316 169.510 192.166  0.00  0.00    -0.057 C 
ATOM     78  H   UNL     1     152.066 168.979 191.577  0.00  0.00    +0.024 HD
ATOM     79  H   UNL     1     151.443 169.182 193.202  0.00  0.00    +0.024 HD
ATOM     80  H   UNL     1     151.558 170.575 192.138  0.00  0.00    +0.024 HD
ENDBRANCH  60  77
ENDBRANCH  58  60
BRANCH  58  81
ATOM     81  O   UNL     1     148.026 168.162 192.975  0.00  0.00    -0.379 OA
BRANCH  81  82
ATOM     82  C   UNL     1     147.647 167.093 193.833  0.00  0.00    +0.037 C 
ATOM     83  H   UNL     1     148.489 166.399 193.907  0.00  0.00    +0.052 HD
ATOM     84  H   UNL     1     147.413 167.463 194.835  0.00  0.00    +0.052 HD
ATOM     85  H   UNL     1     146.797 166.545 193.418  0.00  0.00    +0.052 HD
ENDBRANCH  81  82
ENDBRANCH  58  81
ENDBRANCH  52  58
ENDBRANCH   1  52
BRANCH   1  86
ATOM     86  O   UNL     1     150.681 165.597 192.401  0.00  0.00    -0.459 OA
BRANCH  86  88
ATOM     87  O   UNL     1     149.320 163.870 193.065  0.00  0.00    -0.248 OA
ATOM     88  C   UNL     1     150.280 164.608 193.253  0.00  0.00    +0.337 C 
BRANCH  88  89
ATOM     89  C   UNL     1     151.231 164.540 194.456  0.00  0.00    +0.155 C 
ATOM     90  O   UNL     1     150.611 163.918 195.595  0.00  0.00    -0.365 OA
ATOM     91  C   UNL     1     150.302 164.929 196.563  0.00  0.00    +0.049 C 
ATOM     92  C   UNL     1     150.570 166.265 195.909  0.00  0.00    -0.027 C 
ATOM     93  C   UNL     1     151.660 165.920 194.925  0.00  0.00    -0.014 C 
ATOM     94  H   UNL     1     152.087 163.923 194.161  0.00  0.00    +0.071 HD
ATOM     95  H   UNL     1     149.265 164.821 196.894  0.00  0.00    +0.056 HD
ATOM     96  H   UNL     1     150.962 164.772 197.424  0.00  0.00    +0.056 HD
ATOM     97  H   UNL     1     149.676 166.609 195.374  0.00  0.00    +0.029 HD
ATOM     98  H   UNL     1     150.851 167.041 196.626  0.00  0.00    +0.029 HD
ATOM     99  H   UNL     1     151.769 166.658 194.129  0.00  0.00    +0.030 HD
ATOM    100  H   UNL     1     152.616 165.849 195.458  0.00  0.00    +0.030 HD
ENDBRANCH  88  89
ENDBRANCH  86  88
ENDBRANCH   1  86
TORSDOF 32
ENDMDL
