MODEL 1
REMARK VINA RESULT:      -5.3      0.000      0.000
REMARK  Name = 2a_conf2
REMARK  32 active torsions:
REMARK  status: ('A' for Active; 'I' for Inactive)
REMARK    1  A    between atoms: C_2  and  C_3
REMARK    2  A    between atoms: C_2  and  O_8
REMARK    3  A    between atoms: O_8  and  C_9
REMARK    4  A    between atoms: C_9  and  C_10
REMARK    5  A    between atoms: C_9  and  C_29
REMARK    6  A    between atoms: C_10  and  C_11
REMARK    7  A    between atoms: C_11  and  C_12
REMARK    8  A    between atoms: C_12  and  C_13
REMARK    9  A    between atoms: C_12  and  C_14
REMARK   10  A    between atoms: C_14  and  O_15
REMARK   11  A    between atoms: C_14  and  C_17
REMARK   12  A    between atoms: O_15  and  C_16
REMARK   13  A    between atoms: C_17  and  C_18
REMARK   14  A    between atoms: C_18  and  O_19
REMARK   15  A    between atoms: C_18  and  C_26
REMARK   16  A    between atoms: O_19  and  C_20
REMARK   17  A    between atoms: C_20  and  C_21
REMARK   18  A    between atoms: C_21  and  C_22
REMARK   19  A    between atoms: C_22  and  C_23
REMARK   20  A    between atoms: C_23  and  N_24
REMARK   21  A    between atoms: C_26  and  C_27
REMARK   22  A    between atoms: C_26  and  C_28
REMARK   23  A    between atoms: C_29  and  C_30
REMARK   24  A    between atoms: C_29  and  C_31
REMARK   25  A    between atoms: C_31  and  O_32
REMARK   26  A    between atoms: C_31  and  C_34
REMARK   27  A    between atoms: O_32  and  C_33
REMARK   28  A    between atoms: C_34  and  C_35
REMARK   29  A    between atoms: C_34  and  C_36
REMARK   30  A    between atoms: C_37  and  N_38
REMARK   31  A    between atoms: N_38  and  C_39
REMARK   32  A    between atoms: C_39  and  C_40
REMARK                            x       y       z     vdW  Elec       q    Type
REMARK                         _______ _______ _______ _____ _____    ______ ____
ROOT
ATOM      1  C   UNL     1     149.223 165.685 190.982  0.00  0.00    +0.108 C 
ATOM      2  H   UNL     1     148.593 164.790 190.934  0.00  0.00    +0.074 HD
ENDROOT
BRANCH   1   3
ATOM      3  C   UNL     1     150.057 165.746 189.687  0.00  0.00    -0.015 C 
ATOM      4  H   UNL     1     149.533 166.363 188.950  0.00  0.00    +0.030 HD
ATOM      5  H   UNL     1     150.176 164.737 189.276  0.00  0.00    +0.030 HD
BRANCH   3   6
ATOM      6  C   UNL     1     151.446 166.353 189.933  0.00  0.00    -0.045 C 
ATOM      7  H   UNL     1     151.410 167.032 190.793  0.00  0.00    +0.027 HD
ATOM      8  H   UNL     1     152.125 165.539 190.223  0.00  0.00    +0.027 HD
BRANCH   6   9
ATOM      9  C   UNL     1     152.057 167.076 188.712  0.00  0.00    -0.017 C 
ATOM     10  H   UNL     1     152.218 168.119 189.015  0.00  0.00    +0.032 HD
BRANCH   9  11
ATOM     11  C   UNL     1     151.022 167.102 187.579  0.00  0.00    -0.060 C 
ATOM     12  H   UNL     1     150.623 168.114 187.445  0.00  0.00    +0.023 HD
ATOM     13  H   UNL     1     150.177 166.437 187.786  0.00  0.00    +0.023 HD
ATOM     14  H   UNL     1     151.474 166.798 186.629  0.00  0.00    +0.023 HD
ENDBRANCH   9  11
BRANCH   9  15
ATOM     15  C   UNL     1     153.413 166.509 188.201  0.00  0.00    +0.064 C 
ATOM     16  H   UNL     1     153.201 165.735 187.452  0.00  0.00    +0.060 HD
BRANCH  15  17
ATOM     17  C   UNL     1     154.274 165.890 189.318  0.00  0.00    +0.011 C 
ATOM     18  H   UNL     1     155.117 166.557 189.527  0.00  0.00    +0.033 HD
ATOM     19  H   UNL     1     153.677 165.799 190.232  0.00  0.00    +0.033 HD
BRANCH  17  20
ATOM     20  C   UNL     1     154.831 164.499 188.952  0.00  0.00    +0.108 C 
ATOM     21  H   UNL     1     154.604 164.291 187.899  0.00  0.00    +0.074 HD
BRANCH  20  22
ATOM     22  C   UNL     1     156.366 164.409 189.174  0.00  0.00    -0.009 C 
ATOM     23  H   UNL     1     156.653 165.164 189.918  0.00  0.00    +0.033 HD
BRANCH  22  24
ATOM     24  C   UNL     1     156.778 163.047 189.750  0.00  0.00    -0.059 C 
ATOM     25  H   UNL     1     157.763 162.743 189.379  0.00  0.00    +0.023 HD
ATOM     26  H   UNL     1     156.825 163.085 190.843  0.00  0.00    +0.023 HD
ATOM     27  H   UNL     1     156.056 162.265 189.490  0.00  0.00    +0.023 HD
ENDBRANCH  22  24
BRANCH  22  28
ATOM     28  C   UNL     1     157.160 164.668 187.890  0.00  0.00    -0.059 C 
ATOM     29  H   UNL     1     157.862 163.850 187.696  0.00  0.00    +0.023 HD
ATOM     30  H   UNL     1     157.753 165.584 187.963  0.00  0.00    +0.023 HD
ATOM     31  H   UNL     1     156.491 164.755 187.025  0.00  0.00    +0.023 HD
ENDBRANCH  22  28
ENDBRANCH  20  22
BRANCH  20  32
ATOM     32  O   UNL     1     154.187 163.541 189.826  0.00  0.00    -0.461 OA
BRANCH  32  33
ATOM     33  C   UNL     1     152.963 163.079 189.451  0.00  0.00    +0.307 C 
ATOM     34  O   UNL     1     152.530 163.035 188.309  0.00  0.00    -0.251 OA
BRANCH  33  35
ATOM     35  C   UNL     1     152.179 162.640 190.661  0.00  0.00    +0.046 C 
ATOM     36  H   UNL     1     152.136 163.473 191.374  0.00  0.00    +0.038 HD
ATOM     37  H   UNL     1     152.732 161.839 191.164  0.00  0.00    +0.038 HD
BRANCH  35  38
ATOM     38  C   UNL     1     150.767 162.202 190.286  0.00  0.00    -0.031 C 
ATOM     39  H   UNL     1     150.484 162.641 189.321  0.00  0.00    +0.028 HD
ATOM     40  H   UNL     1     150.071 162.599 191.037  0.00  0.00    +0.028 HD
BRANCH  38  41
ATOM     41  C   UNL     1     150.624 160.680 190.221  0.00  0.00    -0.006 C 
ATOM     42  H   UNL     1     151.609 160.206 190.281  0.00  0.00    +0.042 HD
ATOM     43  H   UNL     1     150.159 160.364 189.283  0.00  0.00    +0.042 HD
BRANCH  41  44
ATOM     44  N   UNL     1     149.805 160.214 191.337  0.00  0.00    -0.330 NA
ATOM     45  H   UNL     1     150.398 159.980 192.133  0.00  0.00    +0.118 HD
ATOM     46  H   UNL     1     149.201 160.975 191.649  0.00  0.00    +0.118 HD
ENDBRANCH  41  44
ENDBRANCH  38  41
ENDBRANCH  35  38
ENDBRANCH  33  35
ENDBRANCH  32  33
ENDBRANCH  20  32
ENDBRANCH  17  20
ENDBRANCH  15  17
BRANCH  15  47
ATOM     47  O   UNL     1     154.196 167.542 187.586  0.00  0.00    -0.379 OA
BRANCH  47  48
ATOM     48  C   UNL     1     154.685 167.193 186.299  0.00  0.00    +0.037 C 
ATOM     49  H   UNL     1     155.732 167.494 186.197  0.00  0.00    +0.052 HD
ATOM     50  H   UNL     1     154.096 167.734 185.554  0.00  0.00    +0.052 HD
ATOM     51  H   UNL     1     154.583 166.123 186.108  0.00  0.00    +0.052 HD
ENDBRANCH  47  48
ENDBRANCH  15  47
ENDBRANCH   9  15
ENDBRANCH   6   9
ENDBRANCH   3   6
ENDBRANCH   1   3
BRANCH   1  52
ATOM     52  C   UNL     1     148.311 166.942 191.167  0.00  0.00    +0.020 C 
ATOM     53  H   UNL     1     147.364 166.587 191.596  0.00  0.00    +0.036 HD
BRANCH  52  54
ATOM     54  C   UNL     1     148.016 167.611 189.820  0.00  0.00    -0.057 C 
ATOM     55  H   UNL     1     147.544 168.589 189.949  0.00  0.00    +0.023 HD
ATOM     56  H   UNL     1     147.351 166.999 189.203  0.00  0.00    +0.023 HD
ATOM     57  H   UNL     1     148.933 167.797 189.258  0.00  0.00    +0.023 HD
ENDBRANCH  52  54
BRANCH  52  58
ATOM     58  C   UNL     1     148.972 167.909 192.200  0.00  0.00    +0.070 C 
ATOM     59  H   UNL     1     149.738 167.346 192.750  0.00  0.00    +0.061 HD
BRANCH  58  60
ATOM     60  C   UNL     1     149.614 169.225 191.664  0.00  0.00    +0.002 C 
ATOM     61  H   UNL     1     149.588 169.168 190.566  0.00  0.00    +0.037 HD
BRANCH  60  62
ATOM     62  C   UNL     1     148.837 170.466 192.056  0.00  0.00    -0.065 C 
ATOM     63  C   UNL     1     148.941 171.625 191.387  0.00  0.00    -0.005 C 
ATOM     64  H   UNL     1     148.179 170.377 192.913  0.00  0.00    +0.059 HD
ATOM     65  H   UNL     1     149.614 171.682 190.530  0.00  0.00    +0.078 HD
BRANCH  63  66
ATOM     66  N   UNL     1     148.262 172.804 191.663  0.00  0.00    -0.281 N 
ATOM     67  C   UNL     1     147.146 173.143 190.894  0.00  0.00    +0.206 C 
ATOM     68  O   UNL     1     146.671 172.498 189.964  0.00  0.00    -0.279 OA
ATOM     69  H   UNL     1     146.685 174.092 191.214  0.00  0.00    +0.126 HD
BRANCH  66  70
ATOM     70  C   UNL     1     148.643 173.695 192.757  0.00  0.00    +0.016 C 
ATOM     71  H   UNL     1     149.646 173.440 193.120  0.00  0.00    +0.047 HD
ATOM     72  H   UNL     1     148.711 174.720 192.373  0.00  0.00    +0.047 HD
BRANCH  70  73
ATOM     73  C   UNL     1     147.625 173.673 193.889  0.00  0.00    -0.049 C 
ATOM     74  H   UNL     1     147.384 172.640 194.162  0.00  0.00    +0.024 HD
ATOM     75  H   UNL     1     148.019 174.179 194.777  0.00  0.00    +0.024 HD
ATOM     76  H   UNL     1     146.696 174.177 193.603  0.00  0.00    +0.024 HD
ENDBRANCH  70  73
ENDBRANCH  66  70
ENDBRANCH  63  66
ENDBRANCH  60  62
BRANCH  60  77
ATOM     77  C   UNL     1     151.100 169.365 192.001  0.00  0.00    -0.057 C 
ATOM     78  H   UNL     1     151.555 168.416 192.295  0.00  0.00    +0.024 HD
ATOM     79  H   UNL     1     151.243 170.064 192.834  0.00  0.00    +0.024 HD
ATOM     80  H   UNL     1     151.659 169.756 191.145  0.00  0.00    +0.024 HD
ENDBRANCH  60  77
ENDBRANCH  58  60
BRANCH  58  81
ATOM     81  O   UNL     1     147.924 168.287 193.119  0.00  0.00    -0.379 OA
BRANCH  81  82
ATOM     82  C   UNL     1     147.486 167.212 193.945  0.00  0.00    +0.037 C 
ATOM     83  H   UNL     1     147.959 167.256 194.930  0.00  0.00    +0.052 HD
ATOM     84  H   UNL     1     147.702 166.252 193.470  0.00  0.00    +0.052 HD
ATOM     85  H   UNL     1     146.404 167.300 194.073  0.00  0.00    +0.052 HD
ENDBRANCH  81  82
ENDBRANCH  58  81
ENDBRANCH  52  58
ENDBRANCH   1  52
BRANCH   1  86
ATOM     86  O   UNL     1     150.140 165.629 192.100  0.00  0.00    -0.459 OA
BRANCH  86  88
ATOM     87  O   UNL     1     148.994 163.894 193.079  0.00  0.00    -0.248 OA
ATOM     88  C   UNL     1     149.955 164.649 193.031  0.00  0.00    +0.337 C 
BRANCH  88  89
ATOM     89  C   UNL     1     151.140 164.654 194.012  0.00  0.00    +0.155 C 
ATOM     90  O   UNL     1     150.852 163.947 195.225  0.00  0.00    -0.365 OA
ATOM     91  C   UNL     1     150.577 164.896 196.264  0.00  0.00    +0.049 C 
ATOM     92  C   UNL     1     150.594 166.273 195.634  0.00  0.00    -0.027 C 
ATOM     93  C   UNL     1     151.497 166.069 194.442  0.00  0.00    -0.014 C 
ATOM     94  H   UNL     1     151.978 164.152 193.516  0.00  0.00    +0.071 HD
ATOM     95  H   UNL     1     149.615 164.662 196.730  0.00  0.00    +0.056 HD
ATOM     96  H   UNL     1     151.362 164.799 197.022  0.00  0.00    +0.056 HD
ATOM     97  H   UNL     1     149.585 166.543 195.300  0.00  0.00    +0.029 HD
ATOM     98  H   UNL     1     150.940 167.051 196.320  0.00  0.00    +0.029 HD
ATOM     99  H   UNL     1     152.543 166.102 194.771  0.00  0.00    +0.030 HD
ATOM    100  H   UNL     1     151.358 166.832 193.672  0.00  0.00    +0.030 HD
ENDBRANCH  88  89
ENDBRANCH  86  88
ENDBRANCH   1  86
TORSDOF 32
ENDMDL
MODEL 2
REMARK VINA RESULT:      -5.0      3.521      7.230
REMARK  Name = 2a_conf2
REMARK  32 active torsions:
REMARK  status: ('A' for Active; 'I' for Inactive)
REMARK    1  A    between atoms: C_2  and  C_3
REMARK    2  A    between atoms: C_2  and  O_8
REMARK    3  A    between atoms: O_8  and  C_9
REMARK    4  A    between atoms: C_9  and  C_10
REMARK    5  A    between atoms: C_9  and  C_29
REMARK    6  A    between atoms: C_10  and  C_11
REMARK    7  A    between atoms: C_11  and  C_12
REMARK    8  A    between atoms: C_12  and  C_13
REMARK    9  A    between atoms: C_12  and  C_14
REMARK   10  A    between atoms: C_14  and  O_15
REMARK   11  A    between atoms: C_14  and  C_17
REMARK   12  A    between atoms: O_15  and  C_16
REMARK   13  A    between atoms: C_17  and  C_18
REMARK   14  A    between atoms: C_18  and  O_19
REMARK   15  A    between atoms: C_18  and  C_26
REMARK   16  A    between atoms: O_19  and  C_20
REMARK   17  A    between atoms: C_20  and  C_21
REMARK   18  A    between atoms: C_21  and  C_22
REMARK   19  A    between atoms: C_22  and  C_23
REMARK   20  A    between atoms: C_23  and  N_24
REMARK   21  A    between atoms: C_26  and  C_27
REMARK   22  A    between atoms: C_26  and  C_28
REMARK   23  A    between atoms: C_29  and  C_30
REMARK   24  A    between atoms: C_29  and  C_31
REMARK   25  A    between atoms: C_31  and  O_32
REMARK   26  A    between atoms: C_31  and  C_34
REMARK   27  A    between atoms: O_32  and  C_33
REMARK   28  A    between atoms: C_34  and  C_35
REMARK   29  A    between atoms: C_34  and  C_36
REMARK   30  A    between atoms: C_37  and  N_38
REMARK   31  A    between atoms: N_38  and  C_39
REMARK   32  A    between atoms: C_39  and  C_40
REMARK                            x       y       z     vdW  Elec       q    Type
REMARK                         _______ _______ _______ _____ _____    ______ ____
ROOT
ATOM      1  C   UNL     1     146.448 169.908 190.128  0.00  0.00    +0.108 C 
ATOM      2  H   UNL     1     145.931 169.736 191.079  0.00  0.00    +0.074 HD
ENDROOT
BRANCH   1   3
ATOM      3  C   UNL     1     146.922 168.541 189.596  0.00  0.00    -0.015 C 
ATOM      4  H   UNL     1     147.956 168.629 189.249  0.00  0.00    +0.030 HD
ATOM      5  H   UNL     1     146.296 168.236 188.750  0.00  0.00    +0.030 HD
BRANCH   3   6
ATOM      6  C   UNL     1     146.861 167.456 190.681  0.00  0.00    -0.045 C 
ATOM      7  H   UNL     1     146.140 167.742 191.455  0.00  0.00    +0.027 HD
ATOM      8  H   UNL     1     146.462 166.541 190.222  0.00  0.00    +0.027 HD
BRANCH   6   9
ATOM      9  C   UNL     1     148.223 167.115 191.326  0.00  0.00    -0.017 C 
ATOM     10  H   UNL     1     148.944 167.846 190.939  0.00  0.00    +0.032 HD
BRANCH   9  11
ATOM     11  C   UNL     1     148.681 165.738 190.825  0.00  0.00    -0.060 C 
ATOM     12  H   UNL     1     149.744 165.759 190.558  0.00  0.00    +0.023 HD
ATOM     13  H   UNL     1     148.122 165.423 189.938  0.00  0.00    +0.023 HD
ATOM     14  H   UNL     1     148.552 164.976 191.602  0.00  0.00    +0.023 HD
ENDBRANCH   9  11
BRANCH   9  15
ATOM     15  C   UNL     1     148.267 167.173 192.880  0.00  0.00    +0.064 C 
ATOM     16  H   UNL     1     148.640 168.161 193.177  0.00  0.00    +0.060 HD
BRANCH  15  17
ATOM     17  C   UNL     1     149.176 166.096 193.504  0.00  0.00    +0.011 C 
ATOM     18  H   UNL     1     148.667 165.663 194.372  0.00  0.00    +0.033 HD
ATOM     19  H   UNL     1     149.347 165.296 192.776  0.00  0.00    +0.033 HD
BRANCH  17  20
ATOM     20  C   UNL     1     150.541 166.649 193.963  0.00  0.00    +0.108 C 
ATOM     21  H   UNL     1     150.457 167.734 194.102  0.00  0.00    +0.074 HD
BRANCH  20  22
ATOM     22  C   UNL     1     151.018 165.995 195.288  0.00  0.00    -0.009 C 
ATOM     23  H   UNL     1     151.947 166.489 195.604  0.00  0.00    +0.033 HD
BRANCH  22  24
ATOM     24  C   UNL     1     150.004 166.203 196.422  0.00  0.00    -0.059 C 
ATOM     25  H   UNL     1     149.113 165.582 196.273  0.00  0.00    +0.023 HD
ATOM     26  H   UNL     1     150.443 165.939 197.390  0.00  0.00    +0.023 HD
ATOM     27  H   UNL     1     149.687 167.249 196.491  0.00  0.00    +0.023 HD
ENDBRANCH  22  24
BRANCH  22  28
ATOM     28  C   UNL     1     151.296 164.496 195.136  0.00  0.00    -0.059 C 
ATOM     29  H   UNL     1     152.123 164.324 194.440  0.00  0.00    +0.023 HD
ATOM     30  H   UNL     1     150.427 163.966 194.735  0.00  0.00    +0.023 HD
ATOM     31  H   UNL     1     151.563 164.047 196.100  0.00  0.00    +0.023 HD
ENDBRANCH  22  28
ENDBRANCH  20  22
BRANCH  20  32
ATOM     32  O   UNL     1     151.498 166.327 192.925  0.00  0.00    -0.461 OA
BRANCH  32  33
ATOM     33  C   UNL     1     151.912 167.344 192.121  0.00  0.00    +0.307 C 
ATOM     34  O   UNL     1     151.721 168.536 192.313  0.00  0.00    -0.251 OA
BRANCH  33  35
ATOM     35  C   UNL     1     152.631 166.794 190.916  0.00  0.00    +0.046 C 
ATOM     36  H   UNL     1     152.522 165.702 190.908  0.00  0.00    +0.038 HD
ATOM     37  H   UNL     1     153.703 166.991 191.028  0.00  0.00    +0.038 HD
BRANCH  35  38
ATOM     38  C   UNL     1     152.082 167.381 189.619  0.00  0.00    -0.031 C 
ATOM     39  H   UNL     1     152.124 168.477 189.657  0.00  0.00    +0.028 HD
ATOM     40  H   UNL     1     151.023 167.103 189.535  0.00  0.00    +0.028 HD
BRANCH  38  41
ATOM     41  C   UNL     1     152.834 166.878 188.385  0.00  0.00    -0.006 C 
ATOM     42  H   UNL     1     152.435 167.351 187.482  0.00  0.00    +0.042 HD
ATOM     43  H   UNL     1     152.727 165.796 188.268  0.00  0.00    +0.042 HD
BRANCH  41  44
ATOM     44  N   UNL     1     154.252 167.204 188.506  0.00  0.00    -0.330 NA
ATOM     45  H   UNL     1     154.643 166.765 189.339  0.00  0.00    +0.118 HD
ATOM     46  H   UNL     1     154.755 166.804 187.714  0.00  0.00    +0.118 HD
ENDBRANCH  41  44
ENDBRANCH  38  41
ENDBRANCH  35  38
ENDBRANCH  33  35
ENDBRANCH  32  33
ENDBRANCH  20  32
ENDBRANCH  17  20
ENDBRANCH  15  17
BRANCH  15  47
ATOM     47  O   UNL     1     146.956 166.992 193.433  0.00  0.00    -0.379 OA
BRANCH  47  48
ATOM     48  C   UNL     1     146.838 165.837 194.252  0.00  0.00    +0.037 C 
ATOM     49  H   UNL     1     147.558 165.881 195.074  0.00  0.00    +0.052 HD
ATOM     50  H   UNL     1     147.067 164.962 193.639  0.00  0.00    +0.052 HD
ATOM     51  H   UNL     1     145.826 165.727 194.645  0.00  0.00    +0.052 HD
ENDBRANCH  47  48
ENDBRANCH  15  47
ENDBRANCH   9  15
ENDBRANCH   6   9
ENDBRANCH   3   6
ENDBRANCH   1   3
BRANCH   1  52
ATOM     52  C   UNL     1     145.475 170.631 189.140  0.00  0.00    +0.020 C 
ATOM     53  H   UNL     1     145.104 169.867 188.444  0.00  0.00    +0.036 HD
BRANCH  52  54
ATOM     54  C   UNL     1     146.211 171.709 188.334  0.00  0.00    -0.057 C 
ATOM     55  H   UNL     1     146.126 172.692 188.803  0.00  0.00    +0.023 HD
ATOM     56  H   UNL     1     145.817 171.789 187.316  0.00  0.00    +0.023 HD
ATOM     57  H   UNL     1     147.281 171.501 188.275  0.00  0.00    +0.023 HD
ENDBRANCH  52  54
BRANCH  52  58
ATOM     58  C   UNL     1     144.254 171.189 189.937  0.00  0.00    +0.070 C 
ATOM     59  H   UNL     1     143.975 172.156 189.497  0.00  0.00    +0.061 HD
BRANCH  58  60
ATOM     60  C   UNL     1     142.976 170.302 190.036  0.00  0.00    +0.002 C 
ATOM     61  H   UNL     1     142.507 170.308 189.041  0.00  0.00    +0.037 HD
BRANCH  60  62
ATOM     62  C   UNL     1     143.283 168.855 190.366  0.00  0.00    -0.065 C 
ATOM     63  C   UNL     1     142.498 168.114 191.164  0.00  0.00    -0.005 C 
ATOM     64  H   UNL     1     144.177 168.434 189.922  0.00  0.00    +0.059 HD
ATOM     65  H   UNL     1     141.606 168.568 191.597  0.00  0.00    +0.078 HD
BRANCH  63  66
ATOM     66  N   UNL     1     142.690 166.783 191.510  0.00  0.00    -0.281 N 
ATOM     67  C   UNL     1     142.307 165.784 190.613  0.00  0.00    +0.206 C 
ATOM     68  O   UNL     1     141.801 165.945 189.507  0.00  0.00    -0.279 OA
ATOM     69  H   UNL     1     142.521 164.771 190.993  0.00  0.00    +0.126 HD
BRANCH  66  70
ATOM     70  C   UNL     1     143.317 166.380 192.768  0.00  0.00    +0.016 C 
ATOM     71  H   UNL     1     143.136 165.316 192.956  0.00  0.00    +0.047 HD
ATOM     72  H   UNL     1     144.404 166.491 192.674  0.00  0.00    +0.047 HD
BRANCH  70  73
ATOM     73  C   UNL     1     142.846 167.234 193.937  0.00  0.00    -0.049 C 
ATOM     74  H   UNL     1     143.468 167.047 194.818  0.00  0.00    +0.024 HD
ATOM     75  H   UNL     1     142.910 168.300 193.692  0.00  0.00    +0.024 HD
ATOM     76  H   UNL     1     141.806 167.015 194.200  0.00  0.00    +0.024 HD
ENDBRANCH  70  73
ENDBRANCH  66  70
ENDBRANCH  63  66
ENDBRANCH  60  62
BRANCH  60  77
ATOM     77  C   UNL     1     141.902 170.874 190.964  0.00  0.00    -0.057 C 
ATOM     78  H   UNL     1     142.294 171.636 191.641  0.00  0.00    +0.024 HD
ATOM     79  H   UNL     1     141.467 170.081 191.584  0.00  0.00    +0.024 HD
ATOM     80  H   UNL     1     141.087 171.323 190.387  0.00  0.00    +0.024 HD
ENDBRANCH  60  77
ENDBRANCH  58  60
BRANCH  58  81
ATOM     81  O   UNL     1     144.726 171.412 191.285  0.00  0.00    -0.379 OA
BRANCH  81  82
ATOM     82  C   UNL     1     144.909 172.789 191.596  0.00  0.00    +0.037 C 
ATOM     83  H   UNL     1     143.954 173.320 191.604  0.00  0.00    +0.052 HD
ATOM     84  H   UNL     1     145.589 173.257 190.879  0.00  0.00    +0.052 HD
ATOM     85  H   UNL     1     145.356 172.858 192.591  0.00  0.00    +0.052 HD
ENDBRANCH  81  82
ENDBRANCH  58  81
ENDBRANCH  52  58
ENDBRANCH   1  52
BRANCH   1  86
ATOM     86  O   UNL     1     147.614 170.747 190.303  0.00  0.00    -0.459 OA
BRANCH  86  88
ATOM     87  O   UNL     1     147.707 170.315 192.558  0.00  0.00    -0.248 OA
ATOM     88  C   UNL     1     148.099 170.915 191.567  0.00  0.00    +0.337 C 
BRANCH  88  89
ATOM     89  C   UNL     1     149.205 171.984 191.546  0.00  0.00    +0.155 C 
ATOM     90  O   UNL     1     149.971 172.006 192.758  0.00  0.00    -0.365 OA
ATOM     91  C   UNL     1     149.544 173.117 193.558  0.00  0.00    +0.049 C 
ATOM     92  C   UNL     1     148.372 173.762 192.848  0.00  0.00    -0.027 C 
ATOM     93  C   UNL     1     148.622 173.382 191.408  0.00  0.00    -0.014 C 
ATOM     94  H   UNL     1     149.882 171.738 190.720  0.00  0.00    +0.071 HD
ATOM     95  H   UNL     1     149.283 172.768 194.561  0.00  0.00    +0.056 HD
ATOM     96  H   UNL     1     150.387 173.812 193.641  0.00  0.00    +0.056 HD
ATOM     97  H   UNL     1     147.433 173.317 193.197  0.00  0.00    +0.029 HD
ATOM     98  H   UNL     1     148.316 174.842 193.014  0.00  0.00    +0.029 HD
ATOM     99  H   UNL     1     149.374 174.056 190.982  0.00  0.00    +0.030 HD
ATOM    100  H   UNL     1     147.721 173.446 190.793  0.00  0.00    +0.030 HD
ENDBRANCH  88  89
ENDBRANCH  86  88
ENDBRANCH   1  86
TORSDOF 32
ENDMDL
MODEL 3
REMARK VINA RESULT:      -5.0      1.555      2.362
REMARK  Name = 2a_conf2
REMARK  32 active torsions:
REMARK  status: ('A' for Active; 'I' for Inactive)
REMARK    1  A    between atoms: C_2  and  C_3
REMARK    2  A    between atoms: C_2  and  O_8
REMARK    3  A    between atoms: O_8  and  C_9
REMARK    4  A    between atoms: C_9  and  C_10
REMARK    5  A    between atoms: C_9  and  C_29
REMARK    6  A    between atoms: C_10  and  C_11
REMARK    7  A    between atoms: C_11  and  C_12
REMARK    8  A    between atoms: C_12  and  C_13
REMARK    9  A    between atoms: C_12  and  C_14
REMARK   10  A    between atoms: C_14  and  O_15
REMARK   11  A    between atoms: C_14  and  C_17
REMARK   12  A    between atoms: O_15  and  C_16
REMARK   13  A    between atoms: C_17  and  C_18
REMARK   14  A    between atoms: C_18  and  O_19
REMARK   15  A    between atoms: C_18  and  C_26
REMARK   16  A    between atoms: O_19  and  C_20
REMARK   17  A    between atoms: C_20  and  C_21
REMARK   18  A    between atoms: C_21  and  C_22
REMARK   19  A    between atoms: C_22  and  C_23
REMARK   20  A    between atoms: C_23  and  N_24
REMARK   21  A    between atoms: C_26  and  C_27
REMARK   22  A    between atoms: C_26  and  C_28
REMARK   23  A    between atoms: C_29  and  C_30
REMARK   24  A    between atoms: C_29  and  C_31
REMARK   25  A    between atoms: C_31  and  O_32
REMARK   26  A    between atoms: C_31  and  C_34
REMARK   27  A    between atoms: O_32  and  C_33
REMARK   28  A    between atoms: C_34  and  C_35
REMARK   29  A    between atoms: C_34  and  C_36
REMARK   30  A    between atoms: C_37  and  N_38
REMARK   31  A    between atoms: N_38  and  C_39
REMARK   32  A    between atoms: C_39  and  C_40
REMARK                            x       y       z     vdW  Elec       q    Type
REMARK                         _______ _______ _______ _____ _____    ______ ____
ROOT
ATOM      1  C   UNL     1     149.845 165.727 191.066  0.00  0.00    +0.108 C 
ATOM      2  H   UNL     1     149.399 164.770 190.773  0.00  0.00    +0.074 HD
ENDROOT
BRANCH   1   3
ATOM      3  C   UNL     1     150.870 166.121 189.985  0.00  0.00    -0.015 C 
ATOM      4  H   UNL     1     150.657 167.138 189.641  0.00  0.00    +0.030 HD
ATOM      5  H   UNL     1     150.787 165.439 189.130  0.00  0.00    +0.030 HD
BRANCH   3   6
ATOM      6  C   UNL     1     152.308 166.077 190.521  0.00  0.00    -0.045 C 
ATOM      7  H   UNL     1     152.638 167.087 190.790  0.00  0.00    +0.027 HD
ATOM      8  H   UNL     1     152.303 165.503 191.458  0.00  0.00    +0.027 HD
BRANCH   6   9
ATOM      9  C   UNL     1     153.331 165.424 189.564  0.00  0.00    -0.017 C 
ATOM     10  H   UNL     1     153.845 164.645 190.140  0.00  0.00    +0.032 HD
BRANCH   9  11
ATOM     11  C   UNL     1     154.394 166.465 189.186  0.00  0.00    -0.060 C 
ATOM     12  H   UNL     1     155.269 166.377 189.841  0.00  0.00    +0.023 HD
ATOM     13  H   UNL     1     154.012 167.487 189.278  0.00  0.00    +0.023 HD
ATOM     14  H   UNL     1     154.738 166.317 188.157  0.00  0.00    +0.023 HD
ENDBRANCH   9  11
BRANCH   9  15
ATOM     15  C   UNL     1     152.735 164.764 188.287  0.00  0.00    +0.064 C 
ATOM     16  H   UNL     1     151.642 164.741 188.390  0.00  0.00    +0.060 HD
BRANCH  15  17
ATOM     17  C   UNL     1     153.238 163.326 188.055  0.00  0.00    +0.011 C 
ATOM     18  H   UNL     1     153.434 163.188 186.986  0.00  0.00    +0.033 HD
ATOM     19  H   UNL     1     154.178 163.176 188.596  0.00  0.00    +0.033 HD
BRANCH  17  20
ATOM     20  C   UNL     1     152.228 162.252 188.509  0.00  0.00    +0.108 C 
ATOM     21  H   UNL     1     152.148 161.486 187.727  0.00  0.00    +0.074 HD
BRANCH  20  22
ATOM     22  C   UNL     1     152.652 161.581 189.844  0.00  0.00    -0.009 C 
ATOM     23  H   UNL     1     153.747 161.633 189.926  0.00  0.00    +0.033 HD
BRANCH  22  24
ATOM     24  C   UNL     1     152.086 162.327 191.060  0.00  0.00    -0.059 C 
ATOM     25  H   UNL     1     152.872 162.546 191.791  0.00  0.00    +0.023 HD
ATOM     26  H   UNL     1     151.631 163.277 190.757  0.00  0.00    +0.023 HD
ATOM     27  H   UNL     1     151.304 161.746 191.560  0.00  0.00    +0.023 HD
ENDBRANCH  22  24
BRANCH  22  28
ATOM     28  C   UNL     1     152.231 160.110 189.921  0.00  0.00    -0.059 C 
ATOM     29  H   UNL     1     152.245 159.651 188.926  0.00  0.00    +0.023 HD
ATOM     30  H   UNL     1     151.213 160.004 190.306  0.00  0.00    +0.023 HD
ATOM     31  H   UNL     1     152.909 159.541 190.568  0.00  0.00    +0.023 HD
ENDBRANCH  22  28
ENDBRANCH  20  22
BRANCH  20  32
ATOM     32  O   UNL     1     150.962 162.922 188.717  0.00  0.00    -0.461 OA
BRANCH  32  33
ATOM     33  C   UNL     1     149.854 162.345 188.178  0.00  0.00    +0.307 C 
ATOM     34  O   UNL     1     149.707 162.026 187.007  0.00  0.00    -0.251 OA
BRANCH  33  35
ATOM     35  C   UNL     1     148.793 162.168 189.234  0.00  0.00    +0.046 C 
ATOM     36  H   UNL     1     147.909 162.751 188.947  0.00  0.00    +0.038 HD
ATOM     37  H   UNL     1     149.155 162.607 190.170  0.00  0.00    +0.038 HD
BRANCH  35  38
ATOM     38  C   UNL     1     148.414 160.700 189.407  0.00  0.00    -0.031 C 
ATOM     39  H   UNL     1     149.276 160.061 189.175  0.00  0.00    +0.028 HD
ATOM     40  H   UNL     1     147.629 160.458 188.680  0.00  0.00    +0.028 HD
BRANCH  38  41
ATOM     41  C   UNL     1     147.908 160.390 190.817  0.00  0.00    -0.006 C 
ATOM     42  H   UNL     1     147.863 159.307 190.972  0.00  0.00    +0.042 HD
ATOM     43  H   UNL     1     146.902 160.791 190.976  0.00  0.00    +0.042 HD
BRANCH  41  44
ATOM     44  N   UNL     1     148.811 160.973 191.805  0.00  0.00    -0.330 NA
ATOM     45  H   UNL     1     148.313 161.655 192.376  0.00  0.00    +0.118 HD
ATOM     46  H   UNL     1     149.122 160.243 192.446  0.00  0.00    +0.118 HD
ENDBRANCH  41  44
ENDBRANCH  38  41
ENDBRANCH  35  38
ENDBRANCH  33  35
ENDBRANCH  32  33
ENDBRANCH  20  32
ENDBRANCH  17  20
ENDBRANCH  15  17
BRANCH  15  47
ATOM     47  O   UNL     1     153.071 165.524 187.118  0.00  0.00    -0.379 OA
BRANCH  47  48
ATOM     48  C   UNL     1     152.000 165.646 186.193  0.00  0.00    +0.037 C 
ATOM     49  H   UNL     1     152.034 166.621 185.700  0.00  0.00    +0.052 HD
ATOM     50  H   UNL     1     151.061 165.572 186.748  0.00  0.00    +0.052 HD
ATOM     51  H   UNL     1     152.023 164.848 185.447  0.00  0.00    +0.052 HD
ENDBRANCH  47  48
ENDBRANCH  15  47
ENDBRANCH   9  15
ENDBRANCH   6   9
ENDBRANCH   3   6
ENDBRANCH   1   3
BRANCH   1  52
ATOM     52  C   UNL     1     148.711 166.790 191.234  0.00  0.00    +0.020 C 
ATOM     53  H   UNL     1     147.831 166.257 191.617  0.00  0.00    +0.036 HD
BRANCH  52  54
ATOM     54  C   UNL     1     148.348 167.425 189.886  0.00  0.00    -0.057 C 
ATOM     55  H   UNL     1     148.273 168.513 189.959  0.00  0.00    +0.023 HD
ATOM     56  H   UNL     1     147.393 167.049 189.508  0.00  0.00    +0.023 HD
ATOM     57  H   UNL     1     149.117 167.231 189.135  0.00  0.00    +0.023 HD
ENDBRANCH  52  54
BRANCH  52  58
ATOM     58  C   UNL     1     149.143 167.838 192.308  0.00  0.00    +0.070 C 
ATOM     59  H   UNL     1     149.891 167.367 192.960  0.00  0.00    +0.061 HD
BRANCH  58  60
ATOM     60  C   UNL     1     149.708 169.204 191.813  0.00  0.00    +0.002 C 
ATOM     61  H   UNL     1     149.634 169.201 190.716  0.00  0.00    +0.037 HD
BRANCH  60  62
ATOM     62  C   UNL     1     148.901 170.391 192.301  0.00  0.00    -0.065 C 
ATOM     63  C   UNL     1     148.249 171.214 191.466  0.00  0.00    -0.005 C 
ATOM     64  H   UNL     1     148.871 170.549 193.373  0.00  0.00    +0.059 HD
ATOM     65  H   UNL     1     148.302 171.028 190.392  0.00  0.00    +0.078 HD
BRANCH  63  66
ATOM     66  N   UNL     1     147.478 172.313 191.820  0.00  0.00    -0.281 N 
ATOM     67  C   UNL     1     146.093 172.259 191.643  0.00  0.00    +0.206 C 
ATOM     68  O   UNL     1     145.447 171.318 191.193  0.00  0.00    -0.279 OA
ATOM     69  H   UNL     1     145.590 173.183 191.971  0.00  0.00    +0.126 HD
BRANCH  66  70
ATOM     70  C   UNL     1     148.052 173.519 192.412  0.00  0.00    +0.016 C 
ATOM     71  H   UNL     1     149.141 173.522 192.283  0.00  0.00    +0.047 HD
ATOM     72  H   UNL     1     147.680 174.395 191.866  0.00  0.00    +0.047 HD
BRANCH  70  73
ATOM     73  C   UNL     1     147.671 173.670 193.878  0.00  0.00    -0.049 C 
ATOM     74  H   UNL     1     147.063 172.819 194.201  0.00  0.00    +0.024 HD
ATOM     75  H   UNL     1     148.563 173.715 194.511  0.00  0.00    +0.024 HD
ATOM     76  H   UNL     1     147.095 174.586 194.050  0.00  0.00    +0.024 HD
ENDBRANCH  70  73
ENDBRANCH  66  70
ENDBRANCH  63  66
ENDBRANCH  60  62
BRANCH  60  77
ATOM     77  C   UNL     1     151.202 169.389 192.091  0.00  0.00    -0.057 C 
ATOM     78  H   UNL     1     151.487 170.440 192.171  0.00  0.00    +0.024 HD
ATOM     79  H   UNL     1     151.801 168.951 191.285  0.00  0.00    +0.024 HD
ATOM     80  H   UNL     1     151.490 168.891 193.022  0.00  0.00    +0.024 HD
ENDBRANCH  60  77
ENDBRANCH  58  60
BRANCH  58  81
ATOM     81  O   UNL     1     147.960 168.120 193.088  0.00  0.00    -0.379 OA
BRANCH  81  82
ATOM     82  C   UNL     1     147.508 167.004 193.847  0.00  0.00    +0.037 C 
ATOM     83  H   UNL     1     146.426 167.044 194.000  0.00  0.00    +0.052 HD
ATOM     84  H   UNL     1     148.019 166.964 194.812  0.00  0.00    +0.052 HD
ATOM     85  H   UNL     1     147.748 166.094 193.291  0.00  0.00    +0.052 HD
ENDBRANCH  81  82
ENDBRANCH  58  81
ENDBRANCH  52  58
ENDBRANCH   1  52
BRANCH   1  86
ATOM     86  O   UNL     1     150.547 165.619 192.328  0.00  0.00    -0.459 OA
BRANCH  86  88
ATOM     87  O   UNL     1     149.255 163.846 193.009  0.00  0.00    -0.248 OA
ATOM     88  C   UNL     1     150.207 164.597 193.165  0.00  0.00    +0.337 C 
BRANCH  88  89
ATOM     89  C   UNL     1     151.203 164.550 194.335  0.00  0.00    +0.155 C 
ATOM     90  O   UNL     1     150.648 163.935 195.506  0.00  0.00    -0.365 OA
ATOM     91  C   UNL     1     150.292 164.958 196.446  0.00  0.00    +0.049 C 
ATOM     92  C   UNL     1     150.547 166.293 195.778  0.00  0.00    -0.027 C 
ATOM     93  C   UNL     1     151.616 165.949 194.769  0.00  0.00    -0.014 C 
ATOM     94  H   UNL     1     152.062 163.951 194.012  0.00  0.00    +0.071 HD
ATOM     95  H   UNL     1     149.248 164.834 196.746  0.00  0.00    +0.056 HD
ATOM     96  H   UNL     1     150.925 164.832 197.331  0.00  0.00    +0.056 HD
ATOM     97  H   UNL     1     149.639 166.632 195.264  0.00  0.00    +0.029 HD
ATOM     98  H   UNL     1     150.844 167.073 196.485  0.00  0.00    +0.029 HD
ATOM     99  H   UNL     1     152.588 165.908 195.273  0.00  0.00    +0.030 HD
ATOM    100  H   UNL     1     151.682 166.680 193.960  0.00  0.00    +0.030 HD
ENDBRANCH  88  89
ENDBRANCH  86  88
ENDBRANCH   1  86
TORSDOF 32
ENDMDL
MODEL 4
REMARK VINA RESULT:      -5.0      1.421      2.766
REMARK  Name = 2a_conf2
REMARK  32 active torsions:
REMARK  status: ('A' for Active; 'I' for Inactive)
REMARK    1  A    between atoms: C_2  and  C_3
REMARK    2  A    between atoms: C_2  and  O_8
REMARK    3  A    between atoms: O_8  and  C_9
REMARK    4  A    between atoms: C_9  and  C_10
REMARK    5  A    between atoms: C_9  and  C_29
REMARK    6  A    between atoms: C_10  and  C_11
REMARK    7  A    between atoms: C_11  and  C_12
REMARK    8  A    between atoms: C_12  and  C_13
REMARK    9  A    between atoms: C_12  and  C_14
REMARK   10  A    between atoms: C_14  and  O_15
REMARK   11  A    between atoms: C_14  and  C_17
REMARK   12  A    between atoms: O_15  and  C_16
REMARK   13  A    between atoms: C_17  and  C_18
REMARK   14  A    between atoms: C_18  and  O_19
REMARK   15  A    between atoms: C_18  and  C_26
REMARK   16  A    between atoms: O_19  and  C_20
REMARK   17  A    between atoms: C_20  and  C_21
REMARK   18  A    between atoms: C_21  and  C_22
REMARK   19  A    between atoms: C_22  and  C_23
REMARK   20  A    between atoms: C_23  and  N_24
REMARK   21  A    between atoms: C_26  and  C_27
REMARK   22  A    between atoms: C_26  and  C_28
REMARK   23  A    between atoms: C_29  and  C_30
REMARK   24  A    between atoms: C_29  and  C_31
REMARK   25  A    between atoms: C_31  and  O_32
REMARK   26  A    between atoms: C_31  and  C_34
REMARK   27  A    between atoms: O_32  and  C_33
REMARK   28  A    between atoms: C_34  and  C_35
REMARK   29  A    between atoms: C_34  and  C_36
REMARK   30  A    between atoms: C_37  and  N_38
REMARK   31  A    between atoms: N_38  and  C_39
REMARK   32  A    between atoms: C_39  and  C_40
REMARK                            x       y       z     vdW  Elec       q    Type
REMARK                         _______ _______ _______ _____ _____    ______ ____
ROOT
ATOM      1  C   UNL     1     150.276 166.129 191.167  0.00  0.00    +0.108 C 
ATOM      2  H   UNL     1     149.967 165.183 190.709  0.00  0.00    +0.074 HD
ENDROOT
BRANCH   1   3
ATOM      3  C   UNL     1     151.426 166.709 190.322  0.00  0.00    -0.015 C 
ATOM      4  H   UNL     1     151.657 167.720 190.674  0.00  0.00    +0.030 HD
ATOM      5  H   UNL     1     151.121 166.768 189.271  0.00  0.00    +0.030 HD
BRANCH   3   6
ATOM      6  C   UNL     1     152.697 165.853 190.427  0.00  0.00    -0.045 C 
ATOM      7  H   UNL     1     153.326 166.217 191.247  0.00  0.00    +0.027 HD
ATOM      8  H   UNL     1     152.396 164.834 190.708  0.00  0.00    +0.027 HD
BRANCH   6   9
ATOM      9  C   UNL     1     153.523 165.768 189.124  0.00  0.00    -0.017 C 
ATOM     10  H   UNL     1     154.494 166.231 189.339  0.00  0.00    +0.032 HD
BRANCH   9  11
ATOM     11  C   UNL     1     152.850 166.633 188.050  0.00  0.00    -0.060 C 
ATOM     12  H   UNL     1     151.814 166.858 188.328  0.00  0.00    +0.023 HD
ATOM     13  H   UNL     1     152.831 166.130 187.078  0.00  0.00    +0.023 HD
ATOM     14  H   UNL     1     153.373 167.589 187.932  0.00  0.00    +0.023 HD
ENDBRANCH   9  11
BRANCH   9  15
ATOM     15  C   UNL     1     153.785 164.332 188.584  0.00  0.00    +0.064 C 
ATOM     16  H   UNL     1     154.621 164.380 187.874  0.00  0.00    +0.060 HD
BRANCH  15  17
ATOM     17  C   UNL     1     152.566 163.720 187.866  0.00  0.00    +0.011 C 
ATOM     18  H   UNL     1     151.954 164.530 187.455  0.00  0.00    +0.033 HD
ATOM     19  H   UNL     1     152.907 163.096 187.034  0.00  0.00    +0.033 HD
BRANCH  17  20
ATOM     20  C   UNL     1     151.683 162.864 188.798  0.00  0.00    +0.108 C 
ATOM     21  H   UNL     1     152.154 162.814 189.787  0.00  0.00    +0.074 HD
BRANCH  20  22
ATOM     22  C   UNL     1     150.250 163.448 188.940  0.00  0.00    -0.009 C 
ATOM     23  H   UNL     1     150.220 164.078 189.840  0.00  0.00    +0.033 HD
BRANCH  22  24
ATOM     24  C   UNL     1     149.886 164.355 187.756  0.00  0.00    -0.059 C 
ATOM     25  H   UNL     1     149.766 163.774 186.835  0.00  0.00    +0.023 HD
ATOM     26  H   UNL     1     148.947 164.885 187.947  0.00  0.00    +0.023 HD
ATOM     27  H   UNL     1     150.652 165.118 187.584  0.00  0.00    +0.023 HD
ENDBRANCH  22  24
BRANCH  22  28
ATOM     28  C   UNL     1     149.184 162.356 189.078  0.00  0.00    -0.059 C 
ATOM     29  H   UNL     1     148.877 162.244 190.124  0.00  0.00    +0.023 HD
ATOM     30  H   UNL     1     149.562 161.383 188.752  0.00  0.00    +0.023 HD
ATOM     31  H   UNL     1     148.294 162.600 188.487  0.00  0.00    +0.023 HD
ENDBRANCH  22  28
ENDBRANCH  20  22
BRANCH  20  32
ATOM     32  O   UNL     1     151.583 161.551 188.197  0.00  0.00    -0.461 OA
BRANCH  32  33
ATOM     33  C   UNL     1     152.399 160.578 188.686  0.00  0.00    +0.307 C 
ATOM     34  O   UNL     1     153.002 159.746 188.025  0.00  0.00    -0.251 OA
BRANCH  33  35
ATOM     35  C   UNL     1     152.441 160.643 190.192  0.00  0.00    +0.046 C 
ATOM     36  H   UNL     1     152.328 161.689 190.502  0.00  0.00    +0.038 HD
ATOM     37  H   UNL     1     153.437 160.333 190.527  0.00  0.00    +0.038 HD
BRANCH  35  38
ATOM     38  C   UNL     1     151.343 159.791 190.821  0.00  0.00    -0.031 C 
ATOM     39  H   UNL     1     150.408 159.910 190.257  0.00  0.00    +0.028 HD
ATOM     40  H   UNL     1     151.156 160.163 191.836  0.00  0.00    +0.028 HD
BRANCH  38  41
ATOM     41  C   UNL     1     151.718 158.310 190.888  0.00  0.00    -0.006 C 
ATOM     42  H   UNL     1     152.294 158.026 190.002  0.00  0.00    +0.042 HD
ATOM     43  H   UNL     1     150.828 157.675 190.924  0.00  0.00    +0.042 HD
BRANCH  41  44
ATOM     44  N   UNL     1     152.526 158.060 192.079  0.00  0.00    -0.330 NA
ATOM     45  H   UNL     1     152.663 157.058 192.206  0.00  0.00    +0.118 HD
ATOM     46  H   UNL     1     153.456 158.456 191.942  0.00  0.00    +0.118 HD
ENDBRANCH  41  44
ENDBRANCH  38  41
ENDBRANCH  35  38
ENDBRANCH  33  35
ENDBRANCH  32  33
ENDBRANCH  20  32
ENDBRANCH  17  20
ENDBRANCH  15  17
BRANCH  15  47
ATOM     47  O   UNL     1     154.138 163.443 189.652  0.00  0.00    -0.379 OA
BRANCH  47  48
ATOM     48  C   UNL     1     155.411 162.836 189.489  0.00  0.00    +0.037 C 
ATOM     49  H   UNL     1     155.717 162.342 190.415  0.00  0.00    +0.052 HD
ATOM     50  H   UNL     1     156.136 163.622 189.262  0.00  0.00    +0.052 HD
ATOM     51  H   UNL     1     155.410 162.120 188.664  0.00  0.00    +0.052 HD
ENDBRANCH  47  48
ENDBRANCH  15  47
ENDBRANCH   9  15
ENDBRANCH   6   9
ENDBRANCH   3   6
ENDBRANCH   1   3
BRANCH   1  52
ATOM     52  C   UNL     1     149.042 167.088 191.239  0.00  0.00    +0.020 C 
ATOM     53  H   UNL     1     148.198 166.492 191.612  0.00  0.00    +0.036 HD
BRANCH  52  54
ATOM     54  C   UNL     1     148.682 167.626 189.849  0.00  0.00    -0.057 C 
ATOM     55  H   UNL     1     148.403 166.822 189.164  0.00  0.00    +0.023 HD
ATOM     56  H   UNL     1     149.518 168.173 189.401  0.00  0.00    +0.023 HD
ATOM     57  H   UNL     1     147.818 168.292 189.892  0.00  0.00    +0.023 HD
ENDBRANCH  52  54
BRANCH  52  58
ATOM     58  C   UNL     1     149.328 168.217 192.278  0.00  0.00    +0.070 C 
ATOM     59  H   UNL     1     150.050 167.829 193.010  0.00  0.00    +0.061 HD
BRANCH  58  60
ATOM     60  C   UNL     1     149.849 169.587 191.747  0.00  0.00    +0.002 C 
ATOM     61  H   UNL     1     149.877 169.514 190.651  0.00  0.00    +0.037 HD
BRANCH  60  62
ATOM     62  C   UNL     1     148.928 170.742 192.085  0.00  0.00    -0.065 C 
ATOM     63  C   UNL     1     148.945 171.902 191.408  0.00  0.00    -0.005 C 
ATOM     64  H   UNL     1     148.241 170.591 192.910  0.00  0.00    +0.059 HD
ATOM     65  H   UNL     1     149.650 172.022 190.585  0.00  0.00    +0.078 HD
BRANCH  63  66
ATOM     66  N   UNL     1     148.133 173.005 191.636  0.00  0.00    -0.281 N 
ATOM     67  C   UNL     1     147.005 173.197 190.835  0.00  0.00    +0.206 C 
ATOM     68  O   UNL     1     146.626 172.478 189.915  0.00  0.00    -0.279 OA
ATOM     69  H   UNL     1     146.435 174.097 191.118  0.00  0.00    +0.126 HD
BRANCH  66  70
ATOM     70  C   UNL     1     148.388 173.961 192.711  0.00  0.00    +0.016 C 
ATOM     71  H   UNL     1     149.450 173.951 192.981  0.00  0.00    +0.047 HD
ATOM     72  H   UNL     1     148.178 174.973 192.343  0.00  0.00    +0.047 HD
BRANCH  70  73
ATOM     73  C   UNL     1     147.508 173.699 193.925  0.00  0.00    -0.049 C 
ATOM     74  H   UNL     1     146.744 174.479 194.014  0.00  0.00    +0.024 HD
ATOM     75  H   UNL     1     147.003 172.731 193.839  0.00  0.00    +0.024 HD
ATOM     76  H   UNL     1     148.095 173.688 194.850  0.00  0.00    +0.024 HD
ENDBRANCH  70  73
ENDBRANCH  66  70
ENDBRANCH  63  66
ENDBRANCH  60  62
BRANCH  60  77
ATOM     77  C   UNL     1     151.296 169.889 192.143  0.00  0.00    -0.057 C 
ATOM     78  H   UNL     1     151.466 169.794 193.218  0.00  0.00    +0.024 HD
ATOM     79  H   UNL     1     151.566 170.914 191.863  0.00  0.00    +0.024 HD
ATOM     80  H   UNL     1     151.990 169.215 191.631  0.00  0.00    +0.024 HD
ENDBRANCH  60  77
ENDBRANCH  58  60
BRANCH  58  81
ATOM     81  O   UNL     1     148.074 168.467 192.951  0.00  0.00    -0.379 OA
BRANCH  81  82
ATOM     82  C   UNL     1     147.634 167.369 193.745  0.00  0.00    +0.037 C 
ATOM     83  H   UNL     1     146.625 167.058 193.460  0.00  0.00    +0.052 HD
ATOM     84  H   UNL     1     147.659 167.629 194.806  0.00  0.00    +0.052 HD
ATOM     85  H   UNL     1     148.317 166.532 193.577  0.00  0.00    +0.052 HD
ENDBRANCH  81  82
ENDBRANCH  58  81
ENDBRANCH  52  58
ENDBRANCH   1  52
BRANCH   1  86
ATOM     86  O   UNL     1     150.767 165.931 192.514  0.00  0.00    -0.459 OA
BRANCH  86  88
ATOM     87  O   UNL     1     149.409 164.110 192.865  0.00  0.00    -0.248 OA
ATOM     88  C   UNL     1     150.346 164.825 193.193  0.00  0.00    +0.337 C 
BRANCH  88  89
ATOM     89  C   UNL     1     151.229 164.630 194.437  0.00  0.00    +0.155 C 
ATOM     90  O   UNL     1     150.534 163.975 195.507  0.00  0.00    -0.365 OA
ATOM     91  C   UNL     1     150.159 164.952 196.487  0.00  0.00    +0.049 C 
ATOM     92  C   UNL     1     150.554 166.310 195.945  0.00  0.00    -0.027 C 
ATOM     93  C   UNL     1     151.686 165.964 195.008  0.00  0.00    -0.014 C 
ATOM     94  H   UNL     1     152.074 163.998 194.144  0.00  0.00    +0.071 HD
ATOM     95  H   UNL     1     149.087 164.879 196.687  0.00  0.00    +0.056 HD
ATOM     96  H   UNL     1     150.701 164.723 197.411  0.00  0.00    +0.056 HD
ATOM     97  H   UNL     1     149.719 166.744 195.382  0.00  0.00    +0.029 HD
ATOM     98  H   UNL     1     150.834 167.017 196.731  0.00  0.00    +0.029 HD
ATOM     99  H   UNL     1     152.605 165.823 195.588  0.00  0.00    +0.030 HD
ATOM    100  H   UNL     1     151.870 166.743 194.263  0.00  0.00    +0.030 HD
ENDBRANCH  88  89
ENDBRANCH  86  88
ENDBRANCH   1  86
TORSDOF 32
ENDMDL
MODEL 5
REMARK VINA RESULT:      -5.0      2.912      6.448
REMARK  Name = 2a_conf2
REMARK  32 active torsions:
REMARK  status: ('A' for Active; 'I' for Inactive)
REMARK    1  A    between atoms: C_2  and  C_3
REMARK    2  A    between atoms: C_2  and  O_8
REMARK    3  A    between atoms: O_8  and  C_9
REMARK    4  A    between atoms: C_9  and  C_10
REMARK    5  A    between atoms: C_9  and  C_29
REMARK    6  A    between atoms: C_10  and  C_11
REMARK    7  A    between atoms: C_11  and  C_12
REMARK    8  A    between atoms: C_12  and  C_13
REMARK    9  A    between atoms: C_12  and  C_14
REMARK   10  A    between atoms: C_14  and  O_15
REMARK   11  A    between atoms: C_14  and  C_17
REMARK   12  A    between atoms: O_15  and  C_16
REMARK   13  A    between atoms: C_17  and  C_18
REMARK   14  A    between atoms: C_18  and  O_19
REMARK   15  A    between atoms: C_18  and  C_26
REMARK   16  A    between atoms: O_19  and  C_20
REMARK   17  A    between atoms: C_20  and  C_21
REMARK   18  A    between atoms: C_21  and  C_22
REMARK   19  A    between atoms: C_22  and  C_23
REMARK   20  A    between atoms: C_23  and  N_24
REMARK   21  A    between atoms: C_26  and  C_27
REMARK   22  A    between atoms: C_26  and  C_28
REMARK   23  A    between atoms: C_29  and  C_30
REMARK   24  A    between atoms: C_29  and  C_31
REMARK   25  A    between atoms: C_31  and  O_32
REMARK   26  A    between atoms: C_31  and  C_34
REMARK   27  A    between atoms: O_32  and  C_33
REMARK   28  A    between atoms: C_34  and  C_35
REMARK   29  A    between atoms: C_34  and  C_36
REMARK   30  A    between atoms: C_37  and  N_38
REMARK   31  A    between atoms: N_38  and  C_39
REMARK   32  A    between atoms: C_39  and  C_40
REMARK                            x       y       z     vdW  Elec       q    Type
REMARK                         _______ _______ _______ _____ _____    ______ ____
ROOT
ATOM      1  C   UNL     1     146.986 169.688 190.482  0.00  0.00    +0.108 C 
ATOM      2  H   UNL     1     146.017 169.288 190.800  0.00  0.00    +0.074 HD
ENDROOT
BRANCH   1   3
ATOM      3  C   UNL     1     148.009 169.386 191.594  0.00  0.00    -0.015 C 
ATOM      4  H   UNL     1     147.879 168.353 191.932  0.00  0.00    +0.030 HD
ATOM      5  H   UNL     1     147.838 170.055 192.446  0.00  0.00    +0.030 HD
BRANCH   3   6
ATOM      6  C   UNL     1     149.452 169.563 191.102  0.00  0.00    -0.045 C 
ATOM      7  H   UNL     1     149.599 169.008 190.168  0.00  0.00    +0.027 HD
ATOM      8  H   UNL     1     149.597 170.622 190.849  0.00  0.00    +0.027 HD
BRANCH   6   9
ATOM      9  C   UNL     1     150.535 169.163 192.130  0.00  0.00    -0.017 C 
ATOM     10  H   UNL     1     150.064 169.222 193.119  0.00  0.00    +0.032 HD
BRANCH   9  11
ATOM     11  C   UNL     1     151.652 170.216 192.112  0.00  0.00    -0.060 C 
ATOM     12  H   UNL     1     152.445 169.925 191.414  0.00  0.00    +0.023 HD
ATOM     13  H   UNL     1     152.108 170.340 193.099  0.00  0.00    +0.023 HD
ATOM     14  H   UNL     1     151.268 171.189 191.786  0.00  0.00    +0.023 HD
ENDBRANCH   9  11
BRANCH   9  15
ATOM     15  C   UNL     1     151.129 167.735 191.964  0.00  0.00    +0.064 C 
ATOM     16  H   UNL     1     150.306 167.044 191.741  0.00  0.00    +0.060 HD
BRANCH  15  17
ATOM     17  C   UNL     1     151.865 167.232 193.222  0.00  0.00    +0.011 C 
ATOM     18  H   UNL     1     152.933 167.147 192.996  0.00  0.00    +0.033 HD
ATOM     19  H   UNL     1     151.744 167.960 194.031  0.00  0.00    +0.033 HD
BRANCH  17  20
ATOM     20  C   UNL     1     151.358 165.860 193.711  0.00  0.00    +0.108 C 
ATOM     21  H   UNL     1     152.051 165.082 193.367  0.00  0.00    +0.074 HD
BRANCH  20  22
ATOM     22  C   UNL     1     151.244 165.799 195.259  0.00  0.00    -0.009 C 
ATOM     23  H   UNL     1     152.011 166.457 195.689  0.00  0.00    +0.033 HD
BRANCH  22  24
ATOM     24  C   UNL     1     149.888 166.327 195.749  0.00  0.00    -0.059 C 
ATOM     25  H   UNL     1     149.877 167.423 195.774  0.00  0.00    +0.023 HD
ATOM     26  H   UNL     1     149.079 165.995 195.090  0.00  0.00    +0.023 HD
ATOM     27  H   UNL     1     149.653 165.959 196.753  0.00  0.00    +0.023 HD
ENDBRANCH  22  24
BRANCH  22  28
ATOM     28  C   UNL     1     151.456 164.385 195.807  0.00  0.00    -0.059 C 
ATOM     29  H   UNL     1     151.531 164.400 196.900  0.00  0.00    +0.023 HD
ATOM     30  H   UNL     1     152.383 163.944 195.431  0.00  0.00    +0.023 HD
ATOM     31  H   UNL     1     150.622 163.728 195.533  0.00  0.00    +0.023 HD
ENDBRANCH  22  28
ENDBRANCH  20  22
BRANCH  20  32
ATOM     32  O   UNL     1     150.038 165.671 193.148  0.00  0.00    -0.461 OA
BRANCH  32  33
ATOM     33  C   UNL     1     149.763 164.459 192.594  0.00  0.00    +0.307 C 
ATOM     34  O   UNL     1     148.679 163.893 192.603  0.00  0.00    -0.251 OA
BRANCH  33  35
ATOM     35  C   UNL     1     151.007 163.876 191.974  0.00  0.00    +0.046 C 
ATOM     36  H   UNL     1     151.397 163.092 192.636  0.00  0.00    +0.038 HD
ATOM     37  H   UNL     1     151.777 164.654 191.939  0.00  0.00    +0.038 HD
BRANCH  35  38
ATOM     38  C   UNL     1     150.726 163.297 190.592  0.00  0.00    -0.031 C 
ATOM     39  H   UNL     1     151.429 163.715 189.860  0.00  0.00    +0.028 HD
ATOM     40  H   UNL     1     149.719 163.607 190.285  0.00  0.00    +0.028 HD
BRANCH  38  41
ATOM     41  C   UNL     1     150.809 161.769 190.570  0.00  0.00    -0.006 C 
ATOM     42  H   UNL     1     151.738 161.435 191.043  0.00  0.00    +0.042 HD
ATOM     43  H   UNL     1     150.801 161.385 189.546  0.00  0.00    +0.042 HD
BRANCH  41  44
ATOM     44  N   UNL     1     149.676 161.203 191.297  0.00  0.00    -0.330 NA
ATOM     45  H   UNL     1     149.613 160.201 191.122  0.00  0.00    +0.118 HD
ATOM     46  H   UNL     1     149.838 161.305 192.299  0.00  0.00    +0.118 HD
ENDBRANCH  41  44
ENDBRANCH  38  41
ENDBRANCH  35  38
ENDBRANCH  33  35
ENDBRANCH  32  33
ENDBRANCH  20  32
ENDBRANCH  17  20
ENDBRANCH  15  17
BRANCH  15  47
ATOM     47  O   UNL     1     152.068 167.697 190.881  0.00  0.00    -0.379 OA
BRANCH  47  48
ATOM     48  C   UNL     1     151.650 166.882 189.795  0.00  0.00    +0.037 C 
ATOM     49  H   UNL     1     152.173 165.922 189.819  0.00  0.00    +0.052 HD
ATOM     50  H   UNL     1     151.912 167.395 188.866  0.00  0.00    +0.052 HD
ATOM     51  H   UNL     1     150.570 166.722 189.808  0.00  0.00    +0.052 HD
ENDBRANCH  47  48
ENDBRANCH  15  47
ENDBRANCH   9  15
ENDBRANCH   6   9
ENDBRANCH   3   6
ENDBRANCH   1   3
BRANCH   1  52
ATOM     52  C   UNL     1     147.380 169.043 189.113  0.00  0.00    +0.020 C 
ATOM     53  H   UNL     1     148.473 168.934 189.117  0.00  0.00    +0.036 HD
BRANCH  52  54
ATOM     54  C   UNL     1     146.984 169.951 187.943  0.00  0.00    -0.057 C 
ATOM     55  H   UNL     1     147.381 170.963 188.064  0.00  0.00    +0.023 HD
ATOM     56  H   UNL     1     145.897 170.028 187.843  0.00  0.00    +0.023 HD
ATOM     57  H   UNL     1     147.391 169.585 186.998  0.00  0.00    +0.023 HD
ENDBRANCH  52  54
BRANCH  52  58
ATOM     58  C   UNL     1     146.756 167.615 189.018  0.00  0.00    +0.070 C 
ATOM     59  H   UNL     1     146.905 167.247 187.994  0.00  0.00    +0.061 HD
BRANCH  58  60
ATOM     60  C   UNL     1     147.262 166.527 190.013  0.00  0.00    +0.002 C 
ATOM     61  H   UNL     1     148.040 166.998 190.632  0.00  0.00    +0.037 HD
BRANCH  60  62
ATOM     62  C   UNL     1     146.184 166.043 190.961  0.00  0.00    -0.065 C 
ATOM     63  C   UNL     1     146.056 166.513 192.212  0.00  0.00    -0.005 C 
ATOM     64  H   UNL     1     145.506 165.287 190.581  0.00  0.00    +0.059 HD
ATOM     65  H   UNL     1     146.756 167.272 192.565  0.00  0.00    +0.078 HD
BRANCH  63  66
ATOM     66  N   UNL     1     145.094 166.141 193.142  0.00  0.00    -0.281 N 
ATOM     67  C   UNL     1     145.503 165.618 194.371  0.00  0.00    +0.206 C 
ATOM     68  O   UNL     1     146.657 165.440 194.747  0.00  0.00    -0.279 OA
ATOM     69  H   UNL     1     144.652 165.372 195.029  0.00  0.00    +0.126 HD
BRANCH  66  70
ATOM     70  C   UNL     1     143.662 166.310 192.904  0.00  0.00    +0.016 C 
ATOM     71  H   UNL     1     143.489 166.679 191.887  0.00  0.00    +0.047 HD
ATOM     72  H   UNL     1     143.175 165.329 192.958  0.00  0.00    +0.047 HD
BRANCH  70  73
ATOM     73  C   UNL     1     143.018 167.223 193.939  0.00  0.00    -0.049 C 
ATOM     74  H   UNL     1     142.633 166.634 194.777  0.00  0.00    +0.024 HD
ATOM     75  H   UNL     1     143.746 167.942 194.331  0.00  0.00    +0.024 HD
ATOM     76  H   UNL     1     142.186 167.791 193.509  0.00  0.00    +0.024 HD
ENDBRANCH  70  73
ENDBRANCH  66  70
ENDBRANCH  63  66
ENDBRANCH  60  62
BRANCH  60  77
ATOM     77  C   UNL     1     147.977 165.357 189.333  0.00  0.00    -0.057 C 
ATOM     78  H   UNL     1     148.750 165.686 188.634  0.00  0.00    +0.024 HD
ATOM     79  H   UNL     1     147.265 164.747 188.765  0.00  0.00    +0.024 HD
ATOM     80  H   UNL     1     148.450 164.705 190.074  0.00  0.00    +0.024 HD
ENDBRANCH  60  77
ENDBRANCH  58  60
BRANCH  58  81
ATOM     81  O   UNL     1     145.340 167.783 189.251  0.00  0.00    -0.379 OA
BRANCH  81  82
ATOM     82  C   UNL     1     144.536 167.348 188.159  0.00  0.00    +0.037 C 
ATOM     83  H   UNL     1     143.503 167.181 188.474  0.00  0.00    +0.052 HD
ATOM     84  H   UNL     1     144.945 166.434 187.721  0.00  0.00    +0.052 HD
ATOM     85  H   UNL     1     144.546 168.131 187.396  0.00  0.00    +0.052 HD
ENDBRANCH  81  82
ENDBRANCH  58  81
ENDBRANCH  52  58
ENDBRANCH   1  52
BRANCH   1  86
ATOM     86  O   UNL     1     146.934 171.123 190.302  0.00  0.00    -0.459 OA
BRANCH  86  88
ATOM     87  O   UNL     1     144.946 171.470 191.401  0.00  0.00    -0.248 OA
ATOM     88  C   UNL     1     146.068 171.835 191.079  0.00  0.00    +0.337 C 
BRANCH  88  89
ATOM     89  C   UNL     1     146.723 173.170 191.472  0.00  0.00    +0.155 C 
ATOM     90  O   UNL     1     148.076 173.275 191.010  0.00  0.00    -0.365 OA
ATOM     91  C   UNL     1     148.964 173.039 192.112  0.00  0.00    +0.049 C 
ATOM     92  C   UNL     1     148.112 172.663 193.306  0.00  0.00    -0.027 C 
ATOM     93  C   UNL     1     146.796 173.328 192.983  0.00  0.00    -0.014 C 
ATOM     94  H   UNL     1     146.140 173.971 191.003  0.00  0.00    +0.071 HD
ATOM     95  H   UNL     1     149.678 172.255 191.845  0.00  0.00    +0.056 HD
ATOM     96  H   UNL     1     149.518 173.965 192.298  0.00  0.00    +0.056 HD
ATOM     97  H   UNL     1     147.983 171.574 193.345  0.00  0.00    +0.029 HD
ATOM     98  H   UNL     1     148.546 172.985 194.257  0.00  0.00    +0.029 HD
ATOM     99  H   UNL     1     146.856 174.392 193.240  0.00  0.00    +0.030 HD
ATOM    100  H   UNL     1     145.957 172.893 193.532  0.00  0.00    +0.030 HD
ENDBRANCH  88  89
ENDBRANCH  86  88
ENDBRANCH   1  86
TORSDOF 32
ENDMDL
MODEL 6
REMARK VINA RESULT:      -5.0      1.990      3.147
REMARK  Name = 2a_conf2
REMARK  32 active torsions:
REMARK  status: ('A' for Active; 'I' for Inactive)
REMARK    1  A    between atoms: C_2  and  C_3
REMARK    2  A    between atoms: C_2  and  O_8
REMARK    3  A    between atoms: O_8  and  C_9
REMARK    4  A    between atoms: C_9  and  C_10
REMARK    5  A    between atoms: C_9  and  C_29
REMARK    6  A    between atoms: C_10  and  C_11
REMARK    7  A    between atoms: C_11  and  C_12
REMARK    8  A    between atoms: C_12  and  C_13
REMARK    9  A    between atoms: C_12  and  C_14
REMARK   10  A    between atoms: C_14  and  O_15
REMARK   11  A    between atoms: C_14  and  C_17
REMARK   12  A    between atoms: O_15  and  C_16
REMARK   13  A    between atoms: C_17  and  C_18
REMARK   14  A    between atoms: C_18  and  O_19
REMARK   15  A    between atoms: C_18  and  C_26
REMARK   16  A    between atoms: O_19  and  C_20
REMARK   17  A    between atoms: C_20  and  C_21
REMARK   18  A    between atoms: C_21  and  C_22
REMARK   19  A    between atoms: C_22  and  C_23
REMARK   20  A    between atoms: C_23  and  N_24
REMARK   21  A    between atoms: C_26  and  C_27
REMARK   22  A    between atoms: C_26  and  C_28
REMARK   23  A    between atoms: C_29  and  C_30
REMARK   24  A    between atoms: C_29  and  C_31
REMARK   25  A    between atoms: C_31  and  O_32
REMARK   26  A    between atoms: C_31  and  C_34
REMARK   27  A    between atoms: O_32  and  C_33
REMARK   28  A    between atoms: C_34  and  C_35
REMARK   29  A    between atoms: C_34  and  C_36
REMARK   30  A    between atoms: C_37  and  N_38
REMARK   31  A    between atoms: N_38  and  C_39
REMARK   32  A    between atoms: C_39  and  C_40
REMARK                            x       y       z     vdW  Elec       q    Type
REMARK                         _______ _______ _______ _____ _____    ______ ____
ROOT
ATOM      1  C   UNL     1     149.579 165.607 191.060  0.00  0.00    +0.108 C 
ATOM      2  H   UNL     1     149.030 164.660 191.023  0.00  0.00    +0.074 HD
ENDROOT
BRANCH   1   3
ATOM      3  C   UNL     1     150.727 165.527 190.035  0.00  0.00    -0.015 C 
ATOM      4  H   UNL     1     150.546 166.253 189.236  0.00  0.00    +0.030 HD
ATOM      5  H   UNL     1     150.759 164.524 189.593  0.00  0.00    +0.030 HD
BRANCH   3   6
ATOM      6  C   UNL     1     152.087 165.835 190.677  0.00  0.00    -0.045 C 
ATOM      7  H   UNL     1     151.940 166.355 191.631  0.00  0.00    +0.027 HD
ATOM      8  H   UNL     1     152.568 164.879 190.927  0.00  0.00    +0.027 HD
BRANCH   6   9
ATOM      9  C   UNL     1     153.054 166.640 189.780  0.00  0.00    -0.017 C 
ATOM     10  H   UNL     1     153.566 167.356 190.436  0.00  0.00    +0.032 HD
BRANCH   9  11
ATOM     11  C   UNL     1     152.235 167.467 188.780  0.00  0.00    -0.060 C 
ATOM     12  H   UNL     1     152.673 168.464 188.654  0.00  0.00    +0.023 HD
ATOM     13  H   UNL     1     151.201 167.600 189.115  0.00  0.00    +0.023 HD
ATOM     14  H   UNL     1     152.219 166.987 187.795  0.00  0.00    +0.023 HD
ENDBRANCH   9  11
BRANCH   9  15
ATOM     15  C   UNL     1     154.139 165.806 189.040  0.00  0.00    +0.064 C 
ATOM     16  H   UNL     1     153.937 165.860 187.962  0.00  0.00    +0.060 HD
BRANCH  15  17
ATOM     17  C   UNL     1     154.162 164.324 189.462  0.00  0.00    +0.011 C 
ATOM     18  H   UNL     1     155.193 164.038 189.694  0.00  0.00    +0.033 HD
ATOM     19  H   UNL     1     153.560 164.193 190.368  0.00  0.00    +0.033 HD
BRANCH  17  20
ATOM     20  C   UNL     1     153.625 163.375 188.371  0.00  0.00    +0.108 C 
ATOM     21  H   UNL     1     154.474 162.903 187.861  0.00  0.00    +0.074 HD
BRANCH  20  22
ATOM     22  C   UNL     1     152.700 162.275 188.959  0.00  0.00    -0.009 C 
ATOM     23  H   UNL     1     151.661 162.523 188.705  0.00  0.00    +0.033 HD
BRANCH  22  24
ATOM     24  C   UNL     1     152.987 160.900 188.337  0.00  0.00    -0.059 C 
ATOM     25  H   UNL     1     152.416 160.112 188.840  0.00  0.00    +0.023 HD
ATOM     26  H   UNL     1     152.717 160.889 187.276  0.00  0.00    +0.023 HD
ATOM     27  H   UNL     1     154.050 160.646 188.397  0.00  0.00    +0.023 HD
ENDBRANCH  22  24
BRANCH  22  28
ATOM     28  C   UNL     1     152.814 162.166 190.482  0.00  0.00    -0.059 C 
ATOM     29  H   UNL     1     152.354 161.239 190.840  0.00  0.00    +0.023 HD
ATOM     30  H   UNL     1     152.298 162.991 190.983  0.00  0.00    +0.023 HD
ATOM     31  H   UNL     1     153.864 162.169 190.799  0.00  0.00    +0.023 HD
ENDBRANCH  22  28
ENDBRANCH  20  22
BRANCH  20  32
ATOM     32  O   UNL     1     152.848 164.182 187.454  0.00  0.00    -0.461 OA
BRANCH  32  33
ATOM     33  C   UNL     1     152.979 163.919 186.125  0.00  0.00    +0.307 C 
ATOM     34  O   UNL     1     152.207 163.261 185.443  0.00  0.00    -0.251 OA
BRANCH  33  35
ATOM     35  C   UNL     1     154.248 164.537 185.595  0.00  0.00    +0.046 C 
ATOM     36  H   UNL     1     154.541 164.009 184.679  0.00  0.00    +0.038 HD
ATOM     37  H   UNL     1     155.052 164.359 186.318  0.00  0.00    +0.038 HD
BRANCH  35  38
ATOM     38  C   UNL     1     154.068 166.023 185.304  0.00  0.00    -0.031 C 
ATOM     39  H   UNL     1     153.224 166.419 185.884  0.00  0.00    +0.028 HD
ATOM     40  H   UNL     1     153.812 166.139 184.243  0.00  0.00    +0.028 HD
BRANCH  38  41
ATOM     41  C   UNL     1     155.328 166.835 185.609  0.00  0.00    -0.006 C 
ATOM     42  H   UNL     1     155.749 167.240 184.683  0.00  0.00    +0.042 HD
ATOM     43  H   UNL     1     156.096 166.215 186.081  0.00  0.00    +0.042 HD
BRANCH  41  44
ATOM     44  N   UNL     1     154.997 167.941 186.503  0.00  0.00    -0.330 NA
ATOM     45  H   UNL     1     155.707 168.670 186.436  0.00  0.00    +0.118 HD
ATOM     46  H   UNL     1     154.124 168.370 186.196  0.00  0.00    +0.118 HD
ENDBRANCH  41  44
ENDBRANCH  38  41
ENDBRANCH  35  38
ENDBRANCH  33  35
ENDBRANCH  32  33
ENDBRANCH  20  32
ENDBRANCH  17  20
ENDBRANCH  15  17
BRANCH  15  47
ATOM     47  O   UNL     1     155.447 166.337 189.290  0.00  0.00    -0.379 OA
BRANCH  47  48
ATOM     48  C   UNL     1     156.499 165.474 188.882  0.00  0.00    +0.037 C 
ATOM     49  H   UNL     1     157.420 166.044 188.729  0.00  0.00    +0.052 HD
ATOM     50  H   UNL     1     156.214 165.017 187.931  0.00  0.00    +0.052 HD
ATOM     51  H   UNL     1     156.668 164.678 189.610  0.00  0.00    +0.052 HD
ENDBRANCH  47  48
ENDBRANCH  15  47
ENDBRANCH   9  15
ENDBRANCH   6   9
ENDBRANCH   3   6
ENDBRANCH   1   3
BRANCH   1  52
ATOM     52  C   UNL     1     148.591 166.783 190.765  0.00  0.00    +0.020 C 
ATOM     53  H   UNL     1     147.576 166.378 190.869  0.00  0.00    +0.036 HD
BRANCH  52  54
ATOM     54  C   UNL     1     148.766 167.301 189.332  0.00  0.00    -0.057 C 
ATOM     55  H   UNL     1     149.801 167.212 188.994  0.00  0.00    +0.023 HD
ATOM     56  H   UNL     1     148.475 168.352 189.246  0.00  0.00    +0.023 HD
ATOM     57  H   UNL     1     148.172 166.720 188.623  0.00  0.00    +0.023 HD
ENDBRANCH  52  54
BRANCH  52  58
ATOM     58  C   UNL     1     148.778 167.895 191.845  0.00  0.00    +0.070 C 
ATOM     59  H   UNL     1     149.350 167.465 192.679  0.00  0.00    +0.061 HD
BRANCH  58  60
ATOM     60  C   UNL     1     149.458 169.229 191.413  0.00  0.00    +0.002 C 
ATOM     61  H   UNL     1     149.462 169.244 190.314  0.00  0.00    +0.037 HD
BRANCH  60  62
ATOM     62  C   UNL     1     148.694 170.457 191.864  0.00  0.00    -0.065 C 
ATOM     63  C   UNL     1     148.927 171.679 191.359  0.00  0.00    -0.005 C 
ATOM     64  H   UNL     1     147.937 170.306 192.624  0.00  0.00    +0.059 HD
ATOM     65  H   UNL     1     149.698 171.798 190.597  0.00  0.00    +0.078 HD
BRANCH  63  66
ATOM     66  N   UNL     1     148.270 172.855 191.699  0.00  0.00    -0.281 N 
ATOM     67  C   UNL     1     147.188 173.279 190.925  0.00  0.00    +0.206 C 
ATOM     68  O   UNL     1     146.726 172.715 189.938  0.00  0.00    -0.279 OA
ATOM     69  H   UNL     1     146.743 174.215 191.299  0.00  0.00    +0.126 HD
BRANCH  66  70
ATOM     70  C   UNL     1     148.641 173.654 192.865  0.00  0.00    +0.016 C 
ATOM     71  H   UNL     1     149.586 173.292 193.287  0.00  0.00    +0.047 HD
ATOM     72  H   UNL     1     148.827 174.686 192.543  0.00  0.00    +0.047 HD
BRANCH  70  73
ATOM     73  C   UNL     1     147.540 173.671 193.916  0.00  0.00    -0.049 C 
ATOM     74  H   UNL     1     146.715 173.018 193.611  0.00  0.00    +0.024 HD
ATOM     75  H   UNL     1     147.917 173.317 194.882  0.00  0.00    +0.024 HD
ATOM     76  H   UNL     1     147.141 174.680 194.063  0.00  0.00    +0.024 HD
ENDBRANCH  70  73
ENDBRANCH  66  70
ENDBRANCH  63  66
ENDBRANCH  60  62
BRANCH  60  77
ATOM     77  C   UNL     1     150.937 169.317 191.798  0.00  0.00    -0.057 C 
ATOM     78  H   UNL     1     151.237 170.327 192.085  0.00  0.00    +0.024 HD
ATOM     79  H   UNL     1     151.573 169.017 190.956  0.00  0.00    +0.024 HD
ATOM     80  H   UNL     1     151.164 168.648 192.634  0.00  0.00    +0.024 HD
ENDBRANCH  60  77
ENDBRANCH  58  60
BRANCH  58  81
ATOM     81  O   UNL     1     147.450 168.223 192.312  0.00  0.00    -0.379 OA
BRANCH  81  82
ATOM     82  C   UNL     1     146.522 167.153 192.163  0.00  0.00    +0.037 C 
ATOM     83  H   UNL     1     145.707 167.235 192.887  0.00  0.00    +0.052 HD
ATOM     84  H   UNL     1     147.025 166.189 192.277  0.00  0.00    +0.052 HD
ATOM     85  H   UNL     1     146.100 167.206 191.156  0.00  0.00    +0.052 HD
ENDBRANCH  81  82
ENDBRANCH  58  81
ENDBRANCH  52  58
ENDBRANCH   1  52
BRANCH   1  86
ATOM     86  O   UNL     1     150.163 165.831 192.366  0.00  0.00    -0.459 OA
BRANCH  86  88
ATOM     87  O   UNL     1     148.667 164.584 193.585  0.00  0.00    -0.248 OA
ATOM     88  C   UNL     1     149.801 164.995 193.381  0.00  0.00    +0.337 C 
BRANCH  88  89
ATOM     89  C   UNL     1     151.040 164.666 194.230  0.00  0.00    +0.155 C 
ATOM     90  O   UNL     1     150.724 163.861 195.375  0.00  0.00    -0.365 OA
ATOM     91  C   UNL     1     150.710 164.696 196.541  0.00  0.00    +0.049 C 
ATOM     92  C   UNL     1     150.930 166.122 196.079  0.00  0.00    -0.027 C 
ATOM     93  C   UNL     1     151.683 165.927 194.786  0.00  0.00    -0.014 C 
ATOM     94  H   UNL     1     151.730 164.097 193.596  0.00  0.00    +0.071 HD
ATOM     95  H   UNL     1     149.762 164.570 197.071  0.00  0.00    +0.056 HD
ATOM     96  H   UNL     1     151.523 164.365 197.198  0.00  0.00    +0.056 HD
ATOM     97  H   UNL     1     149.964 166.603 195.883  0.00  0.00    +0.029 HD
ATOM     98  H   UNL     1     151.466 166.729 196.813  0.00  0.00    +0.029 HD
ATOM     99  H   UNL     1     152.740 165.735 195.008  0.00  0.00    +0.030 HD
ATOM    100  H   UNL     1     151.626 166.799 194.129  0.00  0.00    +0.030 HD
ENDBRANCH  88  89
ENDBRANCH  86  88
ENDBRANCH   1  86
TORSDOF 32
ENDMDL
MODEL 7
REMARK VINA RESULT:      -4.9      2.024      3.326
REMARK  Name = 2a_conf2
REMARK  32 active torsions:
REMARK  status: ('A' for Active; 'I' for Inactive)
REMARK    1  A    between atoms: C_2  and  C_3
REMARK    2  A    between atoms: C_2  and  O_8
REMARK    3  A    between atoms: O_8  and  C_9
REMARK    4  A    between atoms: C_9  and  C_10
REMARK    5  A    between atoms: C_9  and  C_29
REMARK    6  A    between atoms: C_10  and  C_11
REMARK    7  A    between atoms: C_11  and  C_12
REMARK    8  A    between atoms: C_12  and  C_13
REMARK    9  A    between atoms: C_12  and  C_14
REMARK   10  A    between atoms: C_14  and  O_15
REMARK   11  A    between atoms: C_14  and  C_17
REMARK   12  A    between atoms: O_15  and  C_16
REMARK   13  A    between atoms: C_17  and  C_18
REMARK   14  A    between atoms: C_18  and  O_19
REMARK   15  A    between atoms: C_18  and  C_26
REMARK   16  A    between atoms: O_19  and  C_20
REMARK   17  A    between atoms: C_20  and  C_21
REMARK   18  A    between atoms: C_21  and  C_22
REMARK   19  A    between atoms: C_22  and  C_23
REMARK   20  A    between atoms: C_23  and  N_24
REMARK   21  A    between atoms: C_26  and  C_27
REMARK   22  A    between atoms: C_26  and  C_28
REMARK   23  A    between atoms: C_29  and  C_30
REMARK   24  A    between atoms: C_29  and  C_31
REMARK   25  A    between atoms: C_31  and  O_32
REMARK   26  A    between atoms: C_31  and  C_34
REMARK   27  A    between atoms: O_32  and  C_33
REMARK   28  A    between atoms: C_34  and  C_35
REMARK   29  A    between atoms: C_34  and  C_36
REMARK   30  A    between atoms: C_37  and  N_38
REMARK   31  A    between atoms: N_38  and  C_39
REMARK   32  A    between atoms: C_39  and  C_40
REMARK                            x       y       z     vdW  Elec       q    Type
REMARK                         _______ _______ _______ _____ _____    ______ ____
ROOT
ATOM      1  C   UNL     1     149.813 165.835 191.132  0.00  0.00    +0.108 C 
ATOM      2  H   UNL     1     149.286 164.905 190.890  0.00  0.00    +0.074 HD
ENDROOT
BRANCH   1   3
ATOM      3  C   UNL     1     150.932 166.028 190.091  0.00  0.00    -0.015 C 
ATOM      4  H   UNL     1     151.220 167.083 190.064  0.00  0.00    +0.030 HD
ATOM      5  H   UNL     1     150.568 165.740 189.098  0.00  0.00    +0.030 HD
BRANCH   3   6
ATOM      6  C   UNL     1     152.174 165.191 190.430  0.00  0.00    -0.045 C 
ATOM      7  H   UNL     1     152.989 165.847 190.759  0.00  0.00    +0.027 HD
ATOM      8  H   UNL     1     151.931 164.558 191.294  0.00  0.00    +0.027 HD
BRANCH   6   9
ATOM      9  C   UNL     1     152.663 164.275 189.286  0.00  0.00    -0.017 C 
ATOM     10  H   UNL     1     153.248 164.908 188.606  0.00  0.00    +0.032 HD
BRANCH   9  11
ATOM     11  C   UNL     1     151.448 163.780 188.489  0.00  0.00    -0.060 C 
ATOM     12  H   UNL     1     151.072 164.570 187.829  0.00  0.00    +0.023 HD
ATOM     13  H   UNL     1     150.627 163.481 189.148  0.00  0.00    +0.023 HD
ATOM     14  H   UNL     1     151.714 162.924 187.860  0.00  0.00    +0.023 HD
ENDBRANCH   9  11
BRANCH   9  15
ATOM     15  C   UNL     1     153.559 163.077 189.716  0.00  0.00    +0.064 C 
ATOM     16  H   UNL     1     153.800 163.194 190.781  0.00  0.00    +0.060 HD
BRANCH  15  17
ATOM     17  C   UNL     1     154.875 162.985 188.920  0.00  0.00    +0.011 C 
ATOM     18  H   UNL     1     155.686 162.719 189.607  0.00  0.00    +0.033 HD
ATOM     19  H   UNL     1     154.792 162.193 188.168  0.00  0.00    +0.033 HD
BRANCH  17  20
ATOM     20  C   UNL     1     155.248 164.303 188.212  0.00  0.00    +0.108 C 
ATOM     21  H   UNL     1     154.434 165.026 188.354  0.00  0.00    +0.074 HD
BRANCH  20  22
ATOM     22  C   UNL     1     156.571 164.905 188.758  0.00  0.00    -0.009 C 
ATOM     23  H   UNL     1     157.188 165.219 187.905  0.00  0.00    +0.033 HD
BRANCH  22  24
ATOM     24  C   UNL     1     156.318 166.161 189.603  0.00  0.00    -0.059 C 
ATOM     25  H   UNL     1     156.612 167.067 189.061  0.00  0.00    +0.023 HD
ATOM     26  H   UNL     1     155.257 166.250 189.861  0.00  0.00    +0.023 HD
ATOM     27  H   UNL     1     156.873 166.130 190.546  0.00  0.00    +0.023 HD
ENDBRANCH  22  24
BRANCH  22  28
ATOM     28  C   UNL     1     157.373 163.898 189.590  0.00  0.00    -0.059 C 
ATOM     29  H   UNL     1     158.271 163.578 189.050  0.00  0.00    +0.023 HD
ATOM     30  H   UNL     1     156.790 162.997 189.799  0.00  0.00    +0.023 HD
ATOM     31  H   UNL     1     157.687 164.338 190.543  0.00  0.00    +0.023 HD
ENDBRANCH  22  28
ENDBRANCH  20  22
BRANCH  20  32
ATOM     32  O   UNL     1     155.432 163.993 186.810  0.00  0.00    -0.461 OA
BRANCH  32  33
ATOM     33  C   UNL     1     154.322 163.976 186.023  0.00  0.00    +0.307 C 
ATOM     34  O   UNL     1     153.834 162.991 185.489  0.00  0.00    -0.251 OA
BRANCH  33  35
ATOM     35  C   UNL     1     153.772 165.371 185.870  0.00  0.00    +0.046 C 
ATOM     36  H   UNL     1     153.696 165.831 186.863  0.00  0.00    +0.038 HD
ATOM     37  H   UNL     1     152.747 165.303 185.487  0.00  0.00    +0.038 HD
BRANCH  35  38
ATOM     38  C   UNL     1     154.656 166.226 184.967  0.00  0.00    -0.031 C 
ATOM     39  H   UNL     1     154.075 166.588 184.109  0.00  0.00    +0.028 HD
ATOM     40  H   UNL     1     155.458 165.592 184.568  0.00  0.00    +0.028 HD
BRANCH  38  41
ATOM     41  C   UNL     1     155.274 167.413 185.709  0.00  0.00    -0.006 C 
ATOM     42  H   UNL     1     155.267 168.302 185.070  0.00  0.00    +0.042 HD
ATOM     43  H   UNL     1     156.312 167.211 185.987  0.00  0.00    +0.042 HD
BRANCH  41  44
ATOM     44  N   UNL     1     154.505 167.693 186.918  0.00  0.00    -0.330 NA
ATOM     45  H   UNL     1     153.827 166.949 187.082  0.00  0.00    +0.118 HD
ATOM     46  H   UNL     1     155.133 167.683 187.723  0.00  0.00    +0.118 HD
ENDBRANCH  41  44
ENDBRANCH  38  41
ENDBRANCH  35  38
ENDBRANCH  33  35
ENDBRANCH  32  33
ENDBRANCH  20  32
ENDBRANCH  17  20
ENDBRANCH  15  17
BRANCH  15  47
ATOM     47  O   UNL     1     152.866 161.834 189.535  0.00  0.00    -0.379 OA
BRANCH  47  48
ATOM     48  C   UNL     1     153.695 160.787 189.050  0.00  0.00    +0.037 C 
ATOM     49  H   UNL     1     154.164 160.259 189.884  0.00  0.00    +0.052 HD
ATOM     50  H   UNL     1     154.482 161.234 188.437  0.00  0.00    +0.052 HD
ATOM     51  H   UNL     1     153.132 160.086 188.431  0.00  0.00    +0.052 HD
ENDBRANCH  47  48
ENDBRANCH  15  47
ENDBRANCH   9  15
ENDBRANCH   6   9
ENDBRANCH   3   6
ENDBRANCH   1   3
BRANCH   1  52
ATOM     52  C   UNL     1     148.788 167.016 191.137  0.00  0.00    +0.020 C 
ATOM     53  H   UNL     1     147.833 166.606 191.493  0.00  0.00    +0.036 HD
BRANCH  52  54
ATOM     54  C   UNL     1     148.584 167.573 189.724  0.00  0.00    -0.057 C 
ATOM     55  H   UNL     1     148.298 168.628 189.743  0.00  0.00    +0.023 HD
ATOM     56  H   UNL     1     147.805 167.026 189.184  0.00  0.00    +0.023 HD
ATOM     57  H   UNL     1     149.505 167.527 189.140  0.00  0.00    +0.023 HD
ENDBRANCH  52  54
BRANCH  52  58
ATOM     58  C   UNL     1     149.256 168.098 192.161  0.00  0.00    +0.070 C 
ATOM     59  H   UNL     1     149.975 167.629 192.846  0.00  0.00    +0.061 HD
BRANCH  58  60
ATOM     60  C   UNL     1     149.888 169.409 191.603  0.00  0.00    +0.002 C 
ATOM     61  H   UNL     1     149.718 169.408 190.516  0.00  0.00    +0.037 HD
BRANCH  60  62
ATOM     62  C   UNL     1     149.230 170.662 192.146  0.00  0.00    -0.065 C 
ATOM     63  C   UNL     1     148.902 171.703 191.364  0.00  0.00    -0.005 C 
ATOM     64  H   UNL     1     149.030 170.684 193.211  0.00  0.00    +0.059 HD
ATOM     65  H   UNL     1     149.119 171.651 190.296  0.00  0.00    +0.078 HD
BRANCH  63  66
ATOM     66  N   UNL     1     148.287 172.881 191.768  0.00  0.00    -0.281 N 
ATOM     67  C   UNL     1     147.252 173.410 190.993  0.00  0.00    +0.206 C 
ATOM     68  O   UNL     1     146.800 172.940 189.954  0.00  0.00    -0.279 OA
ATOM     69  H   UNL     1     146.836 174.337 191.421  0.00  0.00    +0.126 HD
BRANCH  66  70
ATOM     70  C   UNL     1     148.652 173.576 193.001  0.00  0.00    +0.016 C 
ATOM     71  H   UNL     1     149.483 173.059 193.495  0.00  0.00    +0.047 HD
ATOM     72  H   UNL     1     149.026 174.576 192.746  0.00  0.00    +0.047 HD
BRANCH  70  73
ATOM     73  C   UNL     1     147.464 173.732 193.939  0.00  0.00    -0.049 C 
ATOM     74  H   UNL     1     147.622 174.581 194.612  0.00  0.00    +0.024 HD
ATOM     75  H   UNL     1     146.542 173.909 193.375  0.00  0.00    +0.024 HD
ATOM     76  H   UNL     1     147.315 172.835 194.549  0.00  0.00    +0.024 HD
ENDBRANCH  70  73
ENDBRANCH  66  70
ENDBRANCH  63  66
ENDBRANCH  60  62
BRANCH  60  77
ATOM     77  C   UNL     1     151.411 169.468 191.747  0.00  0.00    -0.057 C 
ATOM     78  H   UNL     1     151.867 170.208 191.086  0.00  0.00    +0.024 HD
ATOM     79  H   UNL     1     151.859 168.497 191.505  0.00  0.00    +0.024 HD
ATOM     80  H   UNL     1     151.696 169.714 192.775  0.00  0.00    +0.024 HD
ENDBRANCH  60  77
ENDBRANCH  58  60
BRANCH  58  81
ATOM     81  O   UNL     1     148.079 168.475 192.909  0.00  0.00    -0.379 OA
BRANCH  81  82
ATOM     82  C   UNL     1     147.625 167.453 193.792  0.00  0.00    +0.037 C 
ATOM     83  H   UNL     1     146.589 167.178 193.574  0.00  0.00    +0.052 HD
ATOM     84  H   UNL     1     147.714 167.777 194.832  0.00  0.00    +0.052 HD
ATOM     85  H   UNL     1     148.257 166.573 193.649  0.00  0.00    +0.052 HD
ENDBRANCH  81  82
ENDBRANCH  58  81
ENDBRANCH  52  58
ENDBRANCH   1  52
BRANCH   1  86
ATOM     86  O   UNL     1     150.427 165.770 192.441  0.00  0.00    -0.459 OA
BRANCH  86  88
ATOM     87  O   UNL     1     149.096 164.029 193.132  0.00  0.00    -0.248 OA
ATOM     88  C   UNL     1     150.092 164.728 193.256  0.00  0.00    +0.337 C 
BRANCH  88  89
ATOM     89  C   UNL     1     151.157 164.583 194.355  0.00  0.00    +0.155 C 
ATOM     90  O   UNL     1     150.663 163.896 195.513  0.00  0.00    -0.365 OA
ATOM     91  C   UNL     1     150.387 164.857 196.542  0.00  0.00    +0.049 C 
ATOM     92  C   UNL     1     150.627 166.231 195.953  0.00  0.00    -0.027 C 
ATOM     93  C   UNL     1     151.624 165.941 194.857  0.00  0.00    -0.014 C 
ATOM     94  H   UNL     1     151.982 163.994 193.937  0.00  0.00    +0.071 HD
ATOM     95  H   UNL     1     149.361 164.729 196.897  0.00  0.00    +0.056 HD
ATOM     96  H   UNL     1     151.071 164.659 197.375  0.00  0.00    +0.056 HD
ATOM     97  H   UNL     1     149.697 166.620 195.521  0.00  0.00    +0.029 HD
ATOM     98  H   UNL     1     150.984 166.955 196.692  0.00  0.00    +0.029 HD
ATOM     99  H   UNL     1     152.625 165.849 195.295  0.00  0.00    +0.030 HD
ATOM    100  H   UNL     1     151.656 166.726 194.097  0.00  0.00    +0.030 HD
ENDBRANCH  88  89
ENDBRANCH  86  88
ENDBRANCH   1  86
TORSDOF 32
ENDMDL
MODEL 8
REMARK VINA RESULT:      -4.9      2.666      7.906
REMARK  Name = 2a_conf2
REMARK  32 active torsions:
REMARK  status: ('A' for Active; 'I' for Inactive)
REMARK    1  A    between atoms: C_2  and  C_3
REMARK    2  A    between atoms: C_2  and  O_8
REMARK    3  A    between atoms: O_8  and  C_9
REMARK    4  A    between atoms: C_9  and  C_10
REMARK    5  A    between atoms: C_9  and  C_29
REMARK    6  A    between atoms: C_10  and  C_11
REMARK    7  A    between atoms: C_11  and  C_12
REMARK    8  A    between atoms: C_12  and  C_13
REMARK    9  A    between atoms: C_12  and  C_14
REMARK   10  A    between atoms: C_14  and  O_15
REMARK   11  A    between atoms: C_14  and  C_17
REMARK   12  A    between atoms: O_15  and  C_16
REMARK   13  A    between atoms: C_17  and  C_18
REMARK   14  A    between atoms: C_18  and  O_19
REMARK   15  A    between atoms: C_18  and  C_26
REMARK   16  A    between atoms: O_19  and  C_20
REMARK   17  A    between atoms: C_20  and  C_21
REMARK   18  A    between atoms: C_21  and  C_22
REMARK   19  A    between atoms: C_22  and  C_23
REMARK   20  A    between atoms: C_23  and  N_24
REMARK   21  A    between atoms: C_26  and  C_27
REMARK   22  A    between atoms: C_26  and  C_28
REMARK   23  A    between atoms: C_29  and  C_30
REMARK   24  A    between atoms: C_29  and  C_31
REMARK   25  A    between atoms: C_31  and  O_32
REMARK   26  A    between atoms: C_31  and  C_34
REMARK   27  A    between atoms: O_32  and  C_33
REMARK   28  A    between atoms: C_34  and  C_35
REMARK   29  A    between atoms: C_34  and  C_36
REMARK   30  A    between atoms: C_37  and  N_38
REMARK   31  A    between atoms: N_38  and  C_39
REMARK   32  A    between atoms: C_39  and  C_40
REMARK                            x       y       z     vdW  Elec       q    Type
REMARK                         _______ _______ _______ _____ _____    ______ ____
ROOT
ATOM      1  C   UNL     1     150.792 166.977 192.290  0.00  0.00    +0.108 C 
ATOM      2  H   UNL     1     149.966 166.515 191.739  0.00  0.00    +0.074 HD
ENDROOT
BRANCH   1   3
ATOM      3  C   UNL     1     150.761 168.491 192.008  0.00  0.00    -0.015 C 
ATOM      4  H   UNL     1     151.117 168.675 190.990  0.00  0.00    +0.030 HD
ATOM      5  H   UNL     1     151.424 169.012 192.709  0.00  0.00    +0.030 HD
BRANCH   3   6
ATOM      6  C   UNL     1     149.343 169.066 192.141  0.00  0.00    -0.045 C 
ATOM      7  H   UNL     1     148.655 168.515 191.490  0.00  0.00    +0.027 HD
ATOM      8  H   UNL     1     148.998 168.881 193.168  0.00  0.00    +0.027 HD
BRANCH   6   9
ATOM      9  C   UNL     1     149.235 170.582 191.864  0.00  0.00    -0.017 C 
ATOM     10  H   UNL     1     149.094 170.693 190.781  0.00  0.00    +0.032 HD
BRANCH   9  11
ATOM     11  C   UNL     1     150.576 171.247 192.203  0.00  0.00    -0.060 C 
ATOM     12  H   UNL     1     150.599 171.556 193.255  0.00  0.00    +0.023 HD
ATOM     13  H   UNL     1     150.752 172.138 191.592  0.00  0.00    +0.023 HD
ATOM     14  H   UNL     1     151.409 170.552 192.047  0.00  0.00    +0.023 HD
ENDBRANCH   9  11
BRANCH   9  15
ATOM     15  C   UNL     1     148.065 171.317 192.579  0.00  0.00    +0.064 C 
ATOM     16  H   UNL     1     147.438 170.564 193.074  0.00  0.00    +0.060 HD
BRANCH  15  17
ATOM     17  C   UNL     1     147.183 172.136 191.617  0.00  0.00    +0.011 C 
ATOM     18  H   UNL     1     146.576 172.835 192.202  0.00  0.00    +0.033 HD
ATOM     19  H   UNL     1     147.820 172.719 190.944  0.00  0.00    +0.033 HD
BRANCH  17  20
ATOM     20  C   UNL     1     146.238 171.260 190.768  0.00  0.00    +0.108 C 
ATOM     21  H   UNL     1     146.165 170.267 191.229  0.00  0.00    +0.074 HD
BRANCH  20  22
ATOM     22  C   UNL     1     144.818 171.879 190.651  0.00  0.00    -0.009 C 
ATOM     23  H   UNL     1     144.644 172.150 189.601  0.00  0.00    +0.033 HD
BRANCH  22  24
ATOM     24  C   UNL     1     143.726 170.869 191.031  0.00  0.00    -0.059 C 
ATOM     25  H   UNL     1     142.976 171.326 191.686  0.00  0.00    +0.023 HD
ATOM     26  H   UNL     1     143.213 170.496 190.138  0.00  0.00    +0.023 HD
ATOM     27  H   UNL     1     144.145 169.998 191.545  0.00  0.00    +0.023 HD
ENDBRANCH  22  24
BRANCH  22  28
ATOM     28  C   UNL     1     144.655 173.137 191.509  0.00  0.00    -0.059 C 
ATOM     29  H   UNL     1     144.622 172.879 192.573  0.00  0.00    +0.023 HD
ATOM     30  H   UNL     1     143.722 173.660 191.280  0.00  0.00    +0.023 HD
ATOM     31  H   UNL     1     145.489 173.830 191.353  0.00  0.00    +0.023 HD
ENDBRANCH  22  28
ENDBRANCH  20  22
BRANCH  20  32
ATOM     32  O   UNL     1     146.812 171.181 189.442  0.00  0.00    -0.461 OA
BRANCH  32  33
ATOM     33  C   UNL     1     146.506 170.087 188.693  0.00  0.00    +0.307 C 
ATOM     34  O   UNL     1     145.899 170.088 187.632  0.00  0.00    -0.251 OA
BRANCH  33  35
ATOM     35  C   UNL     1     147.002 168.836 189.373  0.00  0.00    +0.046 C 
ATOM     36  H   UNL     1     146.155 168.347 189.872  0.00  0.00    +0.038 HD
ATOM     37  H   UNL     1     147.698 169.123 190.169  0.00  0.00    +0.038 HD
BRANCH  35  38
ATOM     38  C   UNL     1     147.645 167.875 188.379  0.00  0.00    -0.031 C 
ATOM     39  H   UNL     1     147.836 168.391 187.429  0.00  0.00    +0.028 HD
ATOM     40  H   UNL     1     146.933 167.066 188.169  0.00  0.00    +0.028 HD
BRANCH  38  41
ATOM     41  C   UNL     1     148.948 167.272 188.908  0.00  0.00    -0.006 C 
ATOM     42  H   UNL     1     149.415 167.954 189.625  0.00  0.00    +0.042 HD
ATOM     43  H   UNL     1     149.663 167.099 188.098  0.00  0.00    +0.042 HD
BRANCH  41  44
ATOM     44  N   UNL     1     148.670 166.002 189.573  0.00  0.00    -0.330 NA
ATOM     45  H   UNL     1     148.681 165.242 188.894  0.00  0.00    +0.118 HD
ATOM     46  H   UNL     1     149.419 165.800 190.235  0.00  0.00    +0.118 HD
ENDBRANCH  41  44
ENDBRANCH  38  41
ENDBRANCH  35  38
ENDBRANCH  33  35
ENDBRANCH  32  33
ENDBRANCH  20  32
ENDBRANCH  17  20
ENDBRANCH  15  17
BRANCH  15  47
ATOM     47  O   UNL     1     148.565 172.224 193.571  0.00  0.00    -0.379 OA
BRANCH  47  48
ATOM     48  C   UNL     1     147.796 173.413 193.693  0.00  0.00    +0.037 C 
ATOM     49  H   UNL     1     148.068 174.122 192.907  0.00  0.00    +0.052 HD
ATOM     50  H   UNL     1     148.025 173.866 194.661  0.00  0.00    +0.052 HD
ATOM     51  H   UNL     1     146.726 173.202 193.655  0.00  0.00    +0.052 HD
ENDBRANCH  47  48
ENDBRANCH  15  47
ENDBRANCH   9  15
ENDBRANCH   6   9
ENDBRANCH   3   6
ENDBRANCH   1   3
BRANCH   1  52
ATOM     52  C   UNL     1     150.638 166.647 193.811  0.00  0.00    +0.020 C 
ATOM     53  H   UNL     1     150.444 167.598 194.324  0.00  0.00    +0.036 HD
BRANCH  52  54
ATOM     54  C   UNL     1     151.929 166.042 194.376  0.00  0.00    -0.057 C 
ATOM     55  H   UNL     1     152.701 166.802 194.524  0.00  0.00    +0.023 HD
ATOM     56  H   UNL     1     152.338 165.275 193.712  0.00  0.00    +0.023 HD
ATOM     57  H   UNL     1     151.762 165.594 195.358  0.00  0.00    +0.023 HD
ENDBRANCH  52  54
BRANCH  52  58
ATOM     58  C   UNL     1     149.391 165.729 194.015  0.00  0.00    +0.070 C 
ATOM     59  H   UNL     1     149.709 164.848 194.589  0.00  0.00    +0.061 HD
BRANCH  58  60
ATOM     60  C   UNL     1     148.135 166.342 194.703  0.00  0.00    +0.002 C 
ATOM     61  H   UNL     1     148.202 167.433 194.576  0.00  0.00    +0.037 HD
BRANCH  60  62
ATOM     62  C   UNL     1     146.834 165.907 194.058  0.00  0.00    -0.065 C 
ATOM     63  C   UNL     1     146.132 166.704 193.237  0.00  0.00    -0.005 C 
ATOM     64  H   UNL     1     146.487 164.907 194.290  0.00  0.00    +0.059 HD
ATOM     65  H   UNL     1     146.507 167.706 193.025  0.00  0.00    +0.078 HD
BRANCH  63  66
ATOM     66  N   UNL     1     144.943 166.388 192.592  0.00  0.00    -0.281 N 
ATOM     67  C   UNL     1     144.988 165.877 191.293  0.00  0.00    +0.206 C 
ATOM     68  O   UNL     1     145.993 165.663 190.622  0.00  0.00    -0.279 OA
ATOM     69  H   UNL     1     143.985 165.654 190.893  0.00  0.00    +0.126 HD
BRANCH  66  70
ATOM     70  C   UNL     1     143.638 166.532 193.234  0.00  0.00    +0.016 C 
ATOM     71  H   UNL     1     143.571 165.871 194.106  0.00  0.00    +0.047 HD
ATOM     72  H   UNL     1     143.544 167.554 193.621  0.00  0.00    +0.047 HD
BRANCH  70  73
ATOM     73  C   UNL     1     142.495 166.279 192.261  0.00  0.00    -0.049 C 
ATOM     74  H   UNL     1     141.834 165.497 192.647  0.00  0.00    +0.024 HD
ATOM     75  H   UNL     1     141.902 167.188 192.112  0.00  0.00    +0.024 HD
ATOM     76  H   UNL     1     142.867 165.960 191.281  0.00  0.00    +0.024 HD
ENDBRANCH  70  73
ENDBRANCH  66  70
ENDBRANCH  63  66
ENDBRANCH  60  62
BRANCH  60  77
ATOM     77  C   UNL     1     148.104 166.139 196.220  0.00  0.00    -0.057 C 
ATOM     78  H   UNL     1     147.243 166.620 196.690  0.00  0.00    +0.024 HD
ATOM     79  H   UNL     1     149.004 166.560 196.684  0.00  0.00    +0.024 HD
ATOM     80  H   UNL     1     148.073 165.074 196.470  0.00  0.00    +0.024 HD
ENDBRANCH  60  77
ENDBRANCH  58  60
BRANCH  58  81
ATOM     81  O   UNL     1     148.991 165.302 192.693  0.00  0.00    -0.379 OA
BRANCH  81  82
ATOM     82  C   UNL     1     149.225 163.918 192.455  0.00  0.00    +0.037 C 
ATOM     83  H   UNL     1     149.853 163.772 191.573  0.00  0.00    +0.052 HD
ATOM     84  H   UNL     1     148.279 163.385 192.332  0.00  0.00    +0.052 HD
ATOM     85  H   UNL     1     149.744 163.506 193.325  0.00  0.00    +0.052 HD
ENDBRANCH  81  82
ENDBRANCH  58  81
ENDBRANCH  52  58
ENDBRANCH   1  52
BRANCH   1  86
ATOM     86  O   UNL     1     152.073 166.467 191.850  0.00  0.00    -0.459 OA
BRANCH  86  88
ATOM     87  O   UNL     1     151.547 165.108 190.073  0.00  0.00    -0.248 OA
ATOM     88  C   UNL     1     152.181 166.033 190.561  0.00  0.00    +0.337 C 
BRANCH  88  89
ATOM     89  C   UNL     1     153.232 166.883 189.828  0.00  0.00    +0.155 C 
ATOM     90  O   UNL     1     152.656 167.714 188.811  0.00  0.00    -0.365 OA
ATOM     91  C   UNL     1     152.906 167.122 187.529  0.00  0.00    +0.049 C 
ATOM     92  C   UNL     1     153.589 165.792 187.771  0.00  0.00    -0.027 C 
ATOM     93  C   UNL     1     154.250 166.010 189.110  0.00  0.00    -0.014 C 
ATOM     94  H   UNL     1     153.703 167.536 190.573  0.00  0.00    +0.071 HD
ATOM     95  H   UNL     1     151.964 167.014 186.985  0.00  0.00    +0.056 HD
ATOM     96  H   UNL     1     153.556 167.803 186.968  0.00  0.00    +0.056 HD
ATOM     97  H   UNL     1     152.839 164.996 187.847  0.00  0.00    +0.029 HD
ATOM     98  H   UNL     1     154.288 165.521 186.974  0.00  0.00    +0.029 HD
ATOM     99  H   UNL     1     155.182 166.570 188.967  0.00  0.00    +0.030 HD
ATOM    100  H   UNL     1     154.492 165.074 189.619  0.00  0.00    +0.030 HD
ENDBRANCH  88  89
ENDBRANCH  86  88
ENDBRANCH   1  86
TORSDOF 32
ENDMDL
MODEL 9
REMARK VINA RESULT:      -4.9      3.639      6.792
REMARK  Name = 2a_conf2
REMARK  32 active torsions:
REMARK  status: ('A' for Active; 'I' for Inactive)
REMARK    1  A    between atoms: C_2  and  C_3
REMARK    2  A    between atoms: C_2  and  O_8
REMARK    3  A    between atoms: O_8  and  C_9
REMARK    4  A    between atoms: C_9  and  C_10
REMARK    5  A    between atoms: C_9  and  C_29
REMARK    6  A    between atoms: C_10  and  C_11
REMARK    7  A    between atoms: C_11  and  C_12
REMARK    8  A    between atoms: C_12  and  C_13
REMARK    9  A    between atoms: C_12  and  C_14
REMARK   10  A    between atoms: C_14  and  O_15
REMARK   11  A    between atoms: C_14  and  C_17
REMARK   12  A    between atoms: O_15  and  C_16
REMARK   13  A    between atoms: C_17  and  C_18
REMARK   14  A    between atoms: C_18  and  O_19
REMARK   15  A    between atoms: C_18  and  C_26
REMARK   16  A    between atoms: O_19  and  C_20
REMARK   17  A    between atoms: C_20  and  C_21
REMARK   18  A    between atoms: C_21  and  C_22
REMARK   19  A    between atoms: C_22  and  C_23
REMARK   20  A    between atoms: C_23  and  N_24
REMARK   21  A    between atoms: C_26  and  C_27
REMARK   22  A    between atoms: C_26  and  C_28
REMARK   23  A    between atoms: C_29  and  C_30
REMARK   24  A    between atoms: C_29  and  C_31
REMARK   25  A    between atoms: C_31  and  O_32
REMARK   26  A    between atoms: C_31  and  C_34
REMARK   27  A    between atoms: O_32  and  C_33
REMARK   28  A    between atoms: C_34  and  C_35
REMARK   29  A    between atoms: C_34  and  C_36
REMARK   30  A    between atoms: C_37  and  N_38
REMARK   31  A    between atoms: N_38  and  C_39
REMARK   32  A    between atoms: C_39  and  C_40
REMARK                            x       y       z     vdW  Elec       q    Type
REMARK                         _______ _______ _______ _____ _____    ______ ____
ROOT
ATOM      1  C   UNL     1     146.067 170.501 190.079  0.00  0.00    +0.108 C 
ATOM      2  H   UNL     1     145.885 169.803 190.904  0.00  0.00    +0.074 HD
ENDROOT
BRANCH   1   3
ATOM      3  C   UNL     1     146.339 169.669 188.810  0.00  0.00    -0.015 C 
ATOM      4  H   UNL     1     147.202 170.088 188.284  0.00  0.00    +0.030 HD
ATOM      5  H   UNL     1     145.469 169.715 188.144  0.00  0.00    +0.030 HD
BRANCH   3   6
ATOM      6  C   UNL     1     146.635 168.200 189.145  0.00  0.00    -0.045 C 
ATOM      7  H   UNL     1     145.996 167.870 189.972  0.00  0.00    +0.027 HD
ATOM      8  H   UNL     1     146.345 167.590 188.278  0.00  0.00    +0.027 HD
BRANCH   6   9
ATOM      9  C   UNL     1     148.116 167.901 189.469  0.00  0.00    -0.017 C 
ATOM     10  H   UNL     1     148.602 168.871 189.634  0.00  0.00    +0.032 HD
BRANCH   9  11
ATOM     11  C   UNL     1     148.781 167.280 188.232  0.00  0.00    -0.060 C 
ATOM     12  H   UNL     1     149.869 167.402 188.277  0.00  0.00    +0.023 HD
ATOM     13  H   UNL     1     148.433 167.750 187.307  0.00  0.00    +0.023 HD
ATOM     14  H   UNL     1     148.572 166.206 188.173  0.00  0.00    +0.023 HD
ENDBRANCH   9  11
BRANCH   9  15
ATOM     15  C   UNL     1     148.367 167.018 190.725  0.00  0.00    +0.064 C 
ATOM     16  H   UNL     1     148.418 167.675 191.603  0.00  0.00    +0.060 HD
BRANCH  15  17
ATOM     17  C   UNL     1     149.672 166.202 190.644  0.00  0.00    +0.011 C 
ATOM     18  H   UNL     1     149.421 165.137 190.595  0.00  0.00    +0.033 HD
ATOM     19  H   UNL     1     150.213 166.467 189.729  0.00  0.00    +0.033 HD
BRANCH  17  20
ATOM     20  C   UNL     1     150.603 166.430 191.853  0.00  0.00    +0.108 C 
ATOM     21  H   UNL     1     151.060 165.473 192.135  0.00  0.00    +0.074 HD
BRANCH  20  22
ATOM     22  C   UNL     1     151.722 167.461 191.541  0.00  0.00    -0.009 C 
ATOM     23  H   UNL     1     152.638 167.146 192.058  0.00  0.00    +0.033 HD
BRANCH  22  24
ATOM     24  C   UNL     1     152.055 167.501 190.043  0.00  0.00    -0.059 C 
ATOM     25  H   UNL     1     152.521 168.454 189.767  0.00  0.00    +0.023 HD
ATOM     26  H   UNL     1     152.748 166.696 189.776  0.00  0.00    +0.023 HD
ATOM     27  H   UNL     1     151.159 167.366 189.427  0.00  0.00    +0.023 HD
ENDBRANCH  22  24
BRANCH  22  28
ATOM     28  C   UNL     1     151.363 168.874 192.010  0.00  0.00    -0.059 C 
ATOM     29  H   UNL     1     150.554 169.291 191.401  0.00  0.00    +0.023 HD
ATOM     30  H   UNL     1     152.214 169.556 191.917  0.00  0.00    +0.023 HD
ATOM     31  H   UNL     1     151.034 168.869 193.056  0.00  0.00    +0.023 HD
ENDBRANCH  22  28
ENDBRANCH  20  22
BRANCH  20  32
ATOM     32  O   UNL     1     149.784 166.955 192.925  0.00  0.00    -0.461 OA
BRANCH  32  33
ATOM     33  C   UNL     1     149.597 166.161 194.014  0.00  0.00    +0.307 C 
ATOM     34  O   UNL     1     148.595 165.507 194.264  0.00  0.00    -0.251 OA
BRANCH  33  35
ATOM     35  C   UNL     1     150.808 166.213 194.910  0.00  0.00    +0.046 C 
ATOM     36  H   UNL     1     150.532 166.712 195.847  0.00  0.00    +0.038 HD
ATOM     37  H   UNL     1     151.565 166.849 194.439  0.00  0.00    +0.038 HD
BRANCH  35  38
ATOM     38  C   UNL     1     151.348 164.817 195.205  0.00  0.00    -0.031 C 
ATOM     39  H   UNL     1     152.438 164.804 195.083  0.00  0.00    +0.028 HD
ATOM     40  H   UNL     1     150.932 164.122 194.463  0.00  0.00    +0.028 HD
BRANCH  38  41
ATOM     41  C   UNL     1     150.980 164.332 196.609  0.00  0.00    -0.006 C 
ATOM     42  H   UNL     1     149.999 164.722 196.898  0.00  0.00    +0.042 HD
ATOM     43  H   UNL     1     151.707 164.677 197.351  0.00  0.00    +0.042 HD
BRANCH  41  44
ATOM     44  N   UNL     1     150.937 162.873 196.631  0.00  0.00    -0.330 NA
ATOM     45  H   UNL     1     151.649 162.511 197.266  0.00  0.00    +0.118 HD
ATOM     46  H   UNL     1     150.040 162.571 197.012  0.00  0.00    +0.118 HD
ENDBRANCH  41  44
ENDBRANCH  38  41
ENDBRANCH  35  38
ENDBRANCH  33  35
ENDBRANCH  32  33
ENDBRANCH  20  32
ENDBRANCH  17  20
ENDBRANCH  15  17
BRANCH  15  47
ATOM     47  O   UNL     1     147.295 166.083 190.913  0.00  0.00    -0.379 OA
BRANCH  47  48
ATOM     48  C   UNL     1     147.658 164.738 190.635  0.00  0.00    +0.037 C 
ATOM     49  H   UNL     1     146.812 164.199 190.201  0.00  0.00    +0.052 HD
ATOM     50  H   UNL     1     147.926 164.258 191.580  0.00  0.00    +0.052 HD
ATOM     51  H   UNL     1     148.519 164.687 189.966  0.00  0.00    +0.052 HD
ENDBRANCH  47  48
ENDBRANCH  15  47
ENDBRANCH   9  15
ENDBRANCH   6   9
ENDBRANCH   3   6
ENDBRANCH   1   3
BRANCH   1  52
ATOM     52  C   UNL     1     144.829 171.443 189.924  0.00  0.00    +0.020 C 
ATOM     53  H   UNL     1     144.371 171.209 188.954  0.00  0.00    +0.036 HD
BRANCH  52  54
ATOM     54  C   UNL     1     145.255 172.916 189.920  0.00  0.00    -0.057 C 
ATOM     55  H   UNL     1     145.790 173.179 189.003  0.00  0.00    +0.023 HD
ATOM     56  H   UNL     1     145.910 173.148 190.766  0.00  0.00    +0.023 HD
ATOM     57  H   UNL     1     144.391 173.582 189.960  0.00  0.00    +0.023 HD
ENDBRANCH  52  54
BRANCH  52  58
ATOM     58  C   UNL     1     143.787 171.111 191.039  0.00  0.00    +0.070 C 
ATOM     59  H   UNL     1     144.012 171.738 191.912  0.00  0.00    +0.061 HD
BRANCH  58  60
ATOM     60  C   UNL     1     142.274 171.264 190.697  0.00  0.00    +0.002 C 
ATOM     61  H   UNL     1     141.826 170.262 190.776  0.00  0.00    +0.037 HD
BRANCH  60  62
ATOM     62  C   UNL     1     141.532 172.153 191.675  0.00  0.00    -0.065 C 
ATOM     63  C   UNL     1     142.065 173.278 192.177  0.00  0.00    -0.005 C 
ATOM     64  H   UNL     1     140.534 171.838 191.956  0.00  0.00    +0.059 HD
ATOM     65  H   UNL     1     143.073 173.566 191.874  0.00  0.00    +0.078 HD
BRANCH  63  66
ATOM     66  N   UNL     1     141.458 174.158 193.063  0.00  0.00    -0.281 N 
ATOM     67  C   UNL     1     142.229 175.148 193.675  0.00  0.00    +0.206 C 
ATOM     68  O   UNL     1     143.431 175.344 193.519  0.00  0.00    -0.279 OA
ATOM     69  H   UNL     1     141.635 175.791 194.346  0.00  0.00    +0.126 HD
BRANCH  66  70
ATOM     70  C   UNL     1     140.026 174.118 193.355  0.00  0.00    +0.016 C 
ATOM     71  H   UNL     1     139.453 174.460 192.486  0.00  0.00    +0.047 HD
ATOM     72  H   UNL     1     139.728 173.076 193.523  0.00  0.00    +0.047 HD
BRANCH  70  73
ATOM     73  C   UNL     1     139.677 174.924 194.598  0.00  0.00    -0.049 C 
ATOM     74  H   UNL     1     138.734 175.460 194.449  0.00  0.00    +0.024 HD
ATOM     75  H   UNL     1     139.566 174.270 195.469  0.00  0.00    +0.024 HD
ATOM     76  H   UNL     1     140.455 175.659 194.830  0.00  0.00    +0.024 HD
ENDBRANCH  70  73
ENDBRANCH  66  70
ENDBRANCH  63  66
ENDBRANCH  60  62
BRANCH  60  77
ATOM     77  C   UNL     1     142.010 171.681 189.248  0.00  0.00    -0.057 C 
ATOM     78  H   UNL     1     142.831 171.415 188.578  0.00  0.00    +0.024 HD
ATOM     79  H   UNL     1     141.875 172.767 189.178  0.00  0.00    +0.024 HD
ATOM     80  H   UNL     1     141.098 171.212 188.866  0.00  0.00    +0.024 HD
ENDBRANCH  60  77
ENDBRANCH  58  60
BRANCH  58  81
ATOM     81  O   UNL     1     144.009 169.727 191.392  0.00  0.00    -0.379 OA
BRANCH  81  82
ATOM     82  C   UNL     1     142.815 168.951 191.399  0.00  0.00    +0.037 C 
ATOM     83  H   UNL     1     142.361 168.937 192.393  0.00  0.00    +0.052 HD
ATOM     84  H   UNL     1     143.020 167.929 191.069  0.00  0.00    +0.052 HD
ATOM     85  H   UNL     1     142.109 169.405 190.699  0.00  0.00    +0.052 HD
ENDBRANCH  81  82
ENDBRANCH  58  81
ENDBRANCH  52  58
ENDBRANCH   1  52
BRANCH   1  86
ATOM     86  O   UNL     1     147.229 171.326 190.329  0.00  0.00    -0.459 OA
BRANCH  86  88
ATOM     87  O   UNL     1     147.759 170.162 192.238  0.00  0.00    -0.248 OA
ATOM     88  C   UNL     1     147.961 171.078 191.453  0.00  0.00    +0.337 C 
BRANCH  88  89
ATOM     89  C   UNL     1     149.068 172.138 191.579  0.00  0.00    +0.155 C 
ATOM     90  O   UNL     1     149.837 171.990 192.780  0.00  0.00    -0.365 OA
ATOM     91  C   UNL     1     149.414 172.978 193.730  0.00  0.00    +0.049 C 
ATOM     92  C   UNL     1     148.241 173.717 193.120  0.00  0.00    -0.027 C 
ATOM     93  C   UNL     1     148.486 173.543 191.640  0.00  0.00    -0.014 C 
ATOM     94  H   UNL     1     149.743 172.011 190.725  0.00  0.00    +0.071 HD
ATOM     95  H   UNL     1     149.155 172.491 194.674  0.00  0.00    +0.056 HD
ATOM     96  H   UNL     1     150.258 173.654 193.907  0.00  0.00    +0.056 HD
ATOM     97  H   UNL     1     147.302 173.228 193.406  0.00  0.00    +0.029 HD
ATOM     98  H   UNL     1     148.186 174.763 193.436  0.00  0.00    +0.029 HD
ATOM     99  H   UNL     1     149.239 174.269 191.310  0.00  0.00    +0.030 HD
ATOM    100  H   UNL     1     147.584 173.693 191.043  0.00  0.00    +0.030 HD
ENDBRANCH  88  89
ENDBRANCH  86  88
ENDBRANCH   1  86
TORSDOF 32
ENDMDL
MODEL 10
REMARK VINA RESULT:      -4.9      2.056      3.266
REMARK  Name = 2a_conf2
REMARK  32 active torsions:
REMARK  status: ('A' for Active; 'I' for Inactive)
REMARK    1  A    between atoms: C_2  and  C_3
REMARK    2  A    between atoms: C_2  and  O_8
REMARK    3  A    between atoms: O_8  and  C_9
REMARK    4  A    between atoms: C_9  and  C_10
REMARK    5  A    between atoms: C_9  and  C_29
REMARK    6  A    between atoms: C_10  and  C_11
REMARK    7  A    between atoms: C_11  and  C_12
REMARK    8  A    between atoms: C_12  and  C_13
REMARK    9  A    between atoms: C_12  and  C_14
REMARK   10  A    between atoms: C_14  and  O_15
REMARK   11  A    between atoms: C_14  and  C_17
REMARK   12  A    between atoms: O_15  and  C_16
REMARK   13  A    between atoms: C_17  and  C_18
REMARK   14  A    between atoms: C_18  and  O_19
REMARK   15  A    between atoms: C_18  and  C_26
REMARK   16  A    between atoms: O_19  and  C_20
REMARK   17  A    between atoms: C_20  and  C_21
REMARK   18  A    between atoms: C_21  and  C_22
REMARK   19  A    between atoms: C_22  and  C_23
REMARK   20  A    between atoms: C_23  and  N_24
REMARK   21  A    between atoms: C_26  and  C_27
REMARK   22  A    between atoms: C_26  and  C_28
REMARK   23  A    between atoms: C_29  and  C_30
REMARK   24  A    between atoms: C_29  and  C_31
REMARK   25  A    between atoms: C_31  and  O_32
REMARK   26  A    between atoms: C_31  and  C_34
REMARK   27  A    between atoms: O_32  and  C_33
REMARK   28  A    between atoms: C_34  and  C_35
REMARK   29  A    between atoms: C_34  and  C_36
REMARK   30  A    between atoms: C_37  and  N_38
REMARK   31  A    between atoms: N_38  and  C_39
REMARK   32  A    between atoms: C_39  and  C_40
REMARK                            x       y       z     vdW  Elec       q    Type
REMARK                         _______ _______ _______ _____ _____    ______ ____
ROOT
ATOM      1  C   UNL     1     149.878 165.615 191.037  0.00  0.00    +0.108 C 
ATOM      2  H   UNL     1     149.419 164.654 190.782  0.00  0.00    +0.074 HD
ENDROOT
BRANCH   1   3
ATOM      3  C   UNL     1     150.898 165.959 189.934  0.00  0.00    -0.015 C 
ATOM      4  H   UNL     1     150.662 166.943 189.519  0.00  0.00    +0.030 HD
ATOM      5  H   UNL     1     150.836 165.217 189.129  0.00  0.00    +0.030 HD
BRANCH   3   6
ATOM      6  C   UNL     1     152.334 165.989 190.477  0.00  0.00    -0.045 C 
ATOM      7  H   UNL     1     152.594 167.006 190.791  0.00  0.00    +0.027 HD
ATOM      8  H   UNL     1     152.365 165.376 191.388  0.00  0.00    +0.027 HD
BRANCH   6   9
ATOM      9  C   UNL     1     153.402 165.449 189.499  0.00  0.00    -0.017 C 
ATOM     10  H   UNL     1     153.767 164.505 189.925  0.00  0.00    +0.032 HD
BRANCH   9  11
ATOM     11  C   UNL     1     154.595 166.414 189.482  0.00  0.00    -0.060 C 
ATOM     12  H   UNL     1     154.270 167.425 189.211  0.00  0.00    +0.023 HD
ATOM     13  H   UNL     1     155.356 166.105 188.758  0.00  0.00    +0.023 HD
ATOM     14  H   UNL     1     155.065 166.474 190.470  0.00  0.00    +0.023 HD
ENDBRANCH   9  11
BRANCH   9  15
ATOM     15  C   UNL     1     152.909 165.164 188.051  0.00  0.00    +0.064 C 
ATOM     16  H   UNL     1     151.891 165.563 187.950  0.00  0.00    +0.060 HD
BRANCH  15  17
ATOM     17  C   UNL     1     152.887 163.664 187.700  0.00  0.00    +0.011 C 
ATOM     18  H   UNL     1     151.869 163.384 187.407  0.00  0.00    +0.033 HD
ATOM     19  H   UNL     1     153.550 163.478 186.848  0.00  0.00    +0.033 HD
BRANCH  17  20
ATOM     20  C   UNL     1     153.323 162.761 188.873  0.00  0.00    +0.108 C 
ATOM     21  H   UNL     1     153.759 163.388 189.660  0.00  0.00    +0.074 HD
BRANCH  20  22
ATOM     22  C   UNL     1     152.134 161.952 189.458  0.00  0.00    -0.009 C 
ATOM     23  H   UNL     1     152.362 160.881 189.361  0.00  0.00    +0.033 HD
BRANCH  22  24
ATOM     24  C   UNL     1     151.944 162.226 190.957  0.00  0.00    -0.059 C 
ATOM     25  H   UNL     1     151.286 161.478 191.415  0.00  0.00    +0.023 HD
ATOM     26  H   UNL     1     152.905 162.199 191.482  0.00  0.00    +0.023 HD
ATOM     27  H   UNL     1     151.513 163.216 191.133  0.00  0.00    +0.023 HD
ENDBRANCH  22  24
BRANCH  22  28
ATOM     28  C   UNL     1     150.817 162.234 188.729  0.00  0.00    -0.059 C 
ATOM     29  H   UNL     1     150.088 161.440 188.925  0.00  0.00    +0.023 HD
ATOM     30  H   UNL     1     150.959 162.275 187.645  0.00  0.00    +0.023 HD
ATOM     31  H   UNL     1     150.381 163.185 189.059  0.00  0.00    +0.023 HD
ENDBRANCH  22  28
ENDBRANCH  20  22
BRANCH  20  32
ATOM     32  O   UNL     1     154.297 161.827 188.348  0.00  0.00    -0.461 OA
BRANCH  32  33
ATOM     33  C   UNL     1     155.602 162.211 188.364  0.00  0.00    +0.307 C 
ATOM     34  O   UNL     1     156.382 162.149 187.425  0.00  0.00    -0.251 OA
BRANCH  33  35
ATOM     35  C   UNL     1     155.979 162.713 189.735  0.00  0.00    +0.046 C 
ATOM     36  H   UNL     1     156.239 161.853 190.366  0.00  0.00    +0.038 HD
ATOM     37  H   UNL     1     155.097 163.171 190.195  0.00  0.00    +0.038 HD
BRANCH  35  38
ATOM     38  C   UNL     1     157.153 163.685 189.672  0.00  0.00    -0.031 C 
ATOM     39  H   UNL     1     156.937 164.572 190.282  0.00  0.00    +0.028 HD
ATOM     40  H   UNL     1     157.264 164.027 188.635  0.00  0.00    +0.028 HD
BRANCH  38  41
ATOM     41  C   UNL     1     158.465 163.048 190.136  0.00  0.00    -0.006 C 
ATOM     42  H   UNL     1     158.264 162.260 190.868  0.00  0.00    +0.042 HD
ATOM     43  H   UNL     1     159.118 163.786 190.612  0.00  0.00    +0.042 HD
BRANCH  41  44
ATOM     44  N   UNL     1     159.162 162.468 188.992  0.00  0.00    -0.330 NA
ATOM     45  H   UNL     1     160.141 162.753 188.997  0.00  0.00    +0.118 HD
ATOM     46  H   UNL     1     159.164 161.451 189.082  0.00  0.00    +0.118 HD
ENDBRANCH  41  44
ENDBRANCH  38  41
ENDBRANCH  35  38
ENDBRANCH  33  35
ENDBRANCH  32  33
ENDBRANCH  20  32
ENDBRANCH  17  20
ENDBRANCH  15  17
BRANCH  15  47
ATOM     47  O   UNL     1     153.754 165.811 187.090  0.00  0.00    -0.379 OA
BRANCH  47  48
ATOM     48  C   UNL     1     154.186 164.953 186.043  0.00  0.00    +0.037 C 
ATOM     49  H   UNL     1     153.883 163.923 186.249  0.00  0.00    +0.052 HD
ATOM     50  H   UNL     1     155.278 164.991 186.002  0.00  0.00    +0.052 HD
ATOM     51  H   UNL     1     153.793 165.274 185.076  0.00  0.00    +0.052 HD
ENDBRANCH  47  48
ENDBRANCH  15  47
ENDBRANCH   9  15
ENDBRANCH   6   9
ENDBRANCH   3   6
ENDBRANCH   1   3
BRANCH   1  52
ATOM     52  C   UNL     1     148.756 166.696 191.174  0.00  0.00    +0.020 C 
ATOM     53  H   UNL     1     147.874 166.188 191.584  0.00  0.00    +0.036 HD
BRANCH  52  54
ATOM     54  C   UNL     1     148.388 167.284 189.806  0.00  0.00    -0.057 C 
ATOM     55  H   UNL     1     149.194 167.151 189.079  0.00  0.00    +0.023 HD
ATOM     56  H   UNL     1     148.173 168.355 189.873  0.00  0.00    +0.023 HD
ATOM     57  H   UNL     1     147.518 166.783 189.378  0.00  0.00    +0.023 HD
ENDBRANCH  52  54
BRANCH  52  58
ATOM     58  C   UNL     1     149.208 167.779 192.204  0.00  0.00    +0.070 C 
ATOM     59  H   UNL     1     149.947 167.320 192.876  0.00  0.00    +0.061 HD
BRANCH  58  60
ATOM     60  C   UNL     1     149.800 169.112 191.654  0.00  0.00    +0.002 C 
ATOM     61  H   UNL     1     149.820 169.024 190.558  0.00  0.00    +0.037 HD
BRANCH  60  62
ATOM     62  C   UNL     1     148.944 170.319 191.979  0.00  0.00    -0.065 C 
ATOM     63  C   UNL     1     149.292 171.568 191.630  0.00  0.00    -0.005 C 
ATOM     64  H   UNL     1     148.021 170.130 192.515  0.00  0.00    +0.059 HD
ATOM     65  H   UNL     1     150.229 171.725 191.093  0.00  0.00    +0.078 HD
BRANCH  63  66
ATOM     66  N   UNL     1     148.568 172.728 191.871  0.00  0.00    -0.281 N 
ATOM     67  C   UNL     1     148.770 173.421 193.067  0.00  0.00    +0.206 C 
ATOM     68  O   UNL     1     149.543 173.117 193.969  0.00  0.00    -0.279 OA
ATOM     69  H   UNL     1     148.149 174.329 193.138  0.00  0.00    +0.126 HD
BRANCH  66  70
ATOM     70  C   UNL     1     147.623 173.281 190.903  0.00  0.00    +0.016 C 
ATOM     71  H   UNL     1     147.896 174.313 190.655  0.00  0.00    +0.047 HD
ATOM     72  H   UNL     1     147.701 172.714 189.967  0.00  0.00    +0.047 HD
BRANCH  70  73
ATOM     73  C   UNL     1     146.186 173.195 191.398  0.00  0.00    -0.049 C 
ATOM     74  H   UNL     1     146.137 172.607 192.320  0.00  0.00    +0.024 HD
ATOM     75  H   UNL     1     145.784 174.193 191.606  0.00  0.00    +0.024 HD
ATOM     76  H   UNL     1     145.534 172.721 190.656  0.00  0.00    +0.024 HD
ENDBRANCH  70  73
ENDBRANCH  66  70
ENDBRANCH  63  66
ENDBRANCH  60  62
BRANCH  60  77
ATOM     77  C   UNL     1     151.263 169.341 192.041  0.00  0.00    -0.057 C 
ATOM     78  H   UNL     1     151.418 170.298 192.545  0.00  0.00    +0.024 HD
ATOM     79  H   UNL     1     151.903 169.337 191.151  0.00  0.00    +0.024 HD
ATOM     80  H   UNL     1     151.620 168.549 192.706  0.00  0.00    +0.024 HD
ENDBRANCH  60  77
ENDBRANCH  58  60
BRANCH  58  81
ATOM     81  O   UNL     1     148.031 168.117 192.970  0.00  0.00    -0.379 OA
BRANCH  81  82
ATOM     82  C   UNL     1     147.519 167.022 193.725  0.00  0.00    +0.037 C 
ATOM     83  H   UNL     1     146.494 167.217 194.053  0.00  0.00    +0.052 HD
ATOM     84  H   UNL     1     148.156 166.822 194.590  0.00  0.00    +0.052 HD
ATOM     85  H   UNL     1     147.518 166.137 193.083  0.00  0.00    +0.052 HD
ENDBRANCH  81  82
ENDBRANCH  58  81
ENDBRANCH  52  58
ENDBRANCH   1  52
BRANCH   1  86
ATOM     86  O   UNL     1     150.588 165.546 192.296  0.00  0.00    -0.459 OA
BRANCH  86  88
ATOM     87  O   UNL     1     149.263 163.833 193.063  0.00  0.00    -0.248 OA
ATOM     88  C   UNL     1     150.230 164.572 193.181  0.00  0.00    +0.337 C 
BRANCH  88  89
ATOM     89  C   UNL     1     151.228 164.561 194.351  0.00  0.00    +0.155 C 
ATOM     90  O   UNL     1     150.687 163.946 195.529  0.00  0.00    -0.365 OA
ATOM     91  C   UNL     1     150.308 164.971 196.458  0.00  0.00    +0.049 C 
ATOM     92  C   UNL     1     150.531 166.304 195.775  0.00  0.00    -0.027 C 
ATOM     93  C   UNL     1     151.607 165.974 194.770  0.00  0.00    -0.014 C 
ATOM     94  H   UNL     1     152.100 163.979 194.034  0.00  0.00    +0.071 HD
ATOM     95  H   UNL     1     149.267 164.826 196.760  0.00  0.00    +0.056 HD
ATOM     96  H   UNL     1     150.944 164.870 197.344  0.00  0.00    +0.056 HD
ATOM     97  H   UNL     1     149.616 166.616 195.258  0.00  0.00    +0.029 HD
ATOM     98  H   UNL     1     150.811 167.098 196.473  0.00  0.00    +0.029 HD
ATOM     99  H   UNL     1     152.581 165.961 195.273  0.00  0.00    +0.030 HD
ATOM    100  H   UNL     1     151.657 166.697 193.952  0.00  0.00    +0.030 HD
ENDBRANCH  88  89
ENDBRANCH  86  88
ENDBRANCH   1  86
TORSDOF 32
ENDMDL
