MODEL 1
REMARK VINA RESULT:      -5.5      0.000      0.000
REMARK  Name = 2c_conf3
REMARK  32 active torsions:
REMARK  status: ('A' for Active; 'I' for Inactive)
REMARK    1  A    between atoms: N_2  and  C_3
REMARK    2  A    between atoms: N_2  and  C_5
REMARK    3  A    between atoms: C_3  and  C_4
REMARK    4  A    between atoms: C_6  and  C_7
REMARK    5  A    between atoms: C_7  and  C_8
REMARK    6  A    between atoms: C_7  and  C_9
REMARK    7  A    between atoms: C_9  and  O_10
REMARK    8  A    between atoms: C_9  and  C_12
REMARK    9  A    between atoms: O_10  and  C_11
REMARK   10  A    between atoms: C_12  and  C_13
REMARK   11  A    between atoms: C_12  and  C_14
REMARK   12  A    between atoms: C_14  and  O_15
REMARK   13  A    between atoms: C_14  and  C_21
REMARK   14  A    between atoms: O_15  and  C_16
REMARK   15  A    between atoms: C_16  and  C_17
REMARK   16  A    between atoms: C_17  and  C_18
REMARK   17  A    between atoms: C_17  and  C_19
REMARK   18  A    between atoms: C_21  and  C_22
REMARK   19  A    between atoms: C_22  and  C_23
REMARK   20  A    between atoms: C_23  and  C_24
REMARK   21  A    between atoms: C_23  and  C_25
REMARK   22  A    between atoms: C_25  and  O_26
REMARK   23  A    between atoms: C_25  and  C_28
REMARK   24  A    between atoms: O_26  and  C_27
REMARK   25  A    between atoms: C_28  and  C_29
REMARK   26  A    between atoms: C_29  and  O_30
REMARK   27  A    between atoms: C_29  and  C_35
REMARK   28  A    between atoms: O_30  and  C_31
REMARK   29  A    between atoms: C_31  and  C_32
REMARK   30  A    between atoms: C_32  and  C_33
REMARK   31  A    between atoms: C_35  and  C_36
REMARK   32  A    between atoms: C_35  and  C_37
REMARK                            x       y       z     vdW  Elec       q    Type
REMARK                         _______ _______ _______ _____ _____    ______ ____
ROOT
ATOM      1  C   UNL     1     147.117 170.429 191.252  0.00  0.00    +0.108 C 
ATOM      2  H   UNL     1     146.518 170.790 192.091  0.00  0.00    +0.074 HD
ENDROOT
BRANCH   1   3
ATOM      3  C   UNL     1     147.959 169.223 191.730  0.00  0.00    -0.015 C 
ATOM      4  H   UNL     1     147.985 169.206 192.823  0.00  0.00    +0.030 HD
ATOM      5  H   UNL     1     147.459 168.304 191.401  0.00  0.00    +0.030 HD
BRANCH   3   6
ATOM      6  C   UNL     1     149.391 169.210 191.172  0.00  0.00    -0.045 C 
ATOM      7  H   UNL     1     149.432 168.444 190.387  0.00  0.00    +0.027 HD
ATOM      8  H   UNL     1     149.585 170.159 190.667  0.00  0.00    +0.027 HD
BRANCH   6   9
ATOM      9  C   UNL     1     150.525 168.872 192.172  0.00  0.00    -0.017 C 
ATOM     10  H   UNL     1     150.077 168.942 193.176  0.00  0.00    +0.032 HD
BRANCH   9  11
ATOM     11  C   UNL     1     151.643 169.921 192.169  0.00  0.00    -0.060 C 
ATOM     12  H   UNL     1     151.700 170.437 191.205  0.00  0.00    +0.023 HD
ATOM     13  H   UNL     1     152.619 169.451 192.329  0.00  0.00    +0.023 HD
ATOM     14  H   UNL     1     151.491 170.676 192.948  0.00  0.00    +0.023 HD
ENDBRANCH   9  11
BRANCH   9  15
ATOM     15  C   UNL     1     151.065 167.410 192.049  0.00  0.00    +0.064 C 
ATOM     16  H   UNL     1     150.283 166.749 191.653  0.00  0.00    +0.060 HD
BRANCH  15  17
ATOM     17  C   UNL     1     151.545 166.886 193.424  0.00  0.00    +0.011 C 
ATOM     18  H   UNL     1     152.503 166.378 193.270  0.00  0.00    +0.033 HD
ATOM     19  H   UNL     1     151.727 167.739 194.088  0.00  0.00    +0.033 HD
BRANCH  17  20
ATOM     20  C   UNL     1     150.590 165.910 194.143  0.00  0.00    +0.108 C 
ATOM     21  H   UNL     1     150.635 164.936 193.640  0.00  0.00    +0.074 HD
BRANCH  20  22
ATOM     22  C   UNL     1     150.982 165.731 195.640  0.00  0.00    -0.009 C 
ATOM     23  H   UNL     1     151.906 166.294 195.824  0.00  0.00    +0.033 HD
BRANCH  22  24
ATOM     24  C   UNL     1     151.235 164.265 196.012  0.00  0.00    -0.059 C 
ATOM     25  H   UNL     1     150.607 163.960 196.855  0.00  0.00    +0.023 HD
ATOM     26  H   UNL     1     151.015 163.601 195.169  0.00  0.00    +0.023 HD
ATOM     27  H   UNL     1     152.271 164.100 196.320  0.00  0.00    +0.023 HD
ENDBRANCH  22  24
BRANCH  22  28
ATOM     28  C   UNL     1     149.926 166.302 196.594  0.00  0.00    -0.059 C 
ATOM     29  H   UNL     1     149.904 167.396 196.550  0.00  0.00    +0.023 HD
ATOM     30  H   UNL     1     150.114 165.995 197.627  0.00  0.00    +0.023 HD
ATOM     31  H   UNL     1     148.927 165.935 196.333  0.00  0.00    +0.023 HD
ENDBRANCH  22  28
ENDBRANCH  20  22
BRANCH  20  32
ATOM     32  O   UNL     1     149.262 166.474 194.075  0.00  0.00    -0.461 OA
BRANCH  32  33
ATOM     33  C   UNL     1     148.288 165.700 193.514  0.00  0.00    +0.307 C 
ATOM     34  O   UNL     1     148.428 164.977 192.538  0.00  0.00    -0.251 OA
BRANCH  33  35
ATOM     35  C   UNL     1     146.997 165.881 194.272  0.00  0.00    +0.042 C 
ATOM     36  H   UNL     1     146.777 164.956 194.814  0.00  0.00    +0.037 HD
ATOM     37  H   UNL     1     147.135 166.699 194.985  0.00  0.00    +0.037 HD
BRANCH  35  38
ATOM     38  C   UNL     1     145.834 166.198 193.348  0.00  0.00    -0.055 C 
ATOM     39  H   UNL     1     145.591 165.327 192.730  0.00  0.00    +0.023 HD
ATOM     40  H   UNL     1     146.079 167.038 192.687  0.00  0.00    +0.023 HD
ATOM     41  H   UNL     1     144.942 166.473 193.921  0.00  0.00    +0.023 HD
ENDBRANCH  35  38
ENDBRANCH  33  35
ENDBRANCH  32  33
ENDBRANCH  20  32
ENDBRANCH  17  20
ENDBRANCH  15  17
BRANCH  15  42
ATOM     42  O   UNL     1     152.210 167.433 191.184  0.00  0.00    -0.379 OA
BRANCH  42  43
ATOM     43  C   UNL     1     152.487 166.179 190.577  0.00  0.00    +0.037 C 
ATOM     44  H   UNL     1     153.529 166.180 190.244  0.00  0.00    +0.052 HD
ATOM     45  H   UNL     1     152.348 165.361 191.288  0.00  0.00    +0.052 HD
ATOM     46  H   UNL     1     151.846 166.019 189.707  0.00  0.00    +0.052 HD
ENDBRANCH  42  43
ENDBRANCH  15  42
ENDBRANCH   9  15
ENDBRANCH   6   9
ENDBRANCH   3   6
ENDBRANCH   1   3
BRANCH   1  47
ATOM     47  C   UNL     1     146.187 170.081 190.060  0.00  0.00    +0.020 C 
ATOM     48  H   UNL     1     145.811 169.069 190.265  0.00  0.00    +0.036 HD
BRANCH  47  49
ATOM     49  C   UNL     1     146.994 169.899 188.764  0.00  0.00    -0.057 C 
ATOM     50  H   UNL     1     147.617 170.772 188.543  0.00  0.00    +0.023 HD
ATOM     51  H   UNL     1     147.628 169.009 188.802  0.00  0.00    +0.023 HD
ATOM     52  H   UNL     1     146.320 169.773 187.909  0.00  0.00    +0.023 HD
ENDBRANCH  47  49
BRANCH  47  53
ATOM     53  C   UNL     1     144.928 170.979 189.892  0.00  0.00    +0.070 C 
ATOM     54  H   UNL     1     144.193 170.426 189.292  0.00  0.00    +0.061 HD
BRANCH  53  55
ATOM     55  C   UNL     1     144.158 171.511 191.138  0.00  0.00    +0.002 C 
ATOM     56  H   UNL     1     144.668 171.048 191.999  0.00  0.00    +0.037 HD
BRANCH  55  58
ATOM     57  C   UNL     1     143.356 173.679 192.094  0.00  0.00    -0.005 C 
ATOM     58  C   UNL     1     144.231 173.012 191.327  0.00  0.00    -0.065 C 
ATOM     59  H   UNL     1     142.584 173.110 192.614  0.00  0.00    +0.078 HD
ATOM     60  H   UNL     1     145.006 173.522 190.767  0.00  0.00    +0.059 HD
BRANCH  57  62
ATOM     61  C   UNL     1     143.127 176.003 191.306  0.00  0.00    +0.206 C 
ATOM     62  N   UNL     1     143.291 175.048 192.303  0.00  0.00    -0.281 N 
ATOM     63  O   UNL     1     143.012 177.211 191.487  0.00  0.00    -0.279 OA
ATOM     64  H   UNL     1     143.100 175.590 190.288  0.00  0.00    +0.126 HD
BRANCH  62  65
ATOM     65  C   UNL     1     143.336 175.527 193.690  0.00  0.00    +0.016 C 
ATOM     66  H   UNL     1     144.107 174.972 194.239  0.00  0.00    +0.047 HD
ATOM     67  H   UNL     1     143.642 176.581 193.701  0.00  0.00    +0.047 HD
BRANCH  65  68
ATOM     68  C   UNL     1     141.988 175.394 194.384  0.00  0.00    -0.049 C 
ATOM     69  H   UNL     1     141.183 175.346 193.642  0.00  0.00    +0.024 HD
ATOM     70  H   UNL     1     141.795 176.248 195.043  0.00  0.00    +0.024 HD
ATOM     71  H   UNL     1     141.946 174.485 194.992  0.00  0.00    +0.024 HD
ENDBRANCH  65  68
ENDBRANCH  62  65
ENDBRANCH  57  62
ENDBRANCH  55  58
BRANCH  55  72
ATOM     72  C   UNL     1     142.708 171.039 191.280  0.00  0.00    -0.057 C 
ATOM     73  H   UNL     1     142.639 170.246 192.035  0.00  0.00    +0.024 HD
ATOM     74  H   UNL     1     142.322 170.626 190.343  0.00  0.00    +0.024 HD
ATOM     75  H   UNL     1     142.041 171.840 191.612  0.00  0.00    +0.024 HD
ENDBRANCH  55  72
ENDBRANCH  53  55
BRANCH  53  76
ATOM     76  O   UNL     1     145.300 172.156 189.135  0.00  0.00    -0.379 OA
BRANCH  76  77
ATOM     77  C   UNL     1     144.558 172.323 187.932  0.00  0.00    +0.037 C 
ATOM     78  H   UNL     1     143.582 171.835 188.012  0.00  0.00    +0.052 HD
ATOM     79  H   UNL     1     144.396 173.392 187.777  0.00  0.00    +0.052 HD
ATOM     80  H   UNL     1     145.106 171.930 187.073  0.00  0.00    +0.052 HD
ENDBRANCH  76  77
ENDBRANCH  53  76
ENDBRANCH  47  53
ENDBRANCH   1  47
BRANCH   1  81
ATOM     81  O   UNL     1     148.020 171.467 190.795  0.00  0.00    -0.461 OA
BRANCH  81  82
ATOM     82  C   UNL     1     147.917 172.687 191.393  0.00  0.00    +0.310 C 
ATOM     83  O   UNL     1     147.736 173.747 190.807  0.00  0.00    -0.251 OA
BRANCH  82  84
ATOM     84  C   UNL     1     148.044 172.576 192.899  0.00  0.00    +0.051 C 
ATOM     85  H   UNL     1     147.714 171.564 193.169  0.00  0.00    +0.041 HD
BRANCH  84  86
ATOM     86  C   UNL     1     149.496 172.736 193.336  0.00  0.00    -0.053 C 
ATOM     87  H   UNL     1     150.163 172.758 192.468  0.00  0.00    +0.024 HD
ATOM     88  H   UNL     1     149.799 171.904 193.979  0.00  0.00    +0.024 HD
ATOM     89  H   UNL     1     149.647 173.667 193.892  0.00  0.00    +0.024 HD
ENDBRANCH  84  86
BRANCH  84  90
ATOM     90  C   UNL     1     147.125 173.571 193.596  0.00  0.00    -0.053 C 
ATOM     91  H   UNL     1     146.078 173.387 193.329  0.00  0.00    +0.024 HD
ATOM     92  H   UNL     1     147.359 174.603 193.316  0.00  0.00    +0.024 HD
ATOM     93  H   UNL     1     147.217 173.489 194.684  0.00  0.00    +0.024 HD
ENDBRANCH  84  90
ENDBRANCH  82  84
ENDBRANCH  81  82
ENDBRANCH   1  81
TORSDOF 32
ENDMDL
MODEL 2
REMARK VINA RESULT:      -5.4      3.387      9.788
REMARK  Name = 2c_conf3
REMARK  32 active torsions:
REMARK  status: ('A' for Active; 'I' for Inactive)
REMARK    1  A    between atoms: N_2  and  C_3
REMARK    2  A    between atoms: N_2  and  C_5
REMARK    3  A    between atoms: C_3  and  C_4
REMARK    4  A    between atoms: C_6  and  C_7
REMARK    5  A    between atoms: C_7  and  C_8
REMARK    6  A    between atoms: C_7  and  C_9
REMARK    7  A    between atoms: C_9  and  O_10
REMARK    8  A    between atoms: C_9  and  C_12
REMARK    9  A    between atoms: O_10  and  C_11
REMARK   10  A    between atoms: C_12  and  C_13
REMARK   11  A    between atoms: C_12  and  C_14
REMARK   12  A    between atoms: C_14  and  O_15
REMARK   13  A    between atoms: C_14  and  C_21
REMARK   14  A    between atoms: O_15  and  C_16
REMARK   15  A    between atoms: C_16  and  C_17
REMARK   16  A    between atoms: C_17  and  C_18
REMARK   17  A    between atoms: C_17  and  C_19
REMARK   18  A    between atoms: C_21  and  C_22
REMARK   19  A    between atoms: C_22  and  C_23
REMARK   20  A    between atoms: C_23  and  C_24
REMARK   21  A    between atoms: C_23  and  C_25
REMARK   22  A    between atoms: C_25  and  O_26
REMARK   23  A    between atoms: C_25  and  C_28
REMARK   24  A    between atoms: O_26  and  C_27
REMARK   25  A    between atoms: C_28  and  C_29
REMARK   26  A    between atoms: C_29  and  O_30
REMARK   27  A    between atoms: C_29  and  C_35
REMARK   28  A    between atoms: O_30  and  C_31
REMARK   29  A    between atoms: C_31  and  C_32
REMARK   30  A    between atoms: C_32  and  C_33
REMARK   31  A    between atoms: C_35  and  C_36
REMARK   32  A    between atoms: C_35  and  C_37
REMARK                            x       y       z     vdW  Elec       q    Type
REMARK                         _______ _______ _______ _____ _____    ______ ____
ROOT
ATOM      1  C   UNL     1     150.375 166.743 193.617  0.00  0.00    +0.108 C 
ATOM      2  H   UNL     1     150.536 167.654 194.199  0.00  0.00    +0.074 HD
ENDROOT
BRANCH   1   3
ATOM      3  C   UNL     1     149.199 166.983 192.642  0.00  0.00    -0.015 C 
ATOM      4  H   UNL     1     149.472 166.621 191.646  0.00  0.00    +0.030 HD
ATOM      5  H   UNL     1     148.343 166.387 192.982  0.00  0.00    +0.030 HD
BRANCH   3   6
ATOM      6  C   UNL     1     148.754 168.452 192.561  0.00  0.00    -0.045 C 
ATOM      7  H   UNL     1     147.663 168.459 192.440  0.00  0.00    +0.027 HD
ATOM      8  H   UNL     1     148.946 168.936 193.521  0.00  0.00    +0.027 HD
BRANCH   6   9
ATOM      9  C   UNL     1     149.328 169.290 191.392  0.00  0.00    -0.017 C 
ATOM     10  H   UNL     1     149.595 168.571 190.602  0.00  0.00    +0.032 HD
BRANCH   9  11
ATOM     11  C   UNL     1     150.650 169.978 191.756  0.00  0.00    -0.060 C 
ATOM     12  H   UNL     1     150.636 171.037 191.475  0.00  0.00    +0.023 HD
ATOM     13  H   UNL     1     151.487 169.523 191.217  0.00  0.00    +0.023 HD
ATOM     14  H   UNL     1     150.855 169.916 192.829  0.00  0.00    +0.023 HD
ENDBRANCH   9  11
BRANCH   9  15
ATOM     15  C   UNL     1     148.295 170.268 190.744  0.00  0.00    +0.064 C 
ATOM     16  H   UNL     1     148.401 170.261 189.651  0.00  0.00    +0.060 HD
BRANCH  15  17
ATOM     17  C   UNL     1     148.493 171.707 191.279  0.00  0.00    +0.011 C 
ATOM     18  H   UNL     1     149.431 171.725 191.844  0.00  0.00    +0.033 HD
ATOM     19  H   UNL     1     148.606 172.391 190.431  0.00  0.00    +0.033 HD
BRANCH  17  20
ATOM     20  C   UNL     1     147.370 172.247 192.189  0.00  0.00    +0.108 C 
ATOM     21  H   UNL     1     146.648 171.443 192.377  0.00  0.00    +0.074 HD
BRANCH  20  22
ATOM     22  C   UNL     1     147.936 172.752 193.551  0.00  0.00    -0.009 C 
ATOM     23  H   UNL     1     147.733 171.989 194.313  0.00  0.00    +0.033 HD
BRANCH  22  24
ATOM     24  C   UNL     1     147.290 174.066 194.006  0.00  0.00    -0.059 C 
ATOM     25  H   UNL     1     147.510 174.876 193.302  0.00  0.00    +0.023 HD
ATOM     26  H   UNL     1     146.203 173.967 194.078  0.00  0.00    +0.023 HD
ATOM     27  H   UNL     1     147.673 174.387 194.979  0.00  0.00    +0.023 HD
ENDBRANCH  22  24
BRANCH  22  28
ATOM     28  C   UNL     1     149.458 172.941 193.517  0.00  0.00    -0.059 C 
ATOM     29  H   UNL     1     149.927 172.250 192.808  0.00  0.00    +0.023 HD
ATOM     30  H   UNL     1     149.901 172.785 194.505  0.00  0.00    +0.023 HD
ATOM     31  H   UNL     1     149.717 173.961 193.212  0.00  0.00    +0.023 HD
ENDBRANCH  22  28
ENDBRANCH  20  22
BRANCH  20  32
ATOM     32  O   UNL     1     146.752 173.358 191.503  0.00  0.00    -0.461 OA
BRANCH  32  33
ATOM     33  C   UNL     1     145.749 173.062 190.625  0.00  0.00    +0.307 C 
ATOM     34  O   UNL     1     145.863 173.007 189.408  0.00  0.00    -0.251 OA
BRANCH  33  35
ATOM     35  C   UNL     1     144.467 172.826 191.380  0.00  0.00    +0.042 C 
ATOM     36  H   UNL     1     143.688 172.538 190.667  0.00  0.00    +0.037 HD
ATOM     37  H   UNL     1     144.635 172.009 192.088  0.00  0.00    +0.037 HD
BRANCH  35  38
ATOM     38  C   UNL     1     144.012 174.066 192.130  0.00  0.00    -0.055 C 
ATOM     39  H   UNL     1     144.760 174.860 192.041  0.00  0.00    +0.023 HD
ATOM     40  H   UNL     1     143.861 173.846 193.193  0.00  0.00    +0.023 HD
ATOM     41  H   UNL     1     143.064 174.441 191.728  0.00  0.00    +0.023 HD
ENDBRANCH  35  38
ENDBRANCH  33  35
ENDBRANCH  32  33
ENDBRANCH  20  32
ENDBRANCH  17  20
ENDBRANCH  15  17
BRANCH  15  42
ATOM     42  O   UNL     1     146.981 169.849 191.139  0.00  0.00    -0.379 OA
BRANCH  42  43
ATOM     43  C   UNL     1     146.178 169.403 190.056  0.00  0.00    +0.037 C 
ATOM     44  H   UNL     1     146.808 168.823 189.375  0.00  0.00    +0.052 HD
ATOM     45  H   UNL     1     145.364 168.765 190.409  0.00  0.00    +0.052 HD
ATOM     46  H   UNL     1     145.763 170.251 189.505  0.00  0.00    +0.052 HD
ENDBRANCH  42  43
ENDBRANCH  15  42
ENDBRANCH   9  15
ENDBRANCH   6   9
ENDBRANCH   3   6
ENDBRANCH   1   3
BRANCH   1  47
ATOM     47  C   UNL     1     151.689 166.349 192.893  0.00  0.00    +0.020 C 
ATOM     48  H   UNL     1     152.008 165.403 193.355  0.00  0.00    +0.036 HD
BRANCH  47  49
ATOM     49  C   UNL     1     152.829 167.316 193.254  0.00  0.00    -0.057 C 
ATOM     50  H   UNL     1     152.885 167.499 194.332  0.00  0.00    +0.023 HD
ATOM     51  H   UNL     1     153.799 166.950 192.904  0.00  0.00    +0.023 HD
ATOM     52  H   UNL     1     152.667 168.291 192.781  0.00  0.00    +0.023 HD
ENDBRANCH  47  49
BRANCH  47  53
ATOM     53  C   UNL     1     151.569 166.062 191.370  0.00  0.00    +0.070 C 
ATOM     54  H   UNL     1     150.527 166.240 191.071  0.00  0.00    +0.061 HD
BRANCH  53  55
ATOM     55  C   UNL     1     152.452 166.833 190.344  0.00  0.00    +0.002 C 
ATOM     56  H   UNL     1     152.828 167.707 190.901  0.00  0.00    +0.037 HD
BRANCH  55  58
ATOM     57  C   UNL     1     154.475 166.546 188.902  0.00  0.00    -0.005 C 
ATOM     58  C   UNL     1     153.658 166.063 189.849  0.00  0.00    -0.065 C 
ATOM     59  H   UNL     1     154.270 167.537 188.497  0.00  0.00    +0.078 HD
ATOM     60  H   UNL     1     153.795 165.076 190.275  0.00  0.00    +0.059 HD
BRANCH  57  62
ATOM     61  C   UNL     1     156.392 164.998 188.987  0.00  0.00    +0.206 C 
ATOM     62  N   UNL     1     155.575 165.917 188.337  0.00  0.00    -0.281 N 
ATOM     63  O   UNL     1     157.332 164.395 188.479  0.00  0.00    -0.279 OA
ATOM     64  H   UNL     1     156.131 164.829 190.041  0.00  0.00    +0.126 HD
BRANCH  62  65
ATOM     65  C   UNL     1     155.866 166.192 186.925  0.00  0.00    +0.016 C 
ATOM     66  H   UNL     1     156.517 167.073 186.855  0.00  0.00    +0.047 HD
ATOM     67  H   UNL     1     156.428 165.352 186.499  0.00  0.00    +0.047 HD
BRANCH  65  68
ATOM     68  C   UNL     1     154.596 166.403 186.112  0.00  0.00    -0.049 C 
ATOM     69  H   UNL     1     154.127 165.439 185.884  0.00  0.00    +0.024 HD
ATOM     70  H   UNL     1     154.811 166.911 185.165  0.00  0.00    +0.024 HD
ATOM     71  H   UNL     1     153.873 167.012 186.663  0.00  0.00    +0.024 HD
ENDBRANCH  65  68
ENDBRANCH  62  65
ENDBRANCH  57  62
ENDBRANCH  55  58
BRANCH  55  72
ATOM     72  C   UNL     1     151.710 167.454 189.156  0.00  0.00    -0.057 C 
ATOM     73  H   UNL     1     151.474 168.505 189.363  0.00  0.00    +0.024 HD
ATOM     74  H   UNL     1     150.761 166.945 188.959  0.00  0.00    +0.024 HD
ATOM     75  H   UNL     1     152.309 167.445 188.241  0.00  0.00    +0.024 HD
ENDBRANCH  55  72
ENDBRANCH  53  55
BRANCH  53  76
ATOM     76  O   UNL     1     151.846 164.659 191.142  0.00  0.00    -0.379 OA
BRANCH  76  77
ATOM     77  C   UNL     1     150.744 163.936 190.607  0.00  0.00    +0.037 C 
ATOM     78  H   UNL     1     150.979 163.562 189.607  0.00  0.00    +0.052 HD
ATOM     79  H   UNL     1     150.549 163.080 191.258  0.00  0.00    +0.052 HD
ATOM     80  H   UNL     1     149.844 164.555 190.576  0.00  0.00    +0.052 HD
ENDBRANCH  76  77
ENDBRANCH  53  76
ENDBRANCH  47  53
ENDBRANCH   1  47
BRANCH   1  81
ATOM     81  O   UNL     1     150.027 165.642 194.494  0.00  0.00    -0.461 OA
BRANCH  81  82
ATOM     82  C   UNL     1     149.985 165.901 195.831  0.00  0.00    +0.310 C 
ATOM     83  O   UNL     1     150.963 166.046 196.553  0.00  0.00    -0.251 OA
BRANCH  82  84
ATOM     84  C   UNL     1     148.557 166.003 196.328  0.00  0.00    +0.051 C 
ATOM     85  H   UNL     1     148.411 165.179 197.039  0.00  0.00    +0.041 HD
BRANCH  84  86
ATOM     86  C   UNL     1     148.331 167.317 197.068  0.00  0.00    -0.053 C 
ATOM     87  H   UNL     1     147.437 167.260 197.697  0.00  0.00    +0.024 HD
ATOM     88  H   UNL     1     148.198 168.141 196.359  0.00  0.00    +0.024 HD
ATOM     89  H   UNL     1     149.178 167.562 197.718  0.00  0.00    +0.024 HD
ENDBRANCH  84  86
BRANCH  84  90
ATOM     90  C   UNL     1     147.570 165.815 195.183  0.00  0.00    -0.053 C 
ATOM     91  H   UNL     1     147.188 166.782 194.835  0.00  0.00    +0.024 HD
ATOM     92  H   UNL     1     146.709 165.211 195.486  0.00  0.00    +0.024 HD
ATOM     93  H   UNL     1     148.050 165.315 194.335  0.00  0.00    +0.024 HD
ENDBRANCH  84  90
ENDBRANCH  82  84
ENDBRANCH  81  82
ENDBRANCH   1  81
TORSDOF 32
ENDMDL
MODEL 3
REMARK VINA RESULT:      -5.4      2.240      3.911
REMARK  Name = 2c_conf3
REMARK  32 active torsions:
REMARK  status: ('A' for Active; 'I' for Inactive)
REMARK    1  A    between atoms: N_2  and  C_3
REMARK    2  A    between atoms: N_2  and  C_5
REMARK    3  A    between atoms: C_3  and  C_4
REMARK    4  A    between atoms: C_6  and  C_7
REMARK    5  A    between atoms: C_7  and  C_8
REMARK    6  A    between atoms: C_7  and  C_9
REMARK    7  A    between atoms: C_9  and  O_10
REMARK    8  A    between atoms: C_9  and  C_12
REMARK    9  A    between atoms: O_10  and  C_11
REMARK   10  A    between atoms: C_12  and  C_13
REMARK   11  A    between atoms: C_12  and  C_14
REMARK   12  A    between atoms: C_14  and  O_15
REMARK   13  A    between atoms: C_14  and  C_21
REMARK   14  A    between atoms: O_15  and  C_16
REMARK   15  A    between atoms: C_16  and  C_17
REMARK   16  A    between atoms: C_17  and  C_18
REMARK   17  A    between atoms: C_17  and  C_19
REMARK   18  A    between atoms: C_21  and  C_22
REMARK   19  A    between atoms: C_22  and  C_23
REMARK   20  A    between atoms: C_23  and  C_24
REMARK   21  A    between atoms: C_23  and  C_25
REMARK   22  A    between atoms: C_25  and  O_26
REMARK   23  A    between atoms: C_25  and  C_28
REMARK   24  A    between atoms: O_26  and  C_27
REMARK   25  A    between atoms: C_28  and  C_29
REMARK   26  A    between atoms: C_29  and  O_30
REMARK   27  A    between atoms: C_29  and  C_35
REMARK   28  A    between atoms: O_30  and  C_31
REMARK   29  A    between atoms: C_31  and  C_32
REMARK   30  A    between atoms: C_32  and  C_33
REMARK   31  A    between atoms: C_35  and  C_36
REMARK   32  A    between atoms: C_35  and  C_37
REMARK                            x       y       z     vdW  Elec       q    Type
REMARK                         _______ _______ _______ _____ _____    ______ ____
ROOT
ATOM      1  C   UNL     1     147.240 170.604 191.521  0.00  0.00    +0.108 C 
ATOM      2  H   UNL     1     146.735 171.088 192.360  0.00  0.00    +0.074 HD
ENDROOT
BRANCH   1   3
ATOM      3  C   UNL     1     147.961 169.339 192.043  0.00  0.00    -0.015 C 
ATOM      4  H   UNL     1     148.113 169.426 193.123  0.00  0.00    +0.030 HD
ATOM      5  H   UNL     1     147.306 168.476 191.874  0.00  0.00    +0.030 HD
BRANCH   3   6
ATOM      6  C   UNL     1     149.302 169.062 191.346  0.00  0.00    -0.045 C 
ATOM      7  H   UNL     1     149.188 168.135 190.769  0.00  0.00    +0.027 HD
ATOM      8  H   UNL     1     149.490 169.845 190.608  0.00  0.00    +0.027 HD
BRANCH   6   9
ATOM      9  C   UNL     1     150.534 168.857 192.263  0.00  0.00    -0.017 C 
ATOM     10  H   UNL     1     150.183 169.034 193.291  0.00  0.00    +0.032 HD
BRANCH   9  11
ATOM     11  C   UNL     1     151.620 169.915 192.033  0.00  0.00    -0.060 C 
ATOM     12  H   UNL     1     151.684 170.607 192.879  0.00  0.00    +0.023 HD
ATOM     13  H   UNL     1     151.392 170.521 191.150  0.00  0.00    +0.023 HD
ATOM     14  H   UNL     1     152.605 169.459 191.894  0.00  0.00    +0.023 HD
ENDBRANCH   9  11
BRANCH   9  15
ATOM     15  C   UNL     1     151.098 167.399 192.252  0.00  0.00    +0.064 C 
ATOM     16  H   UNL     1     150.498 166.765 191.586  0.00  0.00    +0.060 HD
BRANCH  15  17
ATOM     17  C   UNL     1     151.097 166.802 193.681  0.00  0.00    +0.011 C 
ATOM     18  H   UNL     1     152.100 166.408 193.877  0.00  0.00    +0.033 HD
ATOM     19  H   UNL     1     150.910 167.604 194.403  0.00  0.00    +0.033 HD
BRANCH  17  20
ATOM     20  C   UNL     1     150.076 165.673 193.938  0.00  0.00    +0.108 C 
ATOM     21  H   UNL     1     150.556 164.708 193.737  0.00  0.00    +0.074 HD
BRANCH  20  22
ATOM     22  C   UNL     1     149.565 165.694 195.410  0.00  0.00    -0.009 C 
ATOM     23  H   UNL     1     149.338 164.663 195.710  0.00  0.00    +0.033 HD
BRANCH  22  24
ATOM     24  C   UNL     1     148.293 166.532 195.581  0.00  0.00    -0.059 C 
ATOM     25  H   UNL     1     148.535 167.558 195.874  0.00  0.00    +0.023 HD
ATOM     26  H   UNL     1     147.720 166.573 194.649  0.00  0.00    +0.023 HD
ATOM     27  H   UNL     1     147.646 166.128 196.366  0.00  0.00    +0.023 HD
ENDBRANCH  22  24
BRANCH  22  28
ATOM     28  C   UNL     1     150.626 166.210 196.389  0.00  0.00    -0.059 C 
ATOM     29  H   UNL     1     151.406 165.460 196.559  0.00  0.00    +0.023 HD
ATOM     30  H   UNL     1     150.182 166.479 197.353  0.00  0.00    +0.023 HD
ATOM     31  H   UNL     1     151.108 167.114 196.001  0.00  0.00    +0.023 HD
ENDBRANCH  22  28
ENDBRANCH  20  22
BRANCH  20  32
ATOM     32  O   UNL     1     148.954 165.895 193.054  0.00  0.00    -0.461 OA
BRANCH  32  33
ATOM     33  C   UNL     1     148.516 164.824 192.330  0.00  0.00    +0.307 C 
ATOM     34  O   UNL     1     148.850 163.661 192.506  0.00  0.00    -0.251 OA
BRANCH  33  35
ATOM     35  C   UNL     1     147.565 165.292 191.258  0.00  0.00    +0.042 C 
ATOM     36  H   UNL     1     148.106 165.953 190.574  0.00  0.00    +0.037 HD
ATOM     37  H   UNL     1     147.209 164.413 190.713  0.00  0.00    +0.037 HD
BRANCH  35  38
ATOM     38  C   UNL     1     146.382 166.048 191.838  0.00  0.00    -0.055 C 
ATOM     39  H   UNL     1     145.459 165.764 191.321  0.00  0.00    +0.023 HD
ATOM     40  H   UNL     1     146.521 167.130 191.736  0.00  0.00    +0.023 HD
ATOM     41  H   UNL     1     146.260 165.826 192.905  0.00  0.00    +0.023 HD
ENDBRANCH  35  38
ENDBRANCH  33  35
ENDBRANCH  32  33
ENDBRANCH  20  32
ENDBRANCH  17  20
ENDBRANCH  15  17
BRANCH  15  42
ATOM     42  O   UNL     1     152.465 167.455 191.821  0.00  0.00    -0.379 OA
BRANCH  42  43
ATOM     43  C   UNL     1     152.730 166.664 190.671  0.00  0.00    +0.037 C 
ATOM     44  H   UNL     1     151.775 166.380 190.220  0.00  0.00    +0.052 HD
ATOM     45  H   UNL     1     153.312 167.225 189.936  0.00  0.00    +0.052 HD
ATOM     46  H   UNL     1     153.268 165.752 190.943  0.00  0.00    +0.052 HD
ENDBRANCH  42  43
ENDBRANCH  15  42
ENDBRANCH   9  15
ENDBRANCH   6   9
ENDBRANCH   3   6
ENDBRANCH   1   3
BRANCH   1  47
ATOM     47  C   UNL     1     146.210 170.293 190.403  0.00  0.00    +0.020 C 
ATOM     48  H   UNL     1     145.820 169.291 190.632  0.00  0.00    +0.036 HD
BRANCH  47  49
ATOM     49  C   UNL     1     146.909 170.094 189.048  0.00  0.00    -0.057 C 
ATOM     50  H   UNL     1     147.901 170.557 189.027  0.00  0.00    +0.023 HD
ATOM     51  H   UNL     1     147.005 169.035 188.791  0.00  0.00    +0.023 HD
ATOM     52  H   UNL     1     146.329 170.565 188.246  0.00  0.00    +0.023 HD
ENDBRANCH  47  49
BRANCH  47  53
ATOM     53  C   UNL     1     144.971 171.231 190.336  0.00  0.00    +0.070 C 
ATOM     54  H   UNL     1     145.042 171.823 189.414  0.00  0.00    +0.061 HD
BRANCH  53  55
ATOM     55  C   UNL     1     143.528 170.645 190.366  0.00  0.00    +0.002 C 
ATOM     56  H   UNL     1     143.025 171.101 189.497  0.00  0.00    +0.037 HD
BRANCH  55  58
ATOM     57  C   UNL     1     142.831 168.348 191.069  0.00  0.00    -0.005 C 
ATOM     58  C   UNL     1     143.457 169.143 190.189  0.00  0.00    -0.065 C 
ATOM     59  H   UNL     1     142.339 168.811 191.926  0.00  0.00    +0.078 HD
ATOM     60  H   UNL     1     143.983 168.743 189.330  0.00  0.00    +0.059 HD
BRANCH  57  62
ATOM     61  C   UNL     1     142.999 166.169 189.929  0.00  0.00    +0.206 C 
ATOM     62  N   UNL     1     142.741 166.965 191.041  0.00  0.00    -0.281 N 
ATOM     63  O   UNL     1     142.977 164.942 189.909  0.00  0.00    -0.279 OA
ATOM     64  H   UNL     1     143.241 166.734 189.018  0.00  0.00    +0.126 HD
BRANCH  62  65
ATOM     65  C   UNL     1     142.410 166.278 192.295  0.00  0.00    +0.016 C 
ATOM     66  H   UNL     1     141.331 166.083 192.326  0.00  0.00    +0.047 HD
ATOM     67  H   UNL     1     142.906 165.300 192.316  0.00  0.00    +0.047 HD
BRANCH  65  68
ATOM     68  C   UNL     1     142.842 167.080 193.515  0.00  0.00    -0.049 C 
ATOM     69  H   UNL     1     142.749 166.471 194.421  0.00  0.00    +0.024 HD
ATOM     70  H   UNL     1     142.223 167.976 193.640  0.00  0.00    +0.024 HD
ATOM     71  H   UNL     1     143.884 167.402 193.426  0.00  0.00    +0.024 HD
ENDBRANCH  65  68
ENDBRANCH  62  65
ENDBRANCH  57  62
ENDBRANCH  55  58
BRANCH  55  72
ATOM     72  C   UNL     1     142.657 171.070 191.552  0.00  0.00    -0.057 C 
ATOM     73  H   UNL     1     143.234 171.701 192.240  0.00  0.00    +0.024 HD
ATOM     74  H   UNL     1     142.305 170.207 192.126  0.00  0.00    +0.024 HD
ATOM     75  H   UNL     1     141.792 171.662 191.242  0.00  0.00    +0.024 HD
ENDBRANCH  55  72
ENDBRANCH  53  55
BRANCH  53  76
ATOM     76  O   UNL     1     145.036 172.158 191.446  0.00  0.00    -0.379 OA
BRANCH  76  77
ATOM     77  C   UNL     1     144.922 173.523 191.061  0.00  0.00    +0.037 C 
ATOM     78  H   UNL     1     145.715 174.120 191.521  0.00  0.00    +0.052 HD
ATOM     79  H   UNL     1     145.034 173.582 189.975  0.00  0.00    +0.052 HD
ATOM     80  H   UNL     1     143.943 173.928 191.327  0.00  0.00    +0.052 HD
ENDBRANCH  76  77
ENDBRANCH  53  76
ENDBRANCH  47  53
ENDBRANCH   1  47
BRANCH   1  81
ATOM     81  O   UNL     1     148.230 171.494 190.948  0.00  0.00    -0.461 OA
BRANCH  81  82
ATOM     82  C   UNL     1     148.399 172.706 191.549  0.00  0.00    +0.310 C 
ATOM     83  O   UNL     1     148.541 173.771 190.962  0.00  0.00    -0.251 OA
BRANCH  82  84
ATOM     84  C   UNL     1     148.377 172.579 193.059  0.00  0.00    +0.051 C 
ATOM     85  H   UNL     1     147.997 171.575 193.286  0.00  0.00    +0.041 HD
BRANCH  84  86
ATOM     86  C   UNL     1     149.784 172.697 193.635  0.00  0.00    -0.053 C 
ATOM     87  H   UNL     1     150.062 173.747 193.771  0.00  0.00    +0.024 HD
ATOM     88  H   UNL     1     150.515 172.234 192.964  0.00  0.00    +0.024 HD
ATOM     89  H   UNL     1     149.861 172.206 194.611  0.00  0.00    +0.024 HD
ENDBRANCH  84  86
BRANCH  84  90
ATOM     90  C   UNL     1     147.422 173.594 193.675  0.00  0.00    -0.053 C 
ATOM     91  H   UNL     1     147.006 174.254 192.906  0.00  0.00    +0.024 HD
ATOM     92  H   UNL     1     147.924 174.226 194.414  0.00  0.00    +0.024 HD
ATOM     93  H   UNL     1     146.589 173.088 194.175  0.00  0.00    +0.024 HD
ENDBRANCH  84  90
ENDBRANCH  82  84
ENDBRANCH  81  82
ENDBRANCH   1  81
TORSDOF 32
ENDMDL
MODEL 4
REMARK VINA RESULT:      -5.3      2.707      4.838
REMARK  Name = 2c_conf3
REMARK  32 active torsions:
REMARK  status: ('A' for Active; 'I' for Inactive)
REMARK    1  A    between atoms: N_2  and  C_3
REMARK    2  A    between atoms: N_2  and  C_5
REMARK    3  A    between atoms: C_3  and  C_4
REMARK    4  A    between atoms: C_6  and  C_7
REMARK    5  A    between atoms: C_7  and  C_8
REMARK    6  A    between atoms: C_7  and  C_9
REMARK    7  A    between atoms: C_9  and  O_10
REMARK    8  A    between atoms: C_9  and  C_12
REMARK    9  A    between atoms: O_10  and  C_11
REMARK   10  A    between atoms: C_12  and  C_13
REMARK   11  A    between atoms: C_12  and  C_14
REMARK   12  A    between atoms: C_14  and  O_15
REMARK   13  A    between atoms: C_14  and  C_21
REMARK   14  A    between atoms: O_15  and  C_16
REMARK   15  A    between atoms: C_16  and  C_17
REMARK   16  A    between atoms: C_17  and  C_18
REMARK   17  A    between atoms: C_17  and  C_19
REMARK   18  A    between atoms: C_21  and  C_22
REMARK   19  A    between atoms: C_22  and  C_23
REMARK   20  A    between atoms: C_23  and  C_24
REMARK   21  A    between atoms: C_23  and  C_25
REMARK   22  A    between atoms: C_25  and  O_26
REMARK   23  A    between atoms: C_25  and  C_28
REMARK   24  A    between atoms: O_26  and  C_27
REMARK   25  A    between atoms: C_28  and  C_29
REMARK   26  A    between atoms: C_29  and  O_30
REMARK   27  A    between atoms: C_29  and  C_35
REMARK   28  A    between atoms: O_30  and  C_31
REMARK   29  A    between atoms: C_31  and  C_32
REMARK   30  A    between atoms: C_32  and  C_33
REMARK   31  A    between atoms: C_35  and  C_36
REMARK   32  A    between atoms: C_35  and  C_37
REMARK                            x       y       z     vdW  Elec       q    Type
REMARK                         _______ _______ _______ _____ _____    ______ ____
ROOT
ATOM      1  C   UNL     1     147.184 169.990 191.228  0.00  0.00    +0.108 C 
ATOM      2  H   UNL     1     146.550 170.360 192.037  0.00  0.00    +0.074 HD
ENDROOT
BRANCH   1   3
ATOM      3  C   UNL     1     148.102 168.879 191.789  0.00  0.00    -0.015 C 
ATOM      4  H   UNL     1     148.156 168.966 192.878  0.00  0.00    +0.030 HD
ATOM      5  H   UNL     1     147.644 167.908 191.562  0.00  0.00    +0.030 HD
BRANCH   3   6
ATOM      6  C   UNL     1     149.518 168.889 191.192  0.00  0.00    -0.045 C 
ATOM      7  H   UNL     1     149.574 168.070 190.464  0.00  0.00    +0.027 HD
ATOM      8  H   UNL     1     149.655 169.805 190.614  0.00  0.00    +0.027 HD
BRANCH   6   9
ATOM      9  C   UNL     1     150.692 168.676 192.180  0.00  0.00    -0.017 C 
ATOM     10  H   UNL     1     150.267 168.794 193.189  0.00  0.00    +0.032 HD
BRANCH   9  11
ATOM     11  C   UNL     1     151.757 169.774 192.073  0.00  0.00    -0.060 C 
ATOM     12  H   UNL     1     152.343 169.849 192.995  0.00  0.00    +0.023 HD
ATOM     13  H   UNL     1     151.291 170.753 191.919  0.00  0.00    +0.023 HD
ATOM     14  H   UNL     1     152.449 169.586 191.247  0.00  0.00    +0.023 HD
ENDBRANCH   9  11
BRANCH   9  15
ATOM     15  C   UNL     1     151.301 167.236 192.142  0.00  0.00    +0.064 C 
ATOM     16  H   UNL     1     150.581 166.532 191.705  0.00  0.00    +0.060 HD
BRANCH  15  17
ATOM     17  C   UNL     1     151.690 166.769 193.566  0.00  0.00    +0.011 C 
ATOM     18  H   UNL     1     152.664 166.273 193.498  0.00  0.00    +0.033 HD
ATOM     19  H   UNL     1     151.812 167.647 194.209  0.00  0.00    +0.033 HD
BRANCH  17  20
ATOM     20  C   UNL     1     150.702 165.802 194.251  0.00  0.00    +0.108 C 
ATOM     21  H   UNL     1     150.779 164.818 193.772  0.00  0.00    +0.074 HD
BRANCH  20  22
ATOM     22  C   UNL     1     151.011 165.656 195.771  0.00  0.00    -0.009 C 
ATOM     23  H   UNL     1     151.965 166.158 195.978  0.00  0.00    +0.033 HD
BRANCH  22  24
ATOM     24  C   UNL     1     151.135 164.193 196.209  0.00  0.00    -0.059 C 
ATOM     25  H   UNL     1     150.633 164.026 197.168  0.00  0.00    +0.023 HD
ATOM     26  H   UNL     1     150.687 163.520 195.471  0.00  0.00    +0.023 HD
ATOM     27  H   UNL     1     152.181 163.902 196.351  0.00  0.00    +0.023 HD
ENDBRANCH  22  24
BRANCH  22  28
ATOM     28  C   UNL     1     149.958 166.342 196.650  0.00  0.00    -0.059 C 
ATOM     29  H   UNL     1     148.960 165.927 196.469  0.00  0.00    +0.023 HD
ATOM     30  H   UNL     1     149.927 167.421 196.467  0.00  0.00    +0.023 HD
ATOM     31  H   UNL     1     150.190 166.209 197.712  0.00  0.00    +0.023 HD
ENDBRANCH  22  28
ENDBRANCH  20  22
BRANCH  20  32
ATOM     32  O   UNL     1     149.376 166.357 194.097  0.00  0.00    -0.461 OA
BRANCH  32  33
ATOM     33  C   UNL     1     148.398 165.510 193.663  0.00  0.00    +0.307 C 
ATOM     34  O   UNL     1     148.563 164.551 192.924  0.00  0.00    -0.251 OA
BRANCH  33  35
ATOM     35  C   UNL     1     147.067 165.945 194.222  0.00  0.00    +0.042 C 
ATOM     36  H   UNL     1     146.683 165.151 194.871  0.00  0.00    +0.037 HD
ATOM     37  H   UNL     1     147.227 166.853 194.811  0.00  0.00    +0.037 HD
BRANCH  35  38
ATOM     38  C   UNL     1     146.051 166.219 193.127  0.00  0.00    -0.055 C 
ATOM     39  H   UNL     1     145.425 167.076 193.394  0.00  0.00    +0.023 HD
ATOM     40  H   UNL     1     145.404 165.349 192.968  0.00  0.00    +0.023 HD
ATOM     41  H   UNL     1     146.550 166.441 192.177  0.00  0.00    +0.023 HD
ENDBRANCH  35  38
ENDBRANCH  33  35
ENDBRANCH  32  33
ENDBRANCH  20  32
ENDBRANCH  17  20
ENDBRANCH  15  17
BRANCH  15  42
ATOM     42  O   UNL     1     152.509 167.286 191.370  0.00  0.00    -0.379 OA
BRANCH  42  43
ATOM     43  C   UNL     1     152.423 166.590 190.135  0.00  0.00    +0.037 C 
ATOM     44  H   UNL     1     152.211 167.316 189.344  0.00  0.00    +0.052 HD
ATOM     45  H   UNL     1     153.364 166.085 189.905  0.00  0.00    +0.052 HD
ATOM     46  H   UNL     1     151.612 165.858 190.159  0.00  0.00    +0.052 HD
ENDBRANCH  42  43
ENDBRANCH  15  42
ENDBRANCH   9  15
ENDBRANCH   6   9
ENDBRANCH   3   6
ENDBRANCH   1   3
BRANCH   1  47
ATOM     47  C   UNL     1     146.297 169.503 190.052  0.00  0.00    +0.020 C 
ATOM     48  H   UNL     1     146.311 168.405 190.107  0.00  0.00    +0.036 HD
BRANCH  47  49
ATOM     49  C   UNL     1     146.966 169.794 188.698  0.00  0.00    -0.057 C 
ATOM     50  H   UNL     1     147.359 170.815 188.647  0.00  0.00    +0.023 HD
ATOM     51  H   UNL     1     147.774 169.089 188.485  0.00  0.00    +0.023 HD
ATOM     52  H   UNL     1     146.237 169.700 187.885  0.00  0.00    +0.023 HD
ENDBRANCH  47  49
BRANCH  47  53
ATOM     53  C   UNL     1     144.798 169.916 190.112  0.00  0.00    +0.070 C 
ATOM     54  H   UNL     1     144.576 170.518 189.221  0.00  0.00    +0.061 HD
BRANCH  53  55
ATOM     55  C   UNL     1     143.679 168.836 190.196  0.00  0.00    +0.002 C 
ATOM     56  H   UNL     1     142.815 169.290 189.682  0.00  0.00    +0.037 HD
BRANCH  55  58
ATOM     57  C   UNL     1     143.502 166.362 189.873  0.00  0.00    -0.005 C 
ATOM     58  C   UNL     1     143.999 167.543 189.476  0.00  0.00    -0.065 C 
ATOM     59  H   UNL     1     142.826 166.346 190.728  0.00  0.00    +0.078 HD
ATOM     60  H   UNL     1     144.693 167.623 188.647  0.00  0.00    +0.059 HD
BRANCH  57  62
ATOM     61  C   UNL     1     142.843 164.072 189.242  0.00  0.00    +0.206 C 
ATOM     62  N   UNL     1     143.761 165.113 189.329  0.00  0.00    -0.281 N 
ATOM     63  O   UNL     1     143.045 162.984 188.712  0.00  0.00    -0.279 OA
ATOM     64  H   UNL     1     141.867 164.293 189.699  0.00  0.00    +0.126 HD
BRANCH  62  65
ATOM     65  C   UNL     1     145.086 164.889 188.739  0.00  0.00    +0.016 C 
ATOM     66  H   UNL     1     145.013 164.107 187.973  0.00  0.00    +0.047 HD
ATOM     67  H   UNL     1     145.415 165.801 188.226  0.00  0.00    +0.047 HD
BRANCH  65  68
ATOM     68  C   UNL     1     146.121 164.510 189.790  0.00  0.00    -0.049 C 
ATOM     69  H   UNL     1     145.939 163.493 190.152  0.00  0.00    +0.024 HD
ATOM     70  H   UNL     1     146.082 165.191 190.648  0.00  0.00    +0.024 HD
ATOM     71  H   UNL     1     147.133 164.550 189.377  0.00  0.00    +0.024 HD
ENDBRANCH  65  68
ENDBRANCH  62  65
ENDBRANCH  57  62
ENDBRANCH  55  58
BRANCH  55  72
ATOM     72  C   UNL     1     143.147 168.531 191.599  0.00  0.00    -0.057 C 
ATOM     73  H   UNL     1     143.863 168.869 192.358  0.00  0.00    +0.024 HD
ATOM     74  H   UNL     1     142.998 167.458 191.752  0.00  0.00    +0.024 HD
ATOM     75  H   UNL     1     142.206 169.050 191.809  0.00  0.00    +0.024 HD
ENDBRANCH  55  72
ENDBRANCH  53  55
BRANCH  53  76
ATOM     76  O   UNL     1     144.602 170.769 191.265  0.00  0.00    -0.379 OA
BRANCH  76  77
ATOM     77  C   UNL     1     144.123 172.070 190.941  0.00  0.00    +0.037 C 
ATOM     78  H   UNL     1     144.501 172.387 189.965  0.00  0.00    +0.052 HD
ATOM     79  H   UNL     1     143.032 172.030 190.892  0.00  0.00    +0.052 HD
ATOM     80  H   UNL     1     144.405 172.796 191.707  0.00  0.00    +0.052 HD
ENDBRANCH  76  77
ENDBRANCH  53  76
ENDBRANCH  47  53
ENDBRANCH   1  47
BRANCH   1  81
ATOM     81  O   UNL     1     148.018 171.059 190.715  0.00  0.00    -0.461 OA
BRANCH  81  82
ATOM     82  C   UNL     1     147.805 172.309 191.216  0.00  0.00    +0.310 C 
ATOM     83  O   UNL     1     147.509 173.294 190.552  0.00  0.00    -0.251 OA
BRANCH  82  84
ATOM     84  C   UNL     1     147.970 172.334 192.722  0.00  0.00    +0.051 C 
ATOM     85  H   UNL     1     147.626 171.359 193.093  0.00  0.00    +0.041 HD
BRANCH  84  86
ATOM     86  C   UNL     1     149.435 172.499 193.106  0.00  0.00    -0.053 C 
ATOM     87  H   UNL     1     149.772 171.662 193.727  0.00  0.00    +0.024 HD
ATOM     88  H   UNL     1     149.584 173.425 193.672  0.00  0.00    +0.024 HD
ATOM     89  H   UNL     1     150.081 172.535 192.222  0.00  0.00    +0.024 HD
ENDBRANCH  84  86
BRANCH  84  90
ATOM     90  C   UNL     1     147.090 173.410 193.346  0.00  0.00    -0.053 C 
ATOM     91  H   UNL     1     147.399 174.407 193.013  0.00  0.00    +0.024 HD
ATOM     92  H   UNL     1     147.147 173.396 194.439  0.00  0.00    +0.024 HD
ATOM     93  H   UNL     1     146.042 173.268 193.062  0.00  0.00    +0.024 HD
ENDBRANCH  84  90
ENDBRANCH  82  84
ENDBRANCH  81  82
ENDBRANCH   1  81
TORSDOF 32
ENDMDL
MODEL 5
REMARK VINA RESULT:      -5.3      3.430      9.679
REMARK  Name = 2c_conf3
REMARK  32 active torsions:
REMARK  status: ('A' for Active; 'I' for Inactive)
REMARK    1  A    between atoms: N_2  and  C_3
REMARK    2  A    between atoms: N_2  and  C_5
REMARK    3  A    between atoms: C_3  and  C_4
REMARK    4  A    between atoms: C_6  and  C_7
REMARK    5  A    between atoms: C_7  and  C_8
REMARK    6  A    between atoms: C_7  and  C_9
REMARK    7  A    between atoms: C_9  and  O_10
REMARK    8  A    between atoms: C_9  and  C_12
REMARK    9  A    between atoms: O_10  and  C_11
REMARK   10  A    between atoms: C_12  and  C_13
REMARK   11  A    between atoms: C_12  and  C_14
REMARK   12  A    between atoms: C_14  and  O_15
REMARK   13  A    between atoms: C_14  and  C_21
REMARK   14  A    between atoms: O_15  and  C_16
REMARK   15  A    between atoms: C_16  and  C_17
REMARK   16  A    between atoms: C_17  and  C_18
REMARK   17  A    between atoms: C_17  and  C_19
REMARK   18  A    between atoms: C_21  and  C_22
REMARK   19  A    between atoms: C_22  and  C_23
REMARK   20  A    between atoms: C_23  and  C_24
REMARK   21  A    between atoms: C_23  and  C_25
REMARK   22  A    between atoms: C_25  and  O_26
REMARK   23  A    between atoms: C_25  and  C_28
REMARK   24  A    between atoms: O_26  and  C_27
REMARK   25  A    between atoms: C_28  and  C_29
REMARK   26  A    between atoms: C_29  and  O_30
REMARK   27  A    between atoms: C_29  and  C_35
REMARK   28  A    between atoms: O_30  and  C_31
REMARK   29  A    between atoms: C_31  and  C_32
REMARK   30  A    between atoms: C_32  and  C_33
REMARK   31  A    between atoms: C_35  and  C_36
REMARK   32  A    between atoms: C_35  and  C_37
REMARK                            x       y       z     vdW  Elec       q    Type
REMARK                         _______ _______ _______ _____ _____    ______ ____
ROOT
ATOM      1  C   UNL     1     149.913 166.253 193.173  0.00  0.00    +0.108 C 
ATOM      2  H   UNL     1     149.908 167.164 193.775  0.00  0.00    +0.074 HD
ENDROOT
BRANCH   1   3
ATOM      3  C   UNL     1     148.835 166.384 192.073  0.00  0.00    -0.015 C 
ATOM      4  H   UNL     1     149.319 166.510 191.100  0.00  0.00    +0.030 HD
ATOM      5  H   UNL     1     148.267 165.446 192.035  0.00  0.00    +0.030 HD
BRANCH   3   6
ATOM      6  C   UNL     1     147.842 167.532 192.315  0.00  0.00    -0.045 C 
ATOM      7  H   UNL     1     146.835 167.145 192.114  0.00  0.00    +0.027 HD
ATOM      8  H   UNL     1     147.849 167.792 193.376  0.00  0.00    +0.027 HD
BRANCH   6   9
ATOM      9  C   UNL     1     148.009 168.795 191.434  0.00  0.00    -0.017 C 
ATOM     10  H   UNL     1     147.044 169.324 191.472  0.00  0.00    +0.032 HD
BRANCH   9  11
ATOM     11  C   UNL     1     148.209 168.455 189.952  0.00  0.00    -0.060 C 
ATOM     12  H   UNL     1     148.262 169.362 189.341  0.00  0.00    +0.023 HD
ATOM     13  H   UNL     1     147.366 167.870 189.570  0.00  0.00    +0.023 HD
ATOM     14  H   UNL     1     149.129 167.884 189.790  0.00  0.00    +0.023 HD
ENDBRANCH   9  11
BRANCH   9  15
ATOM     15  C   UNL     1     149.070 169.809 191.971  0.00  0.00    +0.064 C 
ATOM     16  H   UNL     1     149.052 169.830 193.069  0.00  0.00    +0.060 HD
BRANCH  15  17
ATOM     17  C   UNL     1     148.800 171.229 191.417  0.00  0.00    +0.011 C 
ATOM     18  H   UNL     1     149.727 171.804 191.511  0.00  0.00    +0.033 HD
ATOM     19  H   UNL     1     148.563 171.157 190.350  0.00  0.00    +0.033 HD
BRANCH  17  20
ATOM     20  C   UNL     1     147.669 172.018 192.111  0.00  0.00    +0.108 C 
ATOM     21  H   UNL     1     147.141 171.349 192.801  0.00  0.00    +0.074 HD
BRANCH  20  22
ATOM     22  C   UNL     1     148.231 173.234 192.908  0.00  0.00    -0.009 C 
ATOM     23  H   UNL     1     148.447 174.042 192.196  0.00  0.00    +0.033 HD
BRANCH  22  24
ATOM     24  C   UNL     1     149.525 172.899 193.658  0.00  0.00    -0.059 C 
ATOM     25  H   UNL     1     150.189 173.768 193.703  0.00  0.00    +0.023 HD
ATOM     26  H   UNL     1     149.316 172.579 194.683  0.00  0.00    +0.023 HD
ATOM     27  H   UNL     1     150.087 172.105 193.156  0.00  0.00    +0.023 HD
ENDBRANCH  22  24
BRANCH  22  28
ATOM     28  C   UNL     1     147.216 173.795 193.911  0.00  0.00    -0.059 C 
ATOM     29  H   UNL     1     147.710 174.121 194.833  0.00  0.00    +0.023 HD
ATOM     30  H   UNL     1     146.454 173.052 194.165  0.00  0.00    +0.023 HD
ATOM     31  H   UNL     1     146.688 174.657 193.489  0.00  0.00    +0.023 HD
ENDBRANCH  22  28
ENDBRANCH  20  22
BRANCH  20  32
ATOM     32  O   UNL     1     146.786 172.509 191.078  0.00  0.00    -0.461 OA
BRANCH  32  33
ATOM     33  C   UNL     1     145.529 171.977 191.034  0.00  0.00    +0.307 C 
ATOM     34  O   UNL     1     145.245 170.806 191.243  0.00  0.00    -0.251 OA
BRANCH  33  35
ATOM     35  C   UNL     1     144.537 173.052 190.670  0.00  0.00    +0.042 C 
ATOM     36  H   UNL     1     144.982 173.696 189.906  0.00  0.00    +0.037 HD
ATOM     37  H   UNL     1     143.645 172.566 190.265  0.00  0.00    +0.037 HD
BRANCH  35  38
ATOM     38  C   UNL     1     144.155 173.903 191.869  0.00  0.00    -0.055 C 
ATOM     39  H   UNL     1     143.068 173.913 191.998  0.00  0.00    +0.023 HD
ATOM     40  H   UNL     1     144.501 174.935 191.740  0.00  0.00    +0.023 HD
ATOM     41  H   UNL     1     144.607 173.511 192.787  0.00  0.00    +0.023 HD
ENDBRANCH  35  38
ENDBRANCH  33  35
ENDBRANCH  32  33
ENDBRANCH  20  32
ENDBRANCH  17  20
ENDBRANCH  15  17
BRANCH  15  42
ATOM     42  O   UNL     1     150.357 169.405 191.483  0.00  0.00    -0.379 OA
BRANCH  42  43
ATOM     43  C   UNL     1     151.384 170.354 191.734  0.00  0.00    +0.037 C 
ATOM     44  H   UNL     1     152.349 169.876 191.545  0.00  0.00    +0.052 HD
ATOM     45  H   UNL     1     151.286 171.219 191.075  0.00  0.00    +0.052 HD
ATOM     46  H   UNL     1     151.360 170.684 192.776  0.00  0.00    +0.052 HD
ENDBRANCH  42  43
ENDBRANCH  15  42
ENDBRANCH   9  15
ENDBRANCH   6   9
ENDBRANCH   3   6
ENDBRANCH   1   3
BRANCH   1  47
ATOM     47  C   UNL     1     151.335 166.015 192.600  0.00  0.00    +0.020 C 
ATOM     48  H   UNL     1     151.668 165.058 193.028  0.00  0.00    +0.036 HD
BRANCH  47  49
ATOM     49  C   UNL     1     152.340 167.025 193.178  0.00  0.00    -0.057 C 
ATOM     50  H   UNL     1     151.944 167.535 194.063  0.00  0.00    +0.023 HD
ATOM     51  H   UNL     1     153.291 166.551 193.435  0.00  0.00    +0.023 HD
ATOM     52  H   UNL     1     152.562 167.806 192.442  0.00  0.00    +0.023 HD
ENDBRANCH  47  49
BRANCH  47  53
ATOM     53  C   UNL     1     151.430 165.850 191.056  0.00  0.00    +0.070 C 
ATOM     54  H   UNL     1     150.421 165.972 190.639  0.00  0.00    +0.061 HD
BRANCH  53  55
ATOM     55  C   UNL     1     152.361 166.772 190.215  0.00  0.00    +0.002 C 
ATOM     56  H   UNL     1     152.601 167.613 190.885  0.00  0.00    +0.037 HD
BRANCH  55  58
ATOM     57  C   UNL     1     154.302 166.457 188.667  0.00  0.00    -0.005 C 
ATOM     58  C   UNL     1     153.673 166.134 189.807  0.00  0.00    -0.065 C 
ATOM     59  H   UNL     1     153.858 167.224 188.031  0.00  0.00    +0.078 HD
ATOM     60  H   UNL     1     154.051 165.365 190.471  0.00  0.00    +0.059 HD
BRANCH  57  62
ATOM     61  C   UNL     1     156.373 165.141 188.897  0.00  0.00    +0.206 C 
ATOM     62  N   UNL     1     155.474 165.911 188.167  0.00  0.00    -0.281 N 
ATOM     63  O   UNL     1     157.383 164.606 188.450  0.00  0.00    -0.279 OA
ATOM     64  H   UNL     1     156.111 165.028 189.959  0.00  0.00    +0.126 HD
BRANCH  62  65
ATOM     65  C   UNL     1     155.761 166.104 186.740  0.00  0.00    +0.016 C 
ATOM     66  H   UNL     1     156.820 166.359 186.617  0.00  0.00    +0.047 HD
ATOM     67  H   UNL     1     155.601 165.160 186.206  0.00  0.00    +0.047 HD
BRANCH  65  68
ATOM     68  C   UNL     1     154.878 167.180 186.122  0.00  0.00    -0.049 C 
ATOM     69  H   UNL     1     154.203 166.737 185.382  0.00  0.00    +0.024 HD
ATOM     70  H   UNL     1     155.480 167.947 185.621  0.00  0.00    +0.024 HD
ATOM     71  H   UNL     1     154.271 167.676 186.885  0.00  0.00    +0.024 HD
ENDBRANCH  65  68
ENDBRANCH  62  65
ENDBRANCH  57  62
ENDBRANCH  55  58
BRANCH  55  72
ATOM     72  C   UNL     1     151.715 167.449 189.002  0.00  0.00    -0.057 C 
ATOM     73  H   UNL     1     150.647 167.203 188.955  0.00  0.00    +0.024 HD
ATOM     74  H   UNL     1     152.164 167.113 188.063  0.00  0.00    +0.024 HD
ATOM     75  H   UNL     1     151.779 168.540 189.052  0.00  0.00    +0.024 HD
ENDBRANCH  55  72
ENDBRANCH  53  55
BRANCH  53  76
ATOM     76  O   UNL     1     151.854 164.498 190.763  0.00  0.00    -0.379 OA
BRANCH  76  77
ATOM     77  C   UNL     1     150.829 163.683 190.204  0.00  0.00    +0.037 C 
ATOM     78  H   UNL     1     150.744 163.857 189.128  0.00  0.00    +0.052 HD
ATOM     79  H   UNL     1     151.100 162.637 190.364  0.00  0.00    +0.052 HD
ATOM     80  H   UNL     1     149.869 163.867 190.692  0.00  0.00    +0.052 HD
ENDBRANCH  76  77
ENDBRANCH  53  76
ENDBRANCH  47  53
ENDBRANCH   1  47
BRANCH   1  81
ATOM     81  O   UNL     1     149.591 165.105 193.998  0.00  0.00    -0.461 OA
BRANCH  81  82
ATOM     82  C   UNL     1     149.042 165.352 195.220  0.00  0.00    +0.310 C 
ATOM     83  O   UNL     1     147.875 165.664 195.420  0.00  0.00    -0.251 OA
BRANCH  82  84
ATOM     84  C   UNL     1     150.063 165.180 196.327  0.00  0.00    +0.051 C 
ATOM     85  H   UNL     1     149.529 164.746 197.184  0.00  0.00    +0.041 HD
BRANCH  84  86
ATOM     86  C   UNL     1     151.160 164.208 195.909  0.00  0.00    -0.053 C 
ATOM     87  H   UNL     1     150.807 163.174 195.966  0.00  0.00    +0.024 HD
ATOM     88  H   UNL     1     152.033 164.308 196.562  0.00  0.00    +0.024 HD
ATOM     89  H   UNL     1     151.486 164.390 194.879  0.00  0.00    +0.024 HD
ENDBRANCH  84  86
BRANCH  84  90
ATOM     90  C   UNL     1     150.627 166.528 196.759  0.00  0.00    -0.053 C 
ATOM     91  H   UNL     1     150.004 167.348 196.385  0.00  0.00    +0.024 HD
ATOM     92  H   UNL     1     151.641 166.683 196.377  0.00  0.00    +0.024 HD
ATOM     93  H   UNL     1     150.664 166.601 197.851  0.00  0.00    +0.024 HD
ENDBRANCH  84  90
ENDBRANCH  82  84
ENDBRANCH  81  82
ENDBRANCH   1  81
TORSDOF 32
ENDMDL
MODEL 6
REMARK VINA RESULT:      -5.2      3.543     10.047
REMARK  Name = 2c_conf3
REMARK  32 active torsions:
REMARK  status: ('A' for Active; 'I' for Inactive)
REMARK    1  A    between atoms: N_2  and  C_3
REMARK    2  A    between atoms: N_2  and  C_5
REMARK    3  A    between atoms: C_3  and  C_4
REMARK    4  A    between atoms: C_6  and  C_7
REMARK    5  A    between atoms: C_7  and  C_8
REMARK    6  A    between atoms: C_7  and  C_9
REMARK    7  A    between atoms: C_9  and  O_10
REMARK    8  A    between atoms: C_9  and  C_12
REMARK    9  A    between atoms: O_10  and  C_11
REMARK   10  A    between atoms: C_12  and  C_13
REMARK   11  A    between atoms: C_12  and  C_14
REMARK   12  A    between atoms: C_14  and  O_15
REMARK   13  A    between atoms: C_14  and  C_21
REMARK   14  A    between atoms: O_15  and  C_16
REMARK   15  A    between atoms: C_16  and  C_17
REMARK   16  A    between atoms: C_17  and  C_18
REMARK   17  A    between atoms: C_17  and  C_19
REMARK   18  A    between atoms: C_21  and  C_22
REMARK   19  A    between atoms: C_22  and  C_23
REMARK   20  A    between atoms: C_23  and  C_24
REMARK   21  A    between atoms: C_23  and  C_25
REMARK   22  A    between atoms: C_25  and  O_26
REMARK   23  A    between atoms: C_25  and  C_28
REMARK   24  A    between atoms: O_26  and  C_27
REMARK   25  A    between atoms: C_28  and  C_29
REMARK   26  A    between atoms: C_29  and  O_30
REMARK   27  A    between atoms: C_29  and  C_35
REMARK   28  A    between atoms: O_30  and  C_31
REMARK   29  A    between atoms: C_31  and  C_32
REMARK   30  A    between atoms: C_32  and  C_33
REMARK   31  A    between atoms: C_35  and  C_36
REMARK   32  A    between atoms: C_35  and  C_37
REMARK                            x       y       z     vdW  Elec       q    Type
REMARK                         _______ _______ _______ _____ _____    ______ ____
ROOT
ATOM      1  C   UNL     1     150.350 167.437 192.892  0.00  0.00    +0.108 C 
ATOM      2  H   UNL     1     150.545 167.966 193.828  0.00  0.00    +0.074 HD
ENDROOT
BRANCH   1   3
ATOM      3  C   UNL     1     149.810 168.450 191.856  0.00  0.00    -0.015 C 
ATOM      4  H   UNL     1     150.220 169.443 192.068  0.00  0.00    +0.030 HD
ATOM      5  H   UNL     1     150.172 168.153 190.864  0.00  0.00    +0.030 HD
BRANCH   3   6
ATOM      6  C   UNL     1     148.276 168.519 191.802  0.00  0.00    -0.045 C 
ATOM      7  H   UNL     1     147.888 167.757 192.490  0.00  0.00    +0.027 HD
ATOM      8  H   UNL     1     147.947 169.477 192.211  0.00  0.00    +0.027 HD
BRANCH   6   9
ATOM      9  C   UNL     1     147.614 168.246 190.428  0.00  0.00    -0.017 C 
ATOM     10  H   UNL     1     146.654 167.752 190.645  0.00  0.00    +0.032 HD
BRANCH   9  11
ATOM     11  C   UNL     1     148.397 167.227 189.592  0.00  0.00    -0.060 C 
ATOM     12  H   UNL     1     149.477 167.388 189.680  0.00  0.00    +0.023 HD
ATOM     13  H   UNL     1     148.153 167.325 188.530  0.00  0.00    +0.023 HD
ATOM     14  H   UNL     1     148.183 166.199 189.903  0.00  0.00    +0.023 HD
ENDBRANCH   9  11
BRANCH   9  15
ATOM     15  C   UNL     1     147.255 169.539 189.627  0.00  0.00    +0.064 C 
ATOM     16  H   UNL     1     148.171 170.047 189.297  0.00  0.00    +0.060 HD
BRANCH  15  17
ATOM     17  C   UNL     1     146.407 170.502 190.494  0.00  0.00    +0.011 C 
ATOM     18  H   UNL     1     145.425 170.598 190.020  0.00  0.00    +0.033 HD
ATOM     19  H   UNL     1     146.255 170.053 191.481  0.00  0.00    +0.033 HD
BRANCH  17  20
ATOM     20  C   UNL     1     146.989 171.918 190.691  0.00  0.00    +0.108 C 
ATOM     21  H   UNL     1     147.836 172.052 190.007  0.00  0.00    +0.074 HD
BRANCH  20  22
ATOM     22  C   UNL     1     145.920 173.016 190.403  0.00  0.00    -0.009 C 
ATOM     23  H   UNL     1     146.442 173.960 190.201  0.00  0.00    +0.033 HD
BRANCH  22  24
ATOM     24  C   UNL     1     144.971 173.238 191.586  0.00  0.00    -0.059 C 
ATOM     25  H   UNL     1     144.101 173.829 191.285  0.00  0.00    +0.023 HD
ATOM     26  H   UNL     1     144.611 172.286 191.988  0.00  0.00    +0.023 HD
ATOM     27  H   UNL     1     145.458 173.791 192.395  0.00  0.00    +0.023 HD
ENDBRANCH  22  24
BRANCH  22  28
ATOM     28  C   UNL     1     145.084 172.704 189.157  0.00  0.00    -0.059 C 
ATOM     29  H   UNL     1     145.398 173.318 188.305  0.00  0.00    +0.023 HD
ATOM     30  H   UNL     1     144.018 172.876 189.338  0.00  0.00    +0.023 HD
ATOM     31  H   UNL     1     145.189 171.652 188.870  0.00  0.00    +0.023 HD
ENDBRANCH  22  28
ENDBRANCH  20  22
BRANCH  20  32
ATOM     32  O   UNL     1     147.406 172.027 192.070  0.00  0.00    -0.461 OA
BRANCH  32  33
ATOM     33  C   UNL     1     148.738 172.218 192.300  0.00  0.00    +0.307 C 
ATOM     34  O   UNL     1     149.646 171.860 191.563  0.00  0.00    -0.251 OA
BRANCH  33  35
ATOM     35  C   UNL     1     148.929 172.926 193.617  0.00  0.00    +0.042 C 
ATOM     36  H   UNL     1     149.146 172.180 194.388  0.00  0.00    +0.037 HD
ATOM     37  H   UNL     1     149.779 173.606 193.516  0.00  0.00    +0.037 HD
BRANCH  35  38
ATOM     38  C   UNL     1     147.693 173.709 194.025  0.00  0.00    -0.055 C 
ATOM     39  H   UNL     1     146.800 173.082 193.941  0.00  0.00    +0.023 HD
ATOM     40  H   UNL     1     147.562 174.592 193.388  0.00  0.00    +0.023 HD
ATOM     41  H   UNL     1     147.774 174.055 195.062  0.00  0.00    +0.023 HD
ENDBRANCH  35  38
ENDBRANCH  33  35
ENDBRANCH  32  33
ENDBRANCH  20  32
ENDBRANCH  17  20
ENDBRANCH  15  17
BRANCH  15  42
ATOM     42  O   UNL     1     146.444 169.156 188.508  0.00  0.00    -0.379 OA
BRANCH  42  43
ATOM     43  C   UNL     1     146.790 169.823 187.302  0.00  0.00    +0.037 C 
ATOM     44  H   UNL     1     146.574 169.154 186.464  0.00  0.00    +0.052 HD
ATOM     45  H   UNL     1     146.205 170.738 187.180  0.00  0.00    +0.052 HD
ATOM     46  H   UNL     1     147.855 170.067 187.285  0.00  0.00    +0.052 HD
ENDBRANCH  42  43
ENDBRANCH  15  42
ENDBRANCH   9  15
ENDBRANCH   6   9
ENDBRANCH   3   6
ENDBRANCH   1   3
BRANCH   1  47
ATOM     47  C   UNL     1     151.643 166.721 192.420  0.00  0.00    +0.020 C 
ATOM     48  H   UNL     1     151.713 165.808 193.028  0.00  0.00    +0.036 HD
BRANCH  47  49
ATOM     49  C   UNL     1     152.895 167.514 192.832  0.00  0.00    -0.057 C 
ATOM     50  H   UNL     1     153.628 167.571 192.021  0.00  0.00    +0.023 HD
ATOM     51  H   UNL     1     152.645 168.526 193.160  0.00  0.00    +0.023 HD
ATOM     52  H   UNL     1     153.398 167.022 193.672  0.00  0.00    +0.023 HD
ENDBRANCH  47  49
BRANCH  47  53
ATOM     53  C   UNL     1     151.660 166.251 190.937  0.00  0.00    +0.070 C 
ATOM     54  H   UNL     1     150.660 166.422 190.515  0.00  0.00    +0.061 HD
BRANCH  53  55
ATOM     55  C   UNL     1     152.670 166.861 189.921  0.00  0.00    +0.002 C 
ATOM     56  H   UNL     1     153.083 167.745 190.435  0.00  0.00    +0.037 HD
BRANCH  55  58
ATOM     57  C   UNL     1     154.898 166.395 188.884  0.00  0.00    -0.005 C 
ATOM     58  C   UNL     1     153.835 165.958 189.575  0.00  0.00    -0.065 C 
ATOM     59  H   UNL     1     154.927 167.443 188.586  0.00  0.00    +0.078 HD
ATOM     60  H   UNL     1     153.737 164.922 189.880  0.00  0.00    +0.059 HD
BRANCH  57  62
ATOM     61  C   UNL     1     156.677 164.727 189.248  0.00  0.00    +0.206 C 
ATOM     62  N   UNL     1     155.995 165.655 188.468  0.00  0.00    -0.281 N 
ATOM     63  O   UNL     1     157.612 164.028 188.871  0.00  0.00    -0.279 OA
ATOM     64  H   UNL     1     156.307 164.648 190.280  0.00  0.00    +0.126 HD
BRANCH  62  65
ATOM     65  C   UNL     1     156.435 165.814 187.076  0.00  0.00    +0.016 C 
ATOM     66  H   UNL     1     157.425 166.287 187.063  0.00  0.00    +0.047 HD
ATOM     67  H   UNL     1     156.554 164.825 186.617  0.00  0.00    +0.047 HD
BRANCH  65  68
ATOM     68  C   UNL     1     155.444 166.627 186.254  0.00  0.00    -0.049 C 
ATOM     69  H   UNL     1     155.964 167.429 185.719  0.00  0.00    +0.024 HD
ATOM     70  H   UNL     1     154.678 167.082 186.893  0.00  0.00    +0.024 HD
ATOM     71  H   UNL     1     154.936 165.998 185.517  0.00  0.00    +0.024 HD
ENDBRANCH  65  68
ENDBRANCH  62  65
ENDBRANCH  57  62
ENDBRANCH  55  58
BRANCH  55  72
ATOM     72  C   UNL     1     152.064 167.440 188.639  0.00  0.00    -0.057 C 
ATOM     73  H   UNL     1     151.797 168.494 188.787  0.00  0.00    +0.024 HD
ATOM     74  H   UNL     1     151.148 166.914 188.351  0.00  0.00    +0.024 HD
ATOM     75  H   UNL     1     152.764 167.413 187.799  0.00  0.00    +0.024 HD
ENDBRANCH  55  72
ENDBRANCH  53  55
BRANCH  53  76
ATOM     76  O   UNL     1     151.897 164.823 190.911  0.00  0.00    -0.379 OA
BRANCH  76  77
ATOM     77  C   UNL     1     150.759 164.060 190.528  0.00  0.00    +0.037 C 
ATOM     78  H   UNL     1     150.753 163.094 191.042  0.00  0.00    +0.052 HD
ATOM     79  H   UNL     1     149.863 164.612 190.822  0.00  0.00    +0.052 HD
ATOM     80  H   UNL     1     150.729 163.910 189.446  0.00  0.00    +0.052 HD
ENDBRANCH  76  77
ENDBRANCH  53  76
ENDBRANCH  47  53
ENDBRANCH   1  47
BRANCH   1  81
ATOM     81  O   UNL     1     149.347 166.410 193.095  0.00  0.00    -0.461 OA
BRANCH  81  82
ATOM     82  C   UNL     1     149.593 165.484 194.064  0.00  0.00    +0.310 C 
ATOM     83  O   UNL     1     149.648 164.274 193.887  0.00  0.00    -0.251 OA
BRANCH  82  84
ATOM     84  C   UNL     1     149.806 166.141 195.413  0.00  0.00    +0.051 C 
ATOM     85  H   UNL     1     150.048 167.194 195.216  0.00  0.00    +0.041 HD
BRANCH  84  86
ATOM     86  C   UNL     1     148.532 166.093 196.249  0.00  0.00    -0.053 C 
ATOM     87  H   UNL     1     148.747 165.745 197.265  0.00  0.00    +0.024 HD
ATOM     88  H   UNL     1     147.802 165.411 195.801  0.00  0.00    +0.024 HD
ATOM     89  H   UNL     1     148.068 167.081 196.330  0.00  0.00    +0.024 HD
ENDBRANCH  84  86
BRANCH  84  90
ATOM     90  C   UNL     1     150.991 165.516 196.140  0.00  0.00    -0.053 C 
ATOM     91  H   UNL     1     151.512 166.262 196.749  0.00  0.00    +0.024 HD
ATOM     92  H   UNL     1     151.720 165.096 195.439  0.00  0.00    +0.024 HD
ATOM     93  H   UNL     1     150.658 164.710 196.802  0.00  0.00    +0.024 HD
ENDBRANCH  84  90
ENDBRANCH  82  84
ENDBRANCH  81  82
ENDBRANCH   1  81
TORSDOF 32
ENDMDL
MODEL 7
REMARK VINA RESULT:      -5.2      2.698      5.351
REMARK  Name = 2c_conf3
REMARK  32 active torsions:
REMARK  status: ('A' for Active; 'I' for Inactive)
REMARK    1  A    between atoms: N_2  and  C_3
REMARK    2  A    between atoms: N_2  and  C_5
REMARK    3  A    between atoms: C_3  and  C_4
REMARK    4  A    between atoms: C_6  and  C_7
REMARK    5  A    between atoms: C_7  and  C_8
REMARK    6  A    between atoms: C_7  and  C_9
REMARK    7  A    between atoms: C_9  and  O_10
REMARK    8  A    between atoms: C_9  and  C_12
REMARK    9  A    between atoms: O_10  and  C_11
REMARK   10  A    between atoms: C_12  and  C_13
REMARK   11  A    between atoms: C_12  and  C_14
REMARK   12  A    between atoms: C_14  and  O_15
REMARK   13  A    between atoms: C_14  and  C_21
REMARK   14  A    between atoms: O_15  and  C_16
REMARK   15  A    between atoms: C_16  and  C_17
REMARK   16  A    between atoms: C_17  and  C_18
REMARK   17  A    between atoms: C_17  and  C_19
REMARK   18  A    between atoms: C_21  and  C_22
REMARK   19  A    between atoms: C_22  and  C_23
REMARK   20  A    between atoms: C_23  and  C_24
REMARK   21  A    between atoms: C_23  and  C_25
REMARK   22  A    between atoms: C_25  and  O_26
REMARK   23  A    between atoms: C_25  and  C_28
REMARK   24  A    between atoms: O_26  and  C_27
REMARK   25  A    between atoms: C_28  and  C_29
REMARK   26  A    between atoms: C_29  and  O_30
REMARK   27  A    between atoms: C_29  and  C_35
REMARK   28  A    between atoms: O_30  and  C_31
REMARK   29  A    between atoms: C_31  and  C_32
REMARK   30  A    between atoms: C_32  and  C_33
REMARK   31  A    between atoms: C_35  and  C_36
REMARK   32  A    between atoms: C_35  and  C_37
REMARK                            x       y       z     vdW  Elec       q    Type
REMARK                         _______ _______ _______ _____ _____    ______ ____
ROOT
ATOM      1  C   UNL     1     146.739 171.474 191.118  0.00  0.00    +0.108 C 
ATOM      2  H   UNL     1     146.228 171.052 191.986  0.00  0.00    +0.074 HD
ENDROOT
BRANCH   1   3
ATOM      3  C   UNL     1     148.151 170.849 191.025  0.00  0.00    -0.015 C 
ATOM      4  H   UNL     1     148.306 170.446 190.019  0.00  0.00    +0.030 HD
ATOM      5  H   UNL     1     148.890 171.645 191.175  0.00  0.00    +0.030 HD
BRANCH   3   6
ATOM      6  C   UNL     1     148.411 169.754 192.072  0.00  0.00    -0.045 C 
ATOM      7  H   UNL     1     148.036 170.124 193.035  0.00  0.00    +0.027 HD
ATOM      8  H   UNL     1     147.799 168.881 191.835  0.00  0.00    +0.027 HD
BRANCH   6   9
ATOM      9  C   UNL     1     149.888 169.350 192.306  0.00  0.00    -0.017 C 
ATOM     10  H   UNL     1     150.055 169.417 193.392  0.00  0.00    +0.032 HD
BRANCH   9  11
ATOM     11  C   UNL     1     150.874 170.353 191.696  0.00  0.00    -0.060 C 
ATOM     12  H   UNL     1     150.808 170.360 190.603  0.00  0.00    +0.023 HD
ATOM     13  H   UNL     1     151.906 170.084 191.943  0.00  0.00    +0.023 HD
ATOM     14  H   UNL     1     150.688 171.371 192.053  0.00  0.00    +0.023 HD
ENDBRANCH   9  11
BRANCH   9  15
ATOM     15  C   UNL     1     150.211 167.871 191.917  0.00  0.00    +0.064 C 
ATOM     16  H   UNL     1     150.297 167.775 190.827  0.00  0.00    +0.060 HD
BRANCH  15  17
ATOM     17  C   UNL     1     149.111 166.915 192.440  0.00  0.00    +0.011 C 
ATOM     18  H   UNL     1     148.151 167.435 192.353  0.00  0.00    +0.033 HD
ATOM     19  H   UNL     1     149.068 166.032 191.794  0.00  0.00    +0.033 HD
BRANCH  17  20
ATOM     20  C   UNL     1     149.272 166.439 193.900  0.00  0.00    +0.108 C 
ATOM     21  H   UNL     1     150.136 166.946 194.345  0.00  0.00    +0.074 HD
BRANCH  20  22
ATOM     22  C   UNL     1     148.001 166.758 194.744  0.00  0.00    -0.009 C 
ATOM     23  H   UNL     1     147.735 167.810 194.582  0.00  0.00    +0.033 HD
BRANCH  22  24
ATOM     24  C   UNL     1     148.225 166.548 196.246  0.00  0.00    -0.059 C 
ATOM     25  H   UNL     1     147.283 166.320 196.755  0.00  0.00    +0.023 HD
ATOM     26  H   UNL     1     148.917 165.720 196.430  0.00  0.00    +0.023 HD
ATOM     27  H   UNL     1     148.627 167.446 196.724  0.00  0.00    +0.023 HD
ENDBRANCH  22  24
BRANCH  22  28
ATOM     28  C   UNL     1     146.787 165.929 194.310  0.00  0.00    -0.059 C 
ATOM     29  H   UNL     1     145.989 166.570 193.919  0.00  0.00    +0.023 HD
ATOM     30  H   UNL     1     146.388 165.340 195.141  0.00  0.00    +0.023 HD
ATOM     31  H   UNL     1     147.062 165.218 193.523  0.00  0.00    +0.023 HD
ENDBRANCH  22  28
ENDBRANCH  20  22
BRANCH  20  32
ATOM     32  O   UNL     1     149.462 165.007 193.870  0.00  0.00    -0.461 OA
BRANCH  32  33
ATOM     33  C   UNL     1     150.748 164.554 193.822  0.00  0.00    +0.307 C 
ATOM     34  O   UNL     1     151.236 163.891 192.919  0.00  0.00    -0.251 OA
BRANCH  33  35
ATOM     35  C   UNL     1     151.482 164.982 195.067  0.00  0.00    +0.042 C 
ATOM     36  H   UNL     1     152.558 164.938 194.872  0.00  0.00    +0.037 HD
ATOM     37  H   UNL     1     151.193 166.013 195.294  0.00  0.00    +0.037 HD
BRANCH  35  38
ATOM     38  C   UNL     1     151.161 164.089 196.253  0.00  0.00    -0.055 C 
ATOM     39  H   UNL     1     151.813 163.209 196.254  0.00  0.00    +0.023 HD
ATOM     40  H   UNL     1     150.119 163.751 196.216  0.00  0.00    +0.023 HD
ATOM     41  H   UNL     1     151.305 164.625 197.198  0.00  0.00    +0.023 HD
ENDBRANCH  35  38
ENDBRANCH  33  35
ENDBRANCH  32  33
ENDBRANCH  20  32
ENDBRANCH  17  20
ENDBRANCH  15  17
BRANCH  15  42
ATOM     42  O   UNL     1     151.435 167.499 192.567  0.00  0.00    -0.379 OA
BRANCH  42  43
ATOM     43  C   UNL     1     152.434 167.032 191.671  0.00  0.00    +0.037 C 
ATOM     44  H   UNL     1     153.255 167.755 191.663  0.00  0.00    +0.052 HD
ATOM     45  H   UNL     1     152.823 166.063 191.991  0.00  0.00    +0.052 HD
ATOM     46  H   UNL     1     152.036 166.949 190.656  0.00  0.00    +0.052 HD
ENDBRANCH  42  43
ENDBRANCH  15  42
ENDBRANCH   9  15
ENDBRANCH   6   9
ENDBRANCH   3   6
ENDBRANCH   1   3
BRANCH   1  47
ATOM     47  C   UNL     1     145.888 171.235 189.844  0.00  0.00    +0.020 C 
ATOM     48  H   UNL     1     146.608 171.001 189.047  0.00  0.00    +0.036 HD
BRANCH  47  49
ATOM     49  C   UNL     1     145.241 172.543 189.358  0.00  0.00    -0.057 C 
ATOM     50  H   UNL     1     145.846 173.418 189.614  0.00  0.00    +0.023 HD
ATOM     51  H   UNL     1     145.066 172.533 188.278  0.00  0.00    +0.023 HD
ATOM     52  H   UNL     1     144.265 172.687 189.837  0.00  0.00    +0.023 HD
ENDBRANCH  47  49
BRANCH  47  53
ATOM     53  C   UNL     1     144.904 170.031 189.897  0.00  0.00    +0.070 C 
ATOM     54  H   UNL     1     144.082 170.233 189.197  0.00  0.00    +0.061 HD
BRANCH  53  55
ATOM     55  C   UNL     1     145.396 168.587 189.584  0.00  0.00    +0.002 C 
ATOM     56  H   UNL     1     144.542 168.105 189.079  0.00  0.00    +0.037 HD
BRANCH  55  58
ATOM     57  C   UNL     1     147.532 167.585 188.754  0.00  0.00    -0.005 C 
ATOM     58  C   UNL     1     146.576 168.518 188.637  0.00  0.00    -0.065 C 
ATOM     59  H   UNL     1     147.437 166.842 189.545  0.00  0.00    +0.078 HD
ATOM     60  H   UNL     1     146.624 169.297 187.885  0.00  0.00    +0.059 HD
BRANCH  57  62
ATOM     61  C   UNL     1     149.865 166.866 188.408  0.00  0.00    +0.206 C 
ATOM     62  N   UNL     1     148.677 167.452 187.983  0.00  0.00    -0.281 N 
ATOM     63  O   UNL     1     150.863 166.692 187.716  0.00  0.00    -0.279 OA
ATOM     64  H   UNL     1     149.857 166.544 189.459  0.00  0.00    +0.126 HD
BRANCH  62  65
ATOM     65  C   UNL     1     148.615 167.906 186.588  0.00  0.00    +0.016 C 
ATOM     66  H   UNL     1     148.022 168.827 186.534  0.00  0.00    +0.047 HD
ATOM     67  H   UNL     1     149.625 168.162 186.244  0.00  0.00    +0.047 HD
BRANCH  65  68
ATOM     68  C   UNL     1     148.033 166.842 185.667  0.00  0.00    -0.049 C 
ATOM     69  H   UNL     1     147.034 167.139 185.330  0.00  0.00    +0.024 HD
ATOM     70  H   UNL     1     147.948 165.877 186.180  0.00  0.00    +0.024 HD
ATOM     71  H   UNL     1     148.663 166.698 184.785  0.00  0.00    +0.024 HD
ENDBRANCH  65  68
ENDBRANCH  62  65
ENDBRANCH  57  62
ENDBRANCH  55  58
BRANCH  55  72
ATOM     72  C   UNL     1     145.652 167.689 190.798  0.00  0.00    -0.057 C 
ATOM     73  H   UNL     1     146.722 167.459 190.881  0.00  0.00    +0.024 HD
ATOM     74  H   UNL     1     145.124 166.734 190.715  0.00  0.00    +0.024 HD
ATOM     75  H   UNL     1     145.365 168.169 191.738  0.00  0.00    +0.024 HD
ENDBRANCH  55  72
ENDBRANCH  53  55
BRANCH  53  76
ATOM     76  O   UNL     1     144.329 169.966 191.224  0.00  0.00    -0.379 OA
BRANCH  76  77
ATOM     77  C   UNL     1     142.937 170.262 191.262  0.00  0.00    +0.037 C 
ATOM     78  H   UNL     1     142.352 169.399 190.933  0.00  0.00    +0.052 HD
ATOM     79  H   UNL     1     142.665 170.490 192.295  0.00  0.00    +0.052 HD
ATOM     80  H   UNL     1     142.703 171.133 190.646  0.00  0.00    +0.052 HD
ENDBRANCH  76  77
ENDBRANCH  53  76
ENDBRANCH  47  53
ENDBRANCH   1  47
BRANCH   1  81
ATOM     81  O   UNL     1     146.882 172.909 191.269  0.00  0.00    -0.461 OA
BRANCH  81  82
ATOM     82  C   UNL     1     148.134 173.387 191.512  0.00  0.00    +0.310 C 
ATOM     83  O   UNL     1     149.025 173.490 190.678  0.00  0.00    -0.251 OA
BRANCH  82  84
ATOM     84  C   UNL     1     148.296 173.797 192.962  0.00  0.00    +0.051 C 
ATOM     85  H   UNL     1     148.603 174.851 192.959  0.00  0.00    +0.041 HD
BRANCH  84  86
ATOM     86  C   UNL     1     146.971 173.689 193.708  0.00  0.00    -0.053 C 
ATOM     87  H   UNL     1     146.221 174.354 193.267  0.00  0.00    +0.024 HD
ATOM     88  H   UNL     1     147.097 173.966 194.760  0.00  0.00    +0.024 HD
ATOM     89  H   UNL     1     146.571 172.670 193.671  0.00  0.00    +0.024 HD
ENDBRANCH  84  86
BRANCH  84  90
ATOM     90  C   UNL     1     149.398 172.988 193.635  0.00  0.00    -0.053 C 
ATOM     91  H   UNL     1     149.665 172.115 193.030  0.00  0.00    +0.024 HD
ATOM     92  H   UNL     1     149.089 172.624 194.620  0.00  0.00    +0.024 HD
ATOM     93  H   UNL     1     150.299 173.596 193.768  0.00  0.00    +0.024 HD
ENDBRANCH  84  90
ENDBRANCH  82  84
ENDBRANCH  81  82
ENDBRANCH   1  81
TORSDOF 32
ENDMDL
MODEL 8
REMARK VINA RESULT:      -5.2      3.343      9.807
REMARK  Name = 2c_conf3
REMARK  32 active torsions:
REMARK  status: ('A' for Active; 'I' for Inactive)
REMARK    1  A    between atoms: N_2  and  C_3
REMARK    2  A    between atoms: N_2  and  C_5
REMARK    3  A    between atoms: C_3  and  C_4
REMARK    4  A    between atoms: C_6  and  C_7
REMARK    5  A    between atoms: C_7  and  C_8
REMARK    6  A    between atoms: C_7  and  C_9
REMARK    7  A    between atoms: C_9  and  O_10
REMARK    8  A    between atoms: C_9  and  C_12
REMARK    9  A    between atoms: O_10  and  C_11
REMARK   10  A    between atoms: C_12  and  C_13
REMARK   11  A    between atoms: C_12  and  C_14
REMARK   12  A    between atoms: C_14  and  O_15
REMARK   13  A    between atoms: C_14  and  C_21
REMARK   14  A    between atoms: O_15  and  C_16
REMARK   15  A    between atoms: C_16  and  C_17
REMARK   16  A    between atoms: C_17  and  C_18
REMARK   17  A    between atoms: C_17  and  C_19
REMARK   18  A    between atoms: C_21  and  C_22
REMARK   19  A    between atoms: C_22  and  C_23
REMARK   20  A    between atoms: C_23  and  C_24
REMARK   21  A    between atoms: C_23  and  C_25
REMARK   22  A    between atoms: C_25  and  O_26
REMARK   23  A    between atoms: C_25  and  C_28
REMARK   24  A    between atoms: O_26  and  C_27
REMARK   25  A    between atoms: C_28  and  C_29
REMARK   26  A    between atoms: C_29  and  O_30
REMARK   27  A    between atoms: C_29  and  C_35
REMARK   28  A    between atoms: O_30  and  C_31
REMARK   29  A    between atoms: C_31  and  C_32
REMARK   30  A    between atoms: C_32  and  C_33
REMARK   31  A    between atoms: C_35  and  C_36
REMARK   32  A    between atoms: C_35  and  C_37
REMARK                            x       y       z     vdW  Elec       q    Type
REMARK                         _______ _______ _______ _____ _____    ______ ____
ROOT
ATOM      1  C   UNL     1     149.377 166.224 192.973  0.00  0.00    +0.108 C 
ATOM      2  H   UNL     1     149.965 166.865 193.634  0.00  0.00    +0.074 HD
ENDROOT
BRANCH   1   3
ATOM      3  C   UNL     1     148.303 167.090 192.274  0.00  0.00    -0.015 C 
ATOM      4  H   UNL     1     148.320 166.894 191.198  0.00  0.00    +0.030 HD
ATOM      5  H   UNL     1     147.319 166.783 192.646  0.00  0.00    +0.030 HD
BRANCH   3   6
ATOM      6  C   UNL     1     148.461 168.597 192.534  0.00  0.00    -0.045 C 
ATOM      7  H   UNL     1     147.456 169.012 192.686  0.00  0.00    +0.027 HD
ATOM      8  H   UNL     1     148.985 168.743 193.481  0.00  0.00    +0.027 HD
BRANCH   6   9
ATOM      9  C   UNL     1     149.113 169.434 191.405  0.00  0.00    -0.017 C 
ATOM     10  H   UNL     1     149.376 168.720 190.609  0.00  0.00    +0.032 HD
BRANCH   9  11
ATOM     11  C   UNL     1     150.449 170.054 191.831  0.00  0.00    -0.060 C 
ATOM     12  H   UNL     1     151.278 169.356 191.674  0.00  0.00    +0.023 HD
ATOM     13  H   UNL     1     150.443 170.296 192.898  0.00  0.00    +0.023 HD
ATOM     14  H   UNL     1     150.666 170.969 191.270  0.00  0.00    +0.023 HD
ENDBRANCH   9  11
BRANCH   9  15
ATOM     15  C   UNL     1     148.147 170.470 190.743  0.00  0.00    +0.064 C 
ATOM     16  H   UNL     1     148.136 170.336 189.654  0.00  0.00    +0.060 HD
BRANCH  15  17
ATOM     17  C   UNL     1     148.577 171.916 191.088  0.00  0.00    +0.011 C 
ATOM     18  H   UNL     1     149.469 171.856 191.721  0.00  0.00    +0.033 HD
ATOM     19  H   UNL     1     148.861 172.434 190.166  0.00  0.00    +0.033 HD
BRANCH  17  20
ATOM     20  C   UNL     1     147.523 172.775 191.820  0.00  0.00    +0.108 C 
ATOM     21  H   UNL     1     146.754 172.114 192.236  0.00  0.00    +0.074 HD
BRANCH  20  22
ATOM     22  C   UNL     1     148.166 173.601 192.974  0.00  0.00    -0.009 C 
ATOM     23  H   UNL     1     148.489 174.568 192.567  0.00  0.00    +0.033 HD
BRANCH  22  24
ATOM     24  C   UNL     1     149.389 172.907 193.585  0.00  0.00    -0.059 C 
ATOM     25  H   UNL     1     150.315 173.271 193.129  0.00  0.00    +0.023 HD
ATOM     26  H   UNL     1     149.448 173.088 194.663  0.00  0.00    +0.023 HD
ATOM     27  H   UNL     1     149.364 171.826 193.418  0.00  0.00    +0.023 HD
ENDBRANCH  22  24
BRANCH  22  28
ATOM     28  C   UNL     1     147.169 173.911 194.097  0.00  0.00    -0.059 C 
ATOM     29  H   UNL     1     146.137 173.889 193.727  0.00  0.00    +0.023 HD
ATOM     30  H   UNL     1     147.361 174.893 194.541  0.00  0.00    +0.023 HD
ATOM     31  H   UNL     1     147.251 173.177 194.905  0.00  0.00    +0.023 HD
ENDBRANCH  22  28
ENDBRANCH  20  22
BRANCH  20  32
ATOM     32  O   UNL     1     146.962 173.689 190.852  0.00  0.00    -0.461 OA
BRANCH  32  33
ATOM     33  C   UNL     1     145.755 173.353 190.310  0.00  0.00    +0.307 C 
ATOM     34  O   UNL     1     145.576 172.938 189.174  0.00  0.00    -0.251 OA
BRANCH  33  35
ATOM     35  C   UNL     1     144.663 173.585 191.322  0.00  0.00    +0.042 C 
ATOM     36  H   UNL     1     145.105 173.573 192.323  0.00  0.00    +0.037 HD
ATOM     37  H   UNL     1     144.224 174.567 191.128  0.00  0.00    +0.037 HD
BRANCH  35  38
ATOM     38  C   UNL     1     143.583 172.519 191.249  0.00  0.00    -0.055 C 
ATOM     39  H   UNL     1     142.863 172.760 190.461  0.00  0.00    +0.023 HD
ATOM     40  H   UNL     1     143.045 172.442 192.201  0.00  0.00    +0.023 HD
ATOM     41  H   UNL     1     144.017 171.537 191.030  0.00  0.00    +0.023 HD
ENDBRANCH  35  38
ENDBRANCH  33  35
ENDBRANCH  32  33
ENDBRANCH  20  32
ENDBRANCH  17  20
ENDBRANCH  15  17
BRANCH  15  42
ATOM     42  O   UNL     1     146.840 170.275 191.301  0.00  0.00    -0.379 OA
BRANCH  42  43
ATOM     43  C   UNL     1     145.921 169.675 190.398  0.00  0.00    +0.037 C 
ATOM     44  H   UNL     1     146.472 169.348 189.512  0.00  0.00    +0.052 HD
ATOM     45  H   UNL     1     145.439 168.806 190.852  0.00  0.00    +0.052 HD
ATOM     46  H   UNL     1     145.159 170.393 190.086  0.00  0.00    +0.052 HD
ENDBRANCH  42  43
ENDBRANCH  15  42
ENDBRANCH   9  15
ENDBRANCH   6   9
ENDBRANCH   3   6
ENDBRANCH   1   3
BRANCH   1  47
ATOM     47  C   UNL     1     150.319 165.505 191.972  0.00  0.00    +0.020 C 
ATOM     48  H   UNL     1     149.864 165.653 190.982  0.00  0.00    +0.036 HD
BRANCH  47  49
ATOM     49  C   UNL     1     150.262 163.979 192.158  0.00  0.00    -0.057 C 
ATOM     50  H   UNL     1     149.287 163.569 191.876  0.00  0.00    +0.023 HD
ATOM     51  H   UNL     1     151.043 163.471 191.585  0.00  0.00    +0.023 HD
ATOM     52  H   UNL     1     150.418 163.717 193.211  0.00  0.00    +0.023 HD
ENDBRANCH  47  49
BRANCH  47  53
ATOM     53  C   UNL     1     151.764 166.070 191.868  0.00  0.00    +0.070 C 
ATOM     54  H   UNL     1     152.463 165.263 192.124  0.00  0.00    +0.061 HD
BRANCH  53  55
ATOM     55  C   UNL     1     152.283 166.687 190.535  0.00  0.00    +0.002 C 
ATOM     56  H   UNL     1     152.823 167.598 190.841  0.00  0.00    +0.037 HD
BRANCH  55  58
ATOM     57  C   UNL     1     153.156 164.479 189.746  0.00  0.00    -0.005 C 
ATOM     58  C   UNL     1     153.265 165.815 189.781  0.00  0.00    -0.065 C 
ATOM     59  H   UNL     1     152.314 164.015 190.262  0.00  0.00    +0.078 HD
ATOM     60  H   UNL     1     154.091 166.335 189.307  0.00  0.00    +0.059 HD
BRANCH  57  62
ATOM     61  C   UNL     1     154.809 163.857 188.027  0.00  0.00    +0.206 C 
ATOM     62  N   UNL     1     154.015 163.579 189.134  0.00  0.00    -0.281 N 
ATOM     63  O   UNL     1     155.613 163.085 187.514  0.00  0.00    -0.279 OA
ATOM     64  H   UNL     1     154.671 164.867 187.617  0.00  0.00    +0.126 HD
BRANCH  62  65
ATOM     65  C   UNL     1     154.146 162.247 189.737  0.00  0.00    +0.016 C 
ATOM     66  H   UNL     1     154.455 161.530 188.965  0.00  0.00    +0.047 HD
ATOM     67  H   UNL     1     154.946 162.264 190.487  0.00  0.00    +0.047 HD
BRANCH  65  68
ATOM     68  C   UNL     1     152.854 161.791 190.400  0.00  0.00    -0.049 C 
ATOM     69  H   UNL     1     152.733 160.708 190.291  0.00  0.00    +0.024 HD
ATOM     70  H   UNL     1     151.982 162.280 189.949  0.00  0.00    +0.024 HD
ATOM     71  H   UNL     1     152.855 162.028 191.468  0.00  0.00    +0.024 HD
ENDBRANCH  65  68
ENDBRANCH  62  65
ENDBRANCH  57  62
ENDBRANCH  55  58
BRANCH  55  72
ATOM     72  C   UNL     1     151.209 167.208 189.576  0.00  0.00    -0.057 C 
ATOM     73  H   UNL     1     151.594 167.226 188.548  0.00  0.00    +0.024 HD
ATOM     74  H   UNL     1     150.905 168.230 189.823  0.00  0.00    +0.024 HD
ATOM     75  H   UNL     1     150.319 166.571 189.561  0.00  0.00    +0.024 HD
ENDBRANCH  55  72
ENDBRANCH  53  55
BRANCH  53  76
ATOM     76  O   UNL     1     151.924 167.108 192.864  0.00  0.00    -0.379 OA
BRANCH  76  77
ATOM     77  C   UNL     1     153.269 167.546 193.025  0.00  0.00    +0.037 C 
ATOM     78  H   UNL     1     153.852 166.803 193.576  0.00  0.00    +0.052 HD
ATOM     79  H   UNL     1     153.711 167.663 192.033  0.00  0.00    +0.052 HD
ATOM     80  H   UNL     1     153.311 168.511 193.535  0.00  0.00    +0.052 HD
ENDBRANCH  76  77
ENDBRANCH  53  76
ENDBRANCH  47  53
ENDBRANCH   1  47
BRANCH   1  81
ATOM     81  O   UNL     1     148.707 165.192 193.740  0.00  0.00    -0.461 OA
BRANCH  81  82
ATOM     82  C   UNL     1     148.127 165.568 194.914  0.00  0.00    +0.310 C 
ATOM     83  O   UNL     1     146.952 165.390 195.209  0.00  0.00    -0.251 OA
BRANCH  82  84
ATOM     84  C   UNL     1     149.128 166.236 195.835  0.00  0.00    +0.051 C 
ATOM     85  H   UNL     1     149.662 166.982 195.232  0.00  0.00    +0.041 HD
BRANCH  84  86
ATOM     86  C   UNL     1     148.420 166.962 196.973  0.00  0.00    -0.053 C 
ATOM     87  H   UNL     1     148.123 167.969 196.666  0.00  0.00    +0.024 HD
ATOM     88  H   UNL     1     149.079 167.050 197.844  0.00  0.00    +0.024 HD
ATOM     89  H   UNL     1     147.514 166.431 197.286  0.00  0.00    +0.024 HD
ENDBRANCH  84  86
BRANCH  84  90
ATOM     90  C   UNL     1     150.149 165.228 196.348  0.00  0.00    -0.053 C 
ATOM     91  H   UNL     1     150.187 165.234 197.443  0.00  0.00    +0.024 HD
ATOM     92  H   UNL     1     151.157 165.450 195.982  0.00  0.00    +0.024 HD
ATOM     93  H   UNL     1     149.890 164.214 196.024  0.00  0.00    +0.024 HD
ENDBRANCH  84  90
ENDBRANCH  82  84
ENDBRANCH  81  82
ENDBRANCH   1  81
TORSDOF 32
ENDMDL
MODEL 9
REMARK VINA RESULT:      -5.2      3.317      8.182
REMARK  Name = 2c_conf3
REMARK  32 active torsions:
REMARK  status: ('A' for Active; 'I' for Inactive)
REMARK    1  A    between atoms: N_2  and  C_3
REMARK    2  A    between atoms: N_2  and  C_5
REMARK    3  A    between atoms: C_3  and  C_4
REMARK    4  A    between atoms: C_6  and  C_7
REMARK    5  A    between atoms: C_7  and  C_8
REMARK    6  A    between atoms: C_7  and  C_9
REMARK    7  A    between atoms: C_9  and  O_10
REMARK    8  A    between atoms: C_9  and  C_12
REMARK    9  A    between atoms: O_10  and  C_11
REMARK   10  A    between atoms: C_12  and  C_13
REMARK   11  A    between atoms: C_12  and  C_14
REMARK   12  A    between atoms: C_14  and  O_15
REMARK   13  A    between atoms: C_14  and  C_21
REMARK   14  A    between atoms: O_15  and  C_16
REMARK   15  A    between atoms: C_16  and  C_17
REMARK   16  A    between atoms: C_17  and  C_18
REMARK   17  A    between atoms: C_17  and  C_19
REMARK   18  A    between atoms: C_21  and  C_22
REMARK   19  A    between atoms: C_22  and  C_23
REMARK   20  A    between atoms: C_23  and  C_24
REMARK   21  A    between atoms: C_23  and  C_25
REMARK   22  A    between atoms: C_25  and  O_26
REMARK   23  A    between atoms: C_25  and  C_28
REMARK   24  A    between atoms: O_26  and  C_27
REMARK   25  A    between atoms: C_28  and  C_29
REMARK   26  A    between atoms: C_29  and  O_30
REMARK   27  A    between atoms: C_29  and  C_35
REMARK   28  A    between atoms: O_30  and  C_31
REMARK   29  A    between atoms: C_31  and  C_32
REMARK   30  A    between atoms: C_32  and  C_33
REMARK   31  A    between atoms: C_35  and  C_36
REMARK   32  A    between atoms: C_35  and  C_37
REMARK                            x       y       z     vdW  Elec       q    Type
REMARK                         _______ _______ _______ _____ _____    ______ ____
ROOT
ATOM      1  C   UNL     1     148.466 169.835 190.972  0.00  0.00    +0.108 C 
ATOM      2  H   UNL     1     149.328 170.473 190.766  0.00  0.00    +0.074 HD
ENDROOT
BRANCH   1   3
ATOM      3  C   UNL     1     147.694 169.607 189.651  0.00  0.00    -0.015 C 
ATOM      4  H   UNL     1     148.148 170.205 188.855  0.00  0.00    +0.030 HD
ATOM      5  H   UNL     1     147.801 168.552 189.369  0.00  0.00    +0.030 HD
BRANCH   3   6
ATOM      6  C   UNL     1     146.193 169.923 189.752  0.00  0.00    -0.045 C 
ATOM      7  H   UNL     1     145.837 169.528 190.712  0.00  0.00    +0.027 HD
ATOM      8  H   UNL     1     146.060 171.005 189.811  0.00  0.00    +0.027 HD
BRANCH   6   9
ATOM      9  C   UNL     1     145.278 169.310 188.662  0.00  0.00    -0.017 C 
ATOM     10  H   UNL     1     145.952 168.877 187.906  0.00  0.00    +0.032 HD
BRANCH   9  11
ATOM     11  C   UNL     1     144.474 170.373 187.905  0.00  0.00    -0.060 C 
ATOM     12  H   UNL     1     143.890 170.993 188.594  0.00  0.00    +0.023 HD
ATOM     13  H   UNL     1     143.757 169.906 187.222  0.00  0.00    +0.023 HD
ATOM     14  H   UNL     1     145.124 171.035 187.324  0.00  0.00    +0.023 HD
ENDBRANCH   9  11
BRANCH   9  15
ATOM     15  C   UNL     1     144.392 168.126 189.169  0.00  0.00    +0.064 C 
ATOM     16  H   UNL     1     144.299 167.361 188.387  0.00  0.00    +0.060 HD
BRANCH  15  17
ATOM     17  C   UNL     1     142.986 168.631 189.576  0.00  0.00    +0.011 C 
ATOM     18  H   UNL     1     142.798 169.563 189.033  0.00  0.00    +0.033 HD
ATOM     19  H   UNL     1     142.236 167.902 189.250  0.00  0.00    +0.033 HD
BRANCH  17  20
ATOM     20  C   UNL     1     142.777 168.899 191.082  0.00  0.00    +0.108 C 
ATOM     21  H   UNL     1     143.735 168.768 191.601  0.00  0.00    +0.074 HD
BRANCH  20  22
ATOM     22  C   UNL     1     142.253 170.345 191.334  0.00  0.00    -0.009 C 
ATOM     23  H   UNL     1     141.889 170.403 192.368  0.00  0.00    +0.033 HD
BRANCH  22  24
ATOM     24  C   UNL     1     141.100 170.725 190.398  0.00  0.00    -0.059 C 
ATOM     25  H   UNL     1     140.667 171.690 190.681  0.00  0.00    +0.023 HD
ATOM     26  H   UNL     1     141.442 170.798 189.361  0.00  0.00    +0.023 HD
ATOM     27  H   UNL     1     140.287 169.994 190.443  0.00  0.00    +0.023 HD
ENDBRANCH  22  24
BRANCH  22  28
ATOM     28  C   UNL     1     143.359 171.398 191.201  0.00  0.00    -0.059 C 
ATOM     29  H   UNL     1     144.352 170.935 191.217  0.00  0.00    +0.023 HD
ATOM     30  H   UNL     1     143.304 172.138 192.006  0.00  0.00    +0.023 HD
ATOM     31  H   UNL     1     143.260 171.950 190.260  0.00  0.00    +0.023 HD
ENDBRANCH  22  28
ENDBRANCH  20  22
BRANCH  20  32
ATOM     32  O   UNL     1     141.790 167.957 191.556  0.00  0.00    -0.461 OA
BRANCH  32  33
ATOM     33  C   UNL     1     142.244 166.736 191.964  0.00  0.00    +0.307 C 
ATOM     34  O   UNL     1     141.998 165.669 191.421  0.00  0.00    -0.251 OA
BRANCH  33  35
ATOM     35  C   UNL     1     143.087 166.897 193.202  0.00  0.00    +0.042 C 
ATOM     36  H   UNL     1     143.597 165.950 193.404  0.00  0.00    +0.037 HD
ATOM     37  H   UNL     1     143.829 167.677 193.008  0.00  0.00    +0.037 HD
BRANCH  35  38
ATOM     38  C   UNL     1     142.253 167.275 194.414  0.00  0.00    -0.055 C 
ATOM     39  H   UNL     1     142.607 168.220 194.839  0.00  0.00    +0.023 HD
ATOM     40  H   UNL     1     142.314 166.500 195.187  0.00  0.00    +0.023 HD
ATOM     41  H   UNL     1     141.199 167.394 194.142  0.00  0.00    +0.023 HD
ENDBRANCH  35  38
ENDBRANCH  33  35
ENDBRANCH  32  33
ENDBRANCH  20  32
ENDBRANCH  17  20
ENDBRANCH  15  17
BRANCH  15  42
ATOM     42  O   UNL     1     145.004 167.588 190.349  0.00  0.00    -0.379 OA
BRANCH  42  43
ATOM     43  C   UNL     1     145.532 166.282 190.169  0.00  0.00    +0.037 C 
ATOM     44  H   UNL     1     146.568 166.372 189.829  0.00  0.00    +0.052 HD
ATOM     45  H   UNL     1     145.519 165.722 191.107  0.00  0.00    +0.052 HD
ATOM     46  H   UNL     1     144.966 165.735 189.411  0.00  0.00    +0.052 HD
ENDBRANCH  42  43
ENDBRANCH  15  42
ENDBRANCH   9  15
ENDBRANCH   6   9
ENDBRANCH   3   6
ENDBRANCH   1   3
BRANCH   1  47
ATOM     47  C   UNL     1     148.942 168.512 191.629  0.00  0.00    +0.020 C 
ATOM     48  H   UNL     1     148.888 167.753 190.836  0.00  0.00    +0.036 HD
BRANCH  47  49
ATOM     49  C   UNL     1     147.920 168.010 192.663  0.00  0.00    -0.057 C 
ATOM     50  H   UNL     1     148.394 167.416 193.451  0.00  0.00    +0.023 HD
ATOM     51  H   UNL     1     147.367 168.835 193.122  0.00  0.00    +0.023 HD
ATOM     52  H   UNL     1     147.180 167.359 192.184  0.00  0.00    +0.023 HD
ENDBRANCH  47  49
BRANCH  47  53
ATOM     53  C   UNL     1     150.411 168.494 192.140  0.00  0.00    +0.070 C 
ATOM     54  H   UNL     1     150.415 168.863 193.174  0.00  0.00    +0.061 HD
BRANCH  53  55
ATOM     55  C   UNL     1     151.233 167.171 192.148  0.00  0.00    +0.002 C 
ATOM     56  H   UNL     1     152.220 167.455 191.746  0.00  0.00    +0.037 HD
BRANCH  55  58
ATOM     57  C   UNL     1     150.478 165.994 194.222  0.00  0.00    -0.005 C 
ATOM     58  C   UNL     1     151.461 166.582 193.524  0.00  0.00    -0.065 C 
ATOM     59  H   UNL     1     149.490 165.922 193.765  0.00  0.00    +0.078 HD
ATOM     60  H   UNL     1     152.458 166.704 193.931  0.00  0.00    +0.059 HD
BRANCH  57  62
ATOM     61  C   UNL     1     151.361 164.399 195.881  0.00  0.00    +0.206 C 
ATOM     62  N   UNL     1     150.553 165.465 195.501  0.00  0.00    -0.281 N 
ATOM     63  O   UNL     1     151.476 163.961 197.021  0.00  0.00    -0.279 OA
ATOM     64  H   UNL     1     151.927 163.947 195.054  0.00  0.00    +0.126 HD
BRANCH  62  65
ATOM     65  C   UNL     1     149.766 166.119 196.555  0.00  0.00    +0.016 C 
ATOM     66  H   UNL     1     149.876 165.555 197.490  0.00  0.00    +0.047 HD
ATOM     67  H   UNL     1     150.172 167.121 196.744  0.00  0.00    +0.047 HD
BRANCH  65  68
ATOM     68  C   UNL     1     148.297 166.242 196.177  0.00  0.00    -0.049 C 
ATOM     69  H   UNL     1     148.167 167.005 195.403  0.00  0.00    +0.024 HD
ATOM     70  H   UNL     1     147.687 166.525 197.042  0.00  0.00    +0.024 HD
ATOM     71  H   UNL     1     147.910 165.294 195.790  0.00  0.00    +0.024 HD
ENDBRANCH  65  68
ENDBRANCH  62  65
ENDBRANCH  57  62
ENDBRANCH  55  58
BRANCH  55  72
ATOM     72  C   UNL     1     150.753 166.078 191.188  0.00  0.00    -0.057 C 
ATOM     73  H   UNL     1     150.761 166.450 190.156  0.00  0.00    +0.024 HD
ATOM     74  H   UNL     1     149.727 165.767 191.409  0.00  0.00    +0.024 HD
ATOM     75  H   UNL     1     151.400 165.196 191.205  0.00  0.00    +0.024 HD
ENDBRANCH  55  72
ENDBRANCH  53  55
BRANCH  53  76
ATOM     76  O   UNL     1     151.184 169.428 191.349  0.00  0.00    -0.379 OA
BRANCH  76  77
ATOM     77  C   UNL     1     152.002 170.296 192.125  0.00  0.00    +0.037 C 
ATOM     78  H   UNL     1     152.977 170.434 191.649  0.00  0.00    +0.052 HD
ATOM     79  H   UNL     1     151.507 171.269 192.183  0.00  0.00    +0.052 HD
ATOM     80  H   UNL     1     152.130 169.915 193.141  0.00  0.00    +0.052 HD
ENDBRANCH  76  77
ENDBRANCH  53  76
ENDBRANCH  47  53
ENDBRANCH   1  47
BRANCH   1  81
ATOM     81  O   UNL     1     147.578 170.482 191.917  0.00  0.00    -0.461 OA
BRANCH  81  82
ATOM     82  C   UNL     1     147.998 171.658 192.461  0.00  0.00    +0.310 C 
ATOM     83  O   UNL     1     149.122 171.872 192.898  0.00  0.00    -0.251 OA
BRANCH  82  84
ATOM     84  C   UNL     1     146.893 172.696 192.452  0.00  0.00    +0.051 C 
ATOM     85  H   UNL     1     145.951 172.153 192.602  0.00  0.00    +0.041 HD
BRANCH  84  86
ATOM     86  C   UNL     1     147.064 173.682 193.601  0.00  0.00    -0.053 C 
ATOM     87  H   UNL     1     146.875 174.707 193.265  0.00  0.00    +0.024 HD
ATOM     88  H   UNL     1     148.082 173.635 194.002  0.00  0.00    +0.024 HD
ATOM     89  H   UNL     1     146.368 173.469 194.420  0.00  0.00    +0.024 HD
ENDBRANCH  84  86
BRANCH  84  90
ATOM     90  C   UNL     1     146.821 173.398 191.102  0.00  0.00    -0.053 C 
ATOM     91  H   UNL     1     147.816 173.475 190.649  0.00  0.00    +0.024 HD
ATOM     92  H   UNL     1     146.422 174.414 191.195  0.00  0.00    +0.024 HD
ATOM     93  H   UNL     1     146.176 172.846 190.411  0.00  0.00    +0.024 HD
ENDBRANCH  84  90
ENDBRANCH  82  84
ENDBRANCH  81  82
ENDBRANCH   1  81
TORSDOF 32
ENDMDL
MODEL 10
REMARK VINA RESULT:      -5.2      2.619      4.814
REMARK  Name = 2c_conf3
REMARK  32 active torsions:
REMARK  status: ('A' for Active; 'I' for Inactive)
REMARK    1  A    between atoms: N_2  and  C_3
REMARK    2  A    between atoms: N_2  and  C_5
REMARK    3  A    between atoms: C_3  and  C_4
REMARK    4  A    between atoms: C_6  and  C_7
REMARK    5  A    between atoms: C_7  and  C_8
REMARK    6  A    between atoms: C_7  and  C_9
REMARK    7  A    between atoms: C_9  and  O_10
REMARK    8  A    between atoms: C_9  and  C_12
REMARK    9  A    between atoms: O_10  and  C_11
REMARK   10  A    between atoms: C_12  and  C_13
REMARK   11  A    between atoms: C_12  and  C_14
REMARK   12  A    between atoms: C_14  and  O_15
REMARK   13  A    between atoms: C_14  and  C_21
REMARK   14  A    between atoms: O_15  and  C_16
REMARK   15  A    between atoms: C_16  and  C_17
REMARK   16  A    between atoms: C_17  and  C_18
REMARK   17  A    between atoms: C_17  and  C_19
REMARK   18  A    between atoms: C_21  and  C_22
REMARK   19  A    between atoms: C_22  and  C_23
REMARK   20  A    between atoms: C_23  and  C_24
REMARK   21  A    between atoms: C_23  and  C_25
REMARK   22  A    between atoms: C_25  and  O_26
REMARK   23  A    between atoms: C_25  and  C_28
REMARK   24  A    between atoms: O_26  and  C_27
REMARK   25  A    between atoms: C_28  and  C_29
REMARK   26  A    between atoms: C_29  and  O_30
REMARK   27  A    between atoms: C_29  and  C_35
REMARK   28  A    between atoms: O_30  and  C_31
REMARK   29  A    between atoms: C_31  and  C_32
REMARK   30  A    between atoms: C_32  and  C_33
REMARK   31  A    between atoms: C_35  and  C_36
REMARK   32  A    between atoms: C_35  and  C_37
REMARK                            x       y       z     vdW  Elec       q    Type
REMARK                         _______ _______ _______ _____ _____    ______ ____
ROOT
ATOM      1  C   UNL     1     146.854 171.120 190.985  0.00  0.00    +0.108 C 
ATOM      2  H   UNL     1     146.359 170.607 191.813  0.00  0.00    +0.074 HD
ENDROOT
BRANCH   1   3
ATOM      3  C   UNL     1     148.311 170.611 190.890  0.00  0.00    -0.015 C 
ATOM      4  H   UNL     1     148.552 170.385 189.847  0.00  0.00    +0.030 HD
ATOM      5  H   UNL     1     148.979 171.420 191.211  0.00  0.00    +0.030 HD
BRANCH   3   6
ATOM      6  C   UNL     1     148.594 169.383 191.770  0.00  0.00    -0.045 C 
ATOM      7  H   UNL     1     148.006 169.495 192.690  0.00  0.00    +0.027 HD
ATOM      8  H   UNL     1     148.201 168.492 191.277  0.00  0.00    +0.027 HD
BRANCH   6   9
ATOM      9  C   UNL     1     150.063 169.169 192.215  0.00  0.00    -0.017 C 
ATOM     10  H   UNL     1     150.069 169.281 193.311  0.00  0.00    +0.032 HD
BRANCH   9  11
ATOM     11  C   UNL     1     150.998 170.271 191.704  0.00  0.00    -0.060 C 
ATOM     12  H   UNL     1     151.421 170.011 190.728  0.00  0.00    +0.023 HD
ATOM     13  H   UNL     1     151.845 170.409 192.384  0.00  0.00    +0.023 HD
ATOM     14  H   UNL     1     150.477 171.228 191.603  0.00  0.00    +0.023 HD
ENDBRANCH   9  11
BRANCH   9  15
ATOM     15  C   UNL     1     150.609 167.731 191.932  0.00  0.00    +0.064 C 
ATOM     16  H   UNL     1     149.793 167.075 191.601  0.00  0.00    +0.060 HD
BRANCH  15  17
ATOM     17  C   UNL     1     151.275 167.140 193.198  0.00  0.00    +0.011 C 
ATOM     18  H   UNL     1     152.229 166.697 192.895  0.00  0.00    +0.033 HD
ATOM     19  H   UNL     1     151.496 167.953 193.899  0.00  0.00    +0.033 HD
BRANCH  17  20
ATOM     20  C   UNL     1     150.459 166.065 193.948  0.00  0.00    +0.108 C 
ATOM     21  H   UNL     1     150.505 165.126 193.381  0.00  0.00    +0.074 HD
BRANCH  20  22
ATOM     22  C   UNL     1     151.021 165.824 195.382  0.00  0.00    -0.009 C 
ATOM     23  H   UNL     1     151.944 166.407 195.493  0.00  0.00    +0.033 HD
BRANCH  22  24
ATOM     24  C   UNL     1     151.352 164.350 195.644  0.00  0.00    -0.059 C 
ATOM     25  H   UNL     1     151.492 163.806 194.704  0.00  0.00    +0.023 HD
ATOM     26  H   UNL     1     152.271 164.251 196.232  0.00  0.00    +0.023 HD
ATOM     27  H   UNL     1     150.544 163.844 196.179  0.00  0.00    +0.023 HD
ENDBRANCH  22  24
BRANCH  22  28
ATOM     28  C   UNL     1     150.062 166.311 196.474  0.00  0.00    -0.059 C 
ATOM     29  H   UNL     1     150.288 167.342 196.768  0.00  0.00    +0.023 HD
ATOM     30  H   UNL     1     150.112 165.674 197.363  0.00  0.00    +0.023 HD
ATOM     31  H   UNL     1     149.024 166.282 196.123  0.00  0.00    +0.023 HD
ENDBRANCH  22  28
ENDBRANCH  20  22
BRANCH  20  32
ATOM     32  O   UNL     1     149.102 166.547 194.056  0.00  0.00    -0.461 OA
BRANCH  32  33
ATOM     33  C   UNL     1     148.117 165.740 193.564  0.00  0.00    +0.307 C 
ATOM     34  O   UNL     1     148.177 165.096 192.526  0.00  0.00    -0.251 OA
BRANCH  33  35
ATOM     35  C   UNL     1     146.928 165.771 194.489  0.00  0.00    +0.042 C 
ATOM     36  H   UNL     1     146.847 164.801 194.989  0.00  0.00    +0.037 HD
ATOM     37  H   UNL     1     147.098 166.553 195.235  0.00  0.00    +0.037 HD
BRANCH  35  38
ATOM     38  C   UNL     1     145.634 166.050 193.744  0.00  0.00    -0.055 C 
ATOM     39  H   UNL     1     145.846 166.508 192.772  0.00  0.00    +0.023 HD
ATOM     40  H   UNL     1     144.991 166.728 194.317  0.00  0.00    +0.023 HD
ATOM     41  H   UNL     1     145.074 165.124 193.572  0.00  0.00    +0.023 HD
ENDBRANCH  35  38
ENDBRANCH  33  35
ENDBRANCH  32  33
ENDBRANCH  20  32
ENDBRANCH  17  20
ENDBRANCH  15  17
BRANCH  15  42
ATOM     42  O   UNL     1     151.629 167.834 190.929  0.00  0.00    -0.379 OA
BRANCH  42  43
ATOM     43  C   UNL     1     152.564 166.766 190.958  0.00  0.00    +0.037 C 
ATOM     44  H   UNL     1     152.037 165.854 191.256  0.00  0.00    +0.052 HD
ATOM     45  H   UNL     1     153.008 166.608 189.973  0.00  0.00    +0.052 HD
ATOM     46  H   UNL     1     153.355 166.962 191.687  0.00  0.00    +0.052 HD
ENDBRANCH  42  43
ENDBRANCH  15  42
ENDBRANCH   9  15
ENDBRANCH   6   9
ENDBRANCH   3   6
ENDBRANCH   1   3
BRANCH   1  47
ATOM     47  C   UNL     1     146.050 170.895 189.678  0.00  0.00    +0.020 C 
ATOM     48  H   UNL     1     146.785 170.554 188.935  0.00  0.00    +0.036 HD
BRANCH  47  49
ATOM     49  C   UNL     1     145.557 172.231 189.095  0.00  0.00    -0.057 C 
ATOM     50  H   UNL     1     145.119 172.876 189.864  0.00  0.00    +0.023 HD
ATOM     51  H   UNL     1     146.360 172.774 188.589  0.00  0.00    +0.023 HD
ATOM     52  H   UNL     1     144.772 172.056 188.351  0.00  0.00    +0.023 HD
ENDBRANCH  47  49
BRANCH  47  53
ATOM     53  C   UNL     1     144.953 169.794 189.732  0.00  0.00    +0.070 C 
ATOM     54  H   UNL     1     144.132 170.099 189.070  0.00  0.00    +0.061 HD
BRANCH  53  55
ATOM     55  C   UNL     1     145.287 168.319 189.358  0.00  0.00    +0.002 C 
ATOM     56  H   UNL     1     144.562 168.061 188.569  0.00  0.00    +0.037 HD
BRANCH  55  58
ATOM     57  C   UNL     1     146.908 168.158 187.459  0.00  0.00    -0.005 C 
ATOM     58  C   UNL     1     146.672 168.117 188.778  0.00  0.00    -0.065 C 
ATOM     59  H   UNL     1     146.073 168.368 186.790  0.00  0.00    +0.078 HD
ATOM     60  H   UNL     1     147.455 167.892 189.493  0.00  0.00    +0.059 HD
BRANCH  57  62
ATOM     61  C   UNL     1     149.020 166.932 187.123  0.00  0.00    +0.206 C 
ATOM     62  N   UNL     1     148.115 167.941 186.812  0.00  0.00    -0.281 N 
ATOM     63  O   UNL     1     150.063 166.698 186.520  0.00  0.00    -0.279 OA
ATOM     64  H   UNL     1     148.730 166.318 187.987  0.00  0.00    +0.126 HD
BRANCH  62  65
ATOM     65  C   UNL     1     148.438 168.802 185.667  0.00  0.00    +0.016 C 
ATOM     66  H   UNL     1     149.508 169.044 185.688  0.00  0.00    +0.047 HD
ATOM     67  H   UNL     1     148.258 168.252 184.736  0.00  0.00    +0.047 HD
BRANCH  65  68
ATOM     68  C   UNL     1     147.604 170.077 185.659  0.00  0.00    -0.049 C 
ATOM     69  H   UNL     1     147.478 170.453 186.680  0.00  0.00    +0.024 HD
ATOM     70  H   UNL     1     146.610 169.897 185.235  0.00  0.00    +0.024 HD
ATOM     71  H   UNL     1     148.087 170.858 185.064  0.00  0.00    +0.024 HD
ENDBRANCH  65  68
ENDBRANCH  62  65
ENDBRANCH  57  62
ENDBRANCH  55  58
BRANCH  55  72
ATOM     72  C   UNL     1     145.023 167.275 190.447  0.00  0.00    -0.057 C 
ATOM     73  H   UNL     1     144.119 167.536 191.011  0.00  0.00    +0.024 HD
ATOM     74  H   UNL     1     145.846 167.223 191.167  0.00  0.00    +0.024 HD
ATOM     75  H   UNL     1     144.854 166.277 190.034  0.00  0.00    +0.024 HD
ENDBRANCH  55  72
ENDBRANCH  53  55
BRANCH  53  76
ATOM     76  O   UNL     1     144.421 169.741 191.078  0.00  0.00    -0.379 OA
BRANCH  76  77
ATOM     77  C   UNL     1     143.129 170.324 191.207  0.00  0.00    +0.037 C 
ATOM     78  H   UNL     1     143.187 171.412 191.115  0.00  0.00    +0.052 HD
ATOM     79  H   UNL     1     142.500 169.943 190.398  0.00  0.00    +0.052 HD
ATOM     80  H   UNL     1     142.666 170.051 192.158  0.00  0.00    +0.052 HD
ENDBRANCH  76  77
ENDBRANCH  53  76
ENDBRANCH  47  53
ENDBRANCH   1  47
BRANCH   1  81
ATOM     81  O   UNL     1     146.881 172.550 191.225  0.00  0.00    -0.461 OA
BRANCH  81  82
ATOM     82  C   UNL     1     148.026 173.070 191.750  0.00  0.00    +0.310 C 
ATOM     83  O   UNL     1     148.897 173.647 191.110  0.00  0.00    -0.251 OA
BRANCH  82  84
ATOM     84  C   UNL     1     148.091 172.859 193.249  0.00  0.00    +0.051 C 
ATOM     85  H   UNL     1     147.698 171.852 193.442  0.00  0.00    +0.041 HD
BRANCH  84  86
ATOM     86  C   UNL     1     149.533 172.910 193.743  0.00  0.00    -0.053 C 
ATOM     87  H   UNL     1     149.819 171.960 194.206  0.00  0.00    +0.024 HD
ATOM     88  H   UNL     1     149.658 173.704 194.486  0.00  0.00    +0.024 HD
ATOM     89  H   UNL     1     150.232 173.101 192.921  0.00  0.00    +0.024 HD
ENDBRANCH  84  86
BRANCH  84  90
ATOM     90  C   UNL     1     147.202 173.859 193.977  0.00  0.00    -0.053 C 
ATOM     91  H   UNL     1     147.313 174.862 193.551  0.00  0.00    +0.024 HD
ATOM     92  H   UNL     1     147.452 173.923 195.041  0.00  0.00    +0.024 HD
ATOM     93  H   UNL     1     146.148 173.571 193.897  0.00  0.00    +0.024 HD
ENDBRANCH  84  90
ENDBRANCH  82  84
ENDBRANCH  81  82
ENDBRANCH   1  81
TORSDOF 32
ENDMDL
