MODEL 1
REMARK VINA RESULT:      -5.7      0.000      0.000
REMARK  Name = 2c_conf2
REMARK  32 active torsions:
REMARK  status: ('A' for Active; 'I' for Inactive)
REMARK    1  A    between atoms: N_2  and  C_3
REMARK    2  A    between atoms: N_2  and  C_5
REMARK    3  A    between atoms: C_3  and  C_4
REMARK    4  A    between atoms: C_6  and  C_7
REMARK    5  A    between atoms: C_7  and  C_8
REMARK    6  A    between atoms: C_7  and  C_9
REMARK    7  A    between atoms: C_9  and  O_10
REMARK    8  A    between atoms: C_9  and  C_12
REMARK    9  A    between atoms: O_10  and  C_11
REMARK   10  A    between atoms: C_12  and  C_13
REMARK   11  A    between atoms: C_12  and  C_14
REMARK   12  A    between atoms: C_14  and  O_15
REMARK   13  A    between atoms: C_14  and  C_21
REMARK   14  A    between atoms: O_15  and  C_16
REMARK   15  A    between atoms: C_16  and  C_17
REMARK   16  A    between atoms: C_17  and  C_18
REMARK   17  A    between atoms: C_17  and  C_19
REMARK   18  A    between atoms: C_21  and  C_22
REMARK   19  A    between atoms: C_22  and  C_23
REMARK   20  A    between atoms: C_23  and  C_24
REMARK   21  A    between atoms: C_23  and  C_25
REMARK   22  A    between atoms: C_25  and  O_26
REMARK   23  A    between atoms: C_25  and  C_28
REMARK   24  A    between atoms: O_26  and  C_27
REMARK   25  A    between atoms: C_28  and  C_29
REMARK   26  A    between atoms: C_29  and  O_30
REMARK   27  A    between atoms: C_29  and  C_35
REMARK   28  A    between atoms: O_30  and  C_31
REMARK   29  A    between atoms: C_31  and  C_32
REMARK   30  A    between atoms: C_32  and  C_33
REMARK   31  A    between atoms: C_35  and  C_36
REMARK   32  A    between atoms: C_35  and  C_37
REMARK                            x       y       z     vdW  Elec       q    Type
REMARK                         _______ _______ _______ _____ _____    ______ ____
ROOT
ATOM      1  C   UNL     1     147.367 170.527 191.467  0.00  0.00    +0.108 C 
ATOM      2  H   UNL     1     146.809 171.019 192.277  0.00  0.00    +0.074 HD
ENDROOT
BRANCH   1   3
ATOM      3  C   UNL     1     148.102 169.325 192.083  0.00  0.00    -0.015 C 
ATOM      4  H   UNL     1     147.475 168.435 192.011  0.00  0.00    +0.030 HD
ATOM      5  H   UNL     1     148.333 169.484 193.140  0.00  0.00    +0.030 HD
BRANCH   3   6
ATOM      6  C   UNL     1     149.431 169.057 191.351  0.00  0.00    -0.045 C 
ATOM      7  H   UNL     1     149.344 168.177 190.699  0.00  0.00    +0.027 HD
ATOM      8  H   UNL     1     149.619 169.915 190.690  0.00  0.00    +0.027 HD
BRANCH   6   9
ATOM      9  C   UNL     1     150.628 168.880 192.322  0.00  0.00    -0.017 C 
ATOM     10  H   UNL     1     150.259 169.021 193.341  0.00  0.00    +0.032 HD
BRANCH   9  11
ATOM     11  C   UNL     1     151.653 169.989 192.037  0.00  0.00    -0.060 C 
ATOM     12  H   UNL     1     152.293 169.703 191.197  0.00  0.00    +0.023 HD
ATOM     13  H   UNL     1     152.301 170.175 192.900  0.00  0.00    +0.023 HD
ATOM     14  H   UNL     1     151.176 170.934 191.767  0.00  0.00    +0.023 HD
ENDBRANCH   9  11
BRANCH   9  15
ATOM     15  C   UNL     1     151.248 167.458 192.179  0.00  0.00    +0.064 C 
ATOM     16  H   UNL     1     150.490 166.793 191.760  0.00  0.00    +0.060 HD
BRANCH  15  17
ATOM     17  C   UNL     1     151.783 166.868 193.503  0.00  0.00    +0.011 C 
ATOM     18  H   UNL     1     151.892 167.685 194.225  0.00  0.00    +0.033 HD
ATOM     19  H   UNL     1     152.814 166.523 193.372  0.00  0.00    +0.033 HD
BRANCH  17  20
ATOM     20  C   UNL     1     150.981 165.711 194.129  0.00  0.00    +0.108 C 
ATOM     21  H   UNL     1     151.214 164.749 193.661  0.00  0.00    +0.074 HD
BRANCH  20  22
ATOM     22  C   UNL     1     151.139 165.571 195.669  0.00  0.00    -0.009 C 
ATOM     23  H   UNL     1     152.041 166.119 195.976  0.00  0.00    +0.033 HD
BRANCH  22  24
ATOM     24  C   UNL     1     151.270 164.131 196.160  0.00  0.00    -0.059 C 
ATOM     25  H   UNL     1     151.184 164.069 197.247  0.00  0.00    +0.023 HD
ATOM     26  H   UNL     1     150.509 163.495 195.703  0.00  0.00    +0.023 HD
ATOM     27  H   UNL     1     152.241 163.711 195.879  0.00  0.00    +0.023 HD
ENDBRANCH  22  24
BRANCH  22  28
ATOM     28  C   UNL     1     149.959 166.247 196.388  0.00  0.00    -0.059 C 
ATOM     29  H   UNL     1     149.113 165.559 196.480  0.00  0.00    +0.023 HD
ATOM     30  H   UNL     1     150.248 166.565 197.393  0.00  0.00    +0.023 HD
ATOM     31  H   UNL     1     149.616 167.134 195.850  0.00  0.00    +0.023 HD
ENDBRANCH  22  28
ENDBRANCH  20  22
BRANCH  20  32
ATOM     32  O   UNL     1     149.573 166.014 193.916  0.00  0.00    -0.461 OA
BRANCH  32  33
ATOM     33  C   UNL     1     148.852 165.105 193.204  0.00  0.00    +0.307 C 
ATOM     34  O   UNL     1     149.192 163.955 192.965  0.00  0.00    -0.251 OA
BRANCH  33  35
ATOM     35  C   UNL     1     147.559 165.722 192.729  0.00  0.00    +0.042 C 
ATOM     36  H   UNL     1     147.797 166.500 191.997  0.00  0.00    +0.037 HD
ATOM     37  H   UNL     1     146.970 164.958 192.208  0.00  0.00    +0.037 HD
BRANCH  35  38
ATOM     38  C   UNL     1     146.780 166.322 193.882  0.00  0.00    -0.055 C 
ATOM     39  H   UNL     1     146.708 167.409 193.772  0.00  0.00    +0.023 HD
ATOM     40  H   UNL     1     145.761 165.923 193.929  0.00  0.00    +0.023 HD
ATOM     41  H   UNL     1     147.267 166.102 194.843  0.00  0.00    +0.023 HD
ENDBRANCH  35  38
ENDBRANCH  33  35
ENDBRANCH  32  33
ENDBRANCH  20  32
ENDBRANCH  17  20
ENDBRANCH  15  17
BRANCH  15  42
ATOM     42  O   UNL     1     152.321 167.564 191.222  0.00  0.00    -0.379 OA
BRANCH  42  43
ATOM     43  C   UNL     1     152.519 166.411 190.424  0.00  0.00    +0.037 C 
ATOM     44  H   UNL     1     153.136 166.693 189.564  0.00  0.00    +0.052 HD
ATOM     45  H   UNL     1     153.055 165.632 190.975  0.00  0.00    +0.052 HD
ATOM     46  H   UNL     1     151.563 166.028 190.051  0.00  0.00    +0.052 HD
ENDBRANCH  42  43
ENDBRANCH  15  42
ENDBRANCH   9  15
ENDBRANCH   6   9
ENDBRANCH   3   6
ENDBRANCH   1   3
BRANCH   1  47
ATOM     47  C   UNL     1     146.354 170.223 190.329  0.00  0.00    +0.020 C 
ATOM     48  H   UNL     1     145.981 169.215 190.563  0.00  0.00    +0.036 HD
BRANCH  47  49
ATOM     49  C   UNL     1     147.038 170.030 188.972  0.00  0.00    -0.057 C 
ATOM     50  H   UNL     1     146.345 170.125 188.134  0.00  0.00    +0.023 HD
ATOM     51  H   UNL     1     147.516 169.045 188.902  0.00  0.00    +0.023 HD
ATOM     52  H   UNL     1     147.825 170.780 188.830  0.00  0.00    +0.023 HD
ENDBRANCH  47  49
BRANCH  47  53
ATOM     53  C   UNL     1     145.060 171.093 190.293  0.00  0.00    +0.070 C 
ATOM     54  H   UNL     1     145.072 171.662 189.356  0.00  0.00    +0.061 HD
BRANCH  53  55
ATOM     55  C   UNL     1     143.686 170.363 190.329  0.00  0.00    +0.002 C 
ATOM     56  H   UNL     1     143.197 170.497 189.361  0.00  0.00    +0.037 HD
BRANCH  55  58
ATOM     57  C   UNL     1     142.738 168.179 191.134  0.00  0.00    -0.005 C 
ATOM     58  C   UNL     1     143.773 168.890 190.666  0.00  0.00    -0.065 C 
ATOM     59  H   UNL     1     141.780 168.676 191.290  0.00  0.00    +0.078 HD
ATOM     60  H   UNL     1     144.745 168.433 190.499  0.00  0.00    +0.059 HD
BRANCH  57  62
ATOM     61  C   UNL     1     142.280 165.906 190.515  0.00  0.00    +0.206 C 
ATOM     62  N   UNL     1     142.739 166.828 191.454  0.00  0.00    -0.281 N 
ATOM     63  O   UNL     1     141.836 166.156 189.401  0.00  0.00    -0.279 OA
ATOM     64  H   UNL     1     142.351 164.864 190.868  0.00  0.00    +0.126 HD
BRANCH  62  65
ATOM     65  C   UNL     1     143.233 166.324 192.733  0.00  0.00    +0.016 C 
ATOM     66  H   UNL     1     142.903 165.291 192.878  0.00  0.00    +0.047 HD
ATOM     67  H   UNL     1     144.330 166.291 192.697  0.00  0.00    +0.047 HD
BRANCH  65  68
ATOM     68  C   UNL     1     142.816 167.204 193.902  0.00  0.00    -0.049 C 
ATOM     69  H   UNL     1     141.994 166.737 194.453  0.00  0.00    +0.024 HD
ATOM     70  H   UNL     1     143.649 167.366 194.586  0.00  0.00    +0.024 HD
ATOM     71  H   UNL     1     142.467 168.185 193.560  0.00  0.00    +0.024 HD
ENDBRANCH  65  68
ENDBRANCH  62  65
ENDBRANCH  57  62
ENDBRANCH  55  58
BRANCH  55  72
ATOM     72  C   UNL     1     142.765 171.031 191.363  0.00  0.00    -0.057 C 
ATOM     73  H   UNL     1     142.999 172.093 191.499  0.00  0.00    +0.024 HD
ATOM     74  H   UNL     1     141.717 170.958 191.052  0.00  0.00    +0.024 HD
ATOM     75  H   UNL     1     142.854 170.544 192.341  0.00  0.00    +0.024 HD
ENDBRANCH  55  72
ENDBRANCH  53  55
BRANCH  53  76
ATOM     76  O   UNL     1     145.070 172.043 191.382  0.00  0.00    -0.379 OA
BRANCH  76  77
ATOM     77  C   UNL     1     145.019 173.401 190.961  0.00  0.00    +0.037 C 
ATOM     78  H   UNL     1     145.611 173.542 190.051  0.00  0.00    +0.052 HD
ATOM     79  H   UNL     1     143.979 173.647 190.738  0.00  0.00    +0.052 HD
ATOM     80  H   UNL     1     145.374 174.075 191.748  0.00  0.00    +0.052 HD
ENDBRANCH  76  77
ENDBRANCH  53  76
ENDBRANCH  47  53
ENDBRANCH   1  47
BRANCH   1  81
ATOM     81  O   UNL     1     148.400 171.421 190.994  0.00  0.00    -0.461 OA
BRANCH  81  82
ATOM     82  C   UNL     1     148.477 172.651 191.567  0.00  0.00    +0.310 C 
ATOM     83  O   UNL     1     148.590 173.700 190.948  0.00  0.00    -0.251 OA
BRANCH  82  84
ATOM     84  C   UNL     1     148.393 172.576 193.082  0.00  0.00    +0.051 C 
ATOM     85  H   UNL     1     148.029 171.567 193.322  0.00  0.00    +0.041 HD
BRANCH  84  86
ATOM     86  C   UNL     1     147.405 173.571 193.691  0.00  0.00    -0.053 C 
ATOM     87  H   UNL     1     147.645 173.798 194.737  0.00  0.00    +0.024 HD
ATOM     88  H   UNL     1     146.384 173.173 193.661  0.00  0.00    +0.024 HD
ATOM     89  H   UNL     1     147.414 174.515 193.136  0.00  0.00    +0.024 HD
ENDBRANCH  84  86
BRANCH  84  90
ATOM     90  C   UNL     1     149.787 172.762 193.677  0.00  0.00    -0.053 C 
ATOM     91  H   UNL     1     150.454 171.935 193.402  0.00  0.00    +0.024 HD
ATOM     92  H   UNL     1     149.741 172.796 194.772  0.00  0.00    +0.024 HD
ATOM     93  H   UNL     1     150.234 173.704 193.333  0.00  0.00    +0.024 HD
ENDBRANCH  84  90
ENDBRANCH  82  84
ENDBRANCH  81  82
ENDBRANCH   1  81
TORSDOF 32
ENDMDL
MODEL 2
REMARK VINA RESULT:      -5.4      0.860      2.102
REMARK  Name = 2c_conf2
REMARK  32 active torsions:
REMARK  status: ('A' for Active; 'I' for Inactive)
REMARK    1  A    between atoms: N_2  and  C_3
REMARK    2  A    between atoms: N_2  and  C_5
REMARK    3  A    between atoms: C_3  and  C_4
REMARK    4  A    between atoms: C_6  and  C_7
REMARK    5  A    between atoms: C_7  and  C_8
REMARK    6  A    between atoms: C_7  and  C_9
REMARK    7  A    between atoms: C_9  and  O_10
REMARK    8  A    between atoms: C_9  and  C_12
REMARK    9  A    between atoms: O_10  and  C_11
REMARK   10  A    between atoms: C_12  and  C_13
REMARK   11  A    between atoms: C_12  and  C_14
REMARK   12  A    between atoms: C_14  and  O_15
REMARK   13  A    between atoms: C_14  and  C_21
REMARK   14  A    between atoms: O_15  and  C_16
REMARK   15  A    between atoms: C_16  and  C_17
REMARK   16  A    between atoms: C_17  and  C_18
REMARK   17  A    between atoms: C_17  and  C_19
REMARK   18  A    between atoms: C_21  and  C_22
REMARK   19  A    between atoms: C_22  and  C_23
REMARK   20  A    between atoms: C_23  and  C_24
REMARK   21  A    between atoms: C_23  and  C_25
REMARK   22  A    between atoms: C_25  and  O_26
REMARK   23  A    between atoms: C_25  and  C_28
REMARK   24  A    between atoms: O_26  and  C_27
REMARK   25  A    between atoms: C_28  and  C_29
REMARK   26  A    between atoms: C_29  and  O_30
REMARK   27  A    between atoms: C_29  and  C_35
REMARK   28  A    between atoms: O_30  and  C_31
REMARK   29  A    between atoms: C_31  and  C_32
REMARK   30  A    between atoms: C_32  and  C_33
REMARK   31  A    between atoms: C_35  and  C_36
REMARK   32  A    between atoms: C_35  and  C_37
REMARK                            x       y       z     vdW  Elec       q    Type
REMARK                         _______ _______ _______ _____ _____    ______ ____
ROOT
ATOM      1  C   UNL     1     147.184 170.567 191.321  0.00  0.00    +0.108 C 
ATOM      2  H   UNL     1     146.648 171.037 192.159  0.00  0.00    +0.074 HD
ENDROOT
BRANCH   1   3
ATOM      3  C   UNL     1     147.868 169.303 191.867  0.00  0.00    -0.015 C 
ATOM      4  H   UNL     1     147.218 168.439 191.719  0.00  0.00    +0.030 HD
ATOM      5  H   UNL     1     148.077 169.381 192.938  0.00  0.00    +0.030 HD
BRANCH   3   6
ATOM      6  C   UNL     1     149.206 169.046 191.149  0.00  0.00    -0.045 C 
ATOM      7  H   UNL     1     149.088 168.278 190.373  0.00  0.00    +0.027 HD
ATOM      8  H   UNL     1     149.480 169.973 190.627  0.00  0.00    +0.027 HD
BRANCH   6   9
ATOM      9  C   UNL     1     150.345 168.643 192.122  0.00  0.00    -0.017 C 
ATOM     10  H   UNL     1     149.926 168.603 193.132  0.00  0.00    +0.032 HD
BRANCH   9  11
ATOM     11  C   UNL     1     151.415 169.746 192.102  0.00  0.00    -0.060 C 
ATOM     12  H   UNL     1     151.974 169.744 193.043  0.00  0.00    +0.023 HD
ATOM     13  H   UNL     1     150.972 170.740 191.982  0.00  0.00    +0.023 HD
ATOM     14  H   UNL     1     152.141 169.603 191.299  0.00  0.00    +0.023 HD
ENDBRANCH   9  11
BRANCH   9  15
ATOM     15  C   UNL     1     150.930 167.251 191.741  0.00  0.00    +0.064 C 
ATOM     16  H   UNL     1     150.479 166.935 190.798  0.00  0.00    +0.060 HD
BRANCH  15  17
ATOM     17  C   UNL     1     150.711 166.159 192.813  0.00  0.00    +0.011 C 
ATOM     18  H   UNL     1     151.279 166.437 193.707  0.00  0.00    +0.033 HD
ATOM     19  H   UNL     1     151.191 165.226 192.502  0.00  0.00    +0.033 HD
BRANCH  17  20
ATOM     20  C   UNL     1     149.254 165.831 193.189  0.00  0.00    +0.108 C 
ATOM     21  H   UNL     1     148.640 166.733 193.281  0.00  0.00    +0.074 HD
BRANCH  20  22
ATOM     22  C   UNL     1     148.544 164.836 192.227  0.00  0.00    -0.009 C 
ATOM     23  H   UNL     1     147.818 164.251 192.809  0.00  0.00    +0.033 HD
BRANCH  22  24
ATOM     24  C   UNL     1     149.485 163.860 191.526  0.00  0.00    -0.059 C 
ATOM     25  H   UNL     1     150.231 163.457 192.214  0.00  0.00    +0.023 HD
ATOM     26  H   UNL     1     148.926 163.034 191.081  0.00  0.00    +0.023 HD
ATOM     27  H   UNL     1     150.020 164.355 190.708  0.00  0.00    +0.023 HD
ENDBRANCH  22  24
BRANCH  22  28
ATOM     28  C   UNL     1     147.732 165.605 191.172  0.00  0.00    -0.059 C 
ATOM     29  H   UNL     1     148.130 166.615 191.033  0.00  0.00    +0.023 HD
ATOM     30  H   UNL     1     147.765 165.092 190.208  0.00  0.00    +0.023 HD
ATOM     31  H   UNL     1     146.681 165.693 191.459  0.00  0.00    +0.023 HD
ENDBRANCH  22  28
ENDBRANCH  20  22
BRANCH  20  32
ATOM     32  O   UNL     1     149.296 165.152 194.476  0.00  0.00    -0.461 OA
BRANCH  32  33
ATOM     33  C   UNL     1     149.289 165.941 195.585  0.00  0.00    +0.307 C 
ATOM     34  O   UNL     1     148.366 166.659 195.943  0.00  0.00    -0.251 OA
BRANCH  33  35
ATOM     35  C   UNL     1     150.601 165.820 196.321  0.00  0.00    +0.042 C 
ATOM     36  H   UNL     1     151.335 166.461 195.824  0.00  0.00    +0.037 HD
ATOM     37  H   UNL     1     150.476 166.201 197.340  0.00  0.00    +0.037 HD
BRANCH  35  38
ATOM     38  C   UNL     1     151.095 164.387 196.329  0.00  0.00    -0.055 C 
ATOM     39  H   UNL     1     150.255 163.690 196.232  0.00  0.00    +0.023 HD
ATOM     40  H   UNL     1     151.785 164.195 195.501  0.00  0.00    +0.023 HD
ATOM     41  H   UNL     1     151.627 164.159 197.264  0.00  0.00    +0.023 HD
ENDBRANCH  35  38
ENDBRANCH  33  35
ENDBRANCH  32  33
ENDBRANCH  20  32
ENDBRANCH  17  20
ENDBRANCH  15  17
BRANCH  15  42
ATOM     42  O   UNL     1     152.341 167.439 191.515  0.00  0.00    -0.379 OA
BRANCH  42  43
ATOM     43  C   UNL     1     152.881 166.662 190.461  0.00  0.00    +0.037 C 
ATOM     44  H   UNL     1     152.436 165.662 190.511  0.00  0.00    +0.052 HD
ATOM     45  H   UNL     1     152.631 167.088 189.484  0.00  0.00    +0.052 HD
ATOM     46  H   UNL     1     153.966 166.562 190.568  0.00  0.00    +0.052 HD
ENDBRANCH  42  43
ENDBRANCH  15  42
ENDBRANCH   9  15
ENDBRANCH   6   9
ENDBRANCH   3   6
ENDBRANCH   1   3
BRANCH   1  47
ATOM     47  C   UNL     1     146.157 170.369 190.171  0.00  0.00    +0.020 C 
ATOM     48  H   UNL     1     145.831 169.323 190.279  0.00  0.00    +0.036 HD
BRANCH  47  49
ATOM     49  C   UNL     1     146.815 170.384 188.789  0.00  0.00    -0.057 C 
ATOM     50  H   UNL     1     146.087 170.357 187.976  0.00  0.00    +0.023 HD
ATOM     51  H   UNL     1     147.494 169.531 188.659  0.00  0.00    +0.023 HD
ATOM     52  H   UNL     1     147.414 171.293 188.659  0.00  0.00    +0.023 HD
ENDBRANCH  47  49
BRANCH  47  53
ATOM     53  C   UNL     1     144.828 171.178 190.274  0.00  0.00    +0.070 C 
ATOM     54  H   UNL     1     144.718 171.749 189.345  0.00  0.00    +0.061 HD
BRANCH  53  55
ATOM     55  C   UNL     1     143.499 170.384 190.443  0.00  0.00    +0.002 C 
ATOM     56  H   UNL     1     142.985 170.358 189.479  0.00  0.00    +0.037 HD
BRANCH  55  58
ATOM     57  C   UNL     1     142.736 168.329 191.673  0.00  0.00    -0.005 C 
ATOM     58  C   UNL     1     143.678 168.978 190.974  0.00  0.00    -0.065 C 
ATOM     59  H   UNL     1     141.790 168.830 191.881  0.00  0.00    +0.078 HD
ATOM     60  H   UNL     1     144.635 168.515 190.747  0.00  0.00    +0.059 HD
BRANCH  57  62
ATOM     61  C   UNL     1     142.391 165.970 191.399  0.00  0.00    +0.206 C 
ATOM     62  N   UNL     1     142.824 167.040 192.180  0.00  0.00    -0.281 N 
ATOM     63  O   UNL     1     141.902 166.034 190.277  0.00  0.00    -0.279 OA
ATOM     64  H   UNL     1     142.531 164.995 191.893  0.00  0.00    +0.126 HD
BRANCH  62  65
ATOM     65  C   UNL     1     143.382 166.751 193.499  0.00  0.00    +0.016 C 
ATOM     66  H   UNL     1     143.328 167.643 194.129  0.00  0.00    +0.047 HD
ATOM     67  H   UNL     1     142.754 165.995 193.988  0.00  0.00    +0.047 HD
BRANCH  65  68
ATOM     68  C   UNL     1     144.805 166.218 193.421  0.00  0.00    -0.049 C 
ATOM     69  H   UNL     1     145.522 167.030 193.580  0.00  0.00    +0.024 HD
ATOM     70  H   UNL     1     144.975 165.447 194.172  0.00  0.00    +0.024 HD
ATOM     71  H   UNL     1     145.015 165.781 192.438  0.00  0.00    +0.024 HD
ENDBRANCH  65  68
ENDBRANCH  62  65
ENDBRANCH  57  62
ENDBRANCH  55  58
BRANCH  55  72
ATOM     72  C   UNL     1     142.559 171.135 191.400  0.00  0.00    -0.057 C 
ATOM     73  H   UNL     1     143.092 171.876 192.006  0.00  0.00    +0.024 HD
ATOM     74  H   UNL     1     141.777 171.662 190.841  0.00  0.00    +0.024 HD
ATOM     75  H   UNL     1     142.062 170.441 192.087  0.00  0.00    +0.024 HD
ENDBRANCH  55  72
ENDBRANCH  53  55
BRANCH  53  76
ATOM     76  O   UNL     1     144.904 172.124 191.363  0.00  0.00    -0.379 OA
BRANCH  76  77
ATOM     77  C   UNL     1     144.885 173.484 190.947  0.00  0.00    +0.037 C 
ATOM     78  H   UNL     1     143.915 173.735 190.505  0.00  0.00    +0.052 HD
ATOM     79  H   UNL     1     145.034 174.110 191.829  0.00  0.00    +0.052 HD
ATOM     80  H   UNL     1     145.688 173.694 190.233  0.00  0.00    +0.052 HD
ENDBRANCH  76  77
ENDBRANCH  53  76
ENDBRANCH  47  53
ENDBRANCH   1  47
BRANCH   1  81
ATOM     81  O   UNL     1     148.252 171.441 190.894  0.00  0.00    -0.461 OA
BRANCH  81  82
ATOM     82  C   UNL     1     148.346 172.658 191.490  0.00  0.00    +0.310 C 
ATOM     83  O   UNL     1     148.456 173.719 190.892  0.00  0.00    -0.251 OA
BRANCH  82  84
ATOM     84  C   UNL     1     148.285 172.552 193.005  0.00  0.00    +0.051 C 
ATOM     85  H   UNL     1     147.918 171.540 193.230  0.00  0.00    +0.041 HD
BRANCH  84  86
ATOM     86  C   UNL     1     147.315 173.541 193.650  0.00  0.00    -0.053 C 
ATOM     87  H   UNL     1     146.769 173.090 194.490  0.00  0.00    +0.024 HD
ATOM     88  H   UNL     1     146.576 173.892 192.921  0.00  0.00    +0.024 HD
ATOM     89  H   UNL     1     147.850 174.416 194.034  0.00  0.00    +0.024 HD
ENDBRANCH  84  86
BRANCH  84  90
ATOM     90  C   UNL     1     149.690 172.714 193.581  0.00  0.00    -0.053 C 
ATOM     91  H   UNL     1     150.366 171.928 193.219  0.00  0.00    +0.024 HD
ATOM     92  H   UNL     1     149.671 172.652 194.676  0.00  0.00    +0.024 HD
ATOM     93  H   UNL     1     150.110 173.692 193.311  0.00  0.00    +0.024 HD
ENDBRANCH  84  90
ENDBRANCH  82  84
ENDBRANCH  81  82
ENDBRANCH   1  81
TORSDOF 32
ENDMDL
MODEL 3
REMARK VINA RESULT:      -5.3      2.383      3.772
REMARK  Name = 2c_conf2
REMARK  32 active torsions:
REMARK  status: ('A' for Active; 'I' for Inactive)
REMARK    1  A    between atoms: N_2  and  C_3
REMARK    2  A    between atoms: N_2  and  C_5
REMARK    3  A    between atoms: C_3  and  C_4
REMARK    4  A    between atoms: C_6  and  C_7
REMARK    5  A    between atoms: C_7  and  C_8
REMARK    6  A    between atoms: C_7  and  C_9
REMARK    7  A    between atoms: C_9  and  O_10
REMARK    8  A    between atoms: C_9  and  C_12
REMARK    9  A    between atoms: O_10  and  C_11
REMARK   10  A    between atoms: C_12  and  C_13
REMARK   11  A    between atoms: C_12  and  C_14
REMARK   12  A    between atoms: C_14  and  O_15
REMARK   13  A    between atoms: C_14  and  C_21
REMARK   14  A    between atoms: O_15  and  C_16
REMARK   15  A    between atoms: C_16  and  C_17
REMARK   16  A    between atoms: C_17  and  C_18
REMARK   17  A    between atoms: C_17  and  C_19
REMARK   18  A    between atoms: C_21  and  C_22
REMARK   19  A    between atoms: C_22  and  C_23
REMARK   20  A    between atoms: C_23  and  C_24
REMARK   21  A    between atoms: C_23  and  C_25
REMARK   22  A    between atoms: C_25  and  O_26
REMARK   23  A    between atoms: C_25  and  C_28
REMARK   24  A    between atoms: O_26  and  C_27
REMARK   25  A    between atoms: C_28  and  C_29
REMARK   26  A    between atoms: C_29  and  O_30
REMARK   27  A    between atoms: C_29  and  C_35
REMARK   28  A    between atoms: O_30  and  C_31
REMARK   29  A    between atoms: C_31  and  C_32
REMARK   30  A    between atoms: C_32  and  C_33
REMARK   31  A    between atoms: C_35  and  C_36
REMARK   32  A    between atoms: C_35  and  C_37
REMARK                            x       y       z     vdW  Elec       q    Type
REMARK                         _______ _______ _______ _____ _____    ______ ____
ROOT
ATOM      1  C   UNL     1     147.211 170.584 191.275  0.00  0.00    +0.108 C 
ATOM      2  H   UNL     1     146.616 171.004 192.099  0.00  0.00    +0.074 HD
ENDROOT
BRANCH   1   3
ATOM      3  C   UNL     1     147.941 169.345 191.822  0.00  0.00    -0.015 C 
ATOM      4  H   UNL     1     147.360 168.448 191.599  0.00  0.00    +0.030 HD
ATOM      5  H   UNL     1     148.072 169.394 192.907  0.00  0.00    +0.030 HD
BRANCH   3   6
ATOM      6  C   UNL     1     149.338 169.204 191.189  0.00  0.00    -0.045 C 
ATOM      7  H   UNL     1     149.355 168.374 190.469  0.00  0.00    +0.027 HD
ATOM      8  H   UNL     1     149.529 170.118 190.610  0.00  0.00    +0.027 HD
BRANCH   6   9
ATOM      9  C   UNL     1     150.460 169.013 192.242  0.00  0.00    -0.017 C 
ATOM     10  H   UNL     1     150.040 169.238 193.226  0.00  0.00    +0.032 HD
BRANCH   9  11
ATOM     11  C   UNL     1     151.570 170.037 191.961  0.00  0.00    -0.060 C 
ATOM     12  H   UNL     1     151.156 170.908 191.444  0.00  0.00    +0.023 HD
ATOM     13  H   UNL     1     152.359 169.619 191.327  0.00  0.00    +0.023 HD
ATOM     14  H   UNL     1     152.037 170.404 192.878  0.00  0.00    +0.023 HD
ENDBRANCH   9  11
BRANCH   9  15
ATOM     15  C   UNL     1     150.993 167.549 192.221  0.00  0.00    +0.064 C 
ATOM     16  H   UNL     1     150.339 166.954 191.580  0.00  0.00    +0.060 HD
BRANCH  15  17
ATOM     17  C   UNL     1     151.092 166.893 193.617  0.00  0.00    +0.011 C 
ATOM     18  H   UNL     1     151.167 167.689 194.366  0.00  0.00    +0.033 HD
ATOM     19  H   UNL     1     152.049 166.372 193.721  0.00  0.00    +0.033 HD
BRANCH  17  20
ATOM     20  C   UNL     1     149.977 165.903 194.004  0.00  0.00    +0.108 C 
ATOM     21  H   UNL     1     149.910 165.065 193.303  0.00  0.00    +0.074 HD
BRANCH  20  22
ATOM     22  C   UNL     1     150.084 165.340 195.450  0.00  0.00    -0.009 C 
ATOM     23  H   UNL     1     149.342 164.538 195.565  0.00  0.00    +0.033 HD
BRANCH  22  24
ATOM     24  C   UNL     1     149.838 166.373 196.547  0.00  0.00    -0.059 C 
ATOM     25  H   UNL     1     149.396 165.916 197.435  0.00  0.00    +0.023 HD
ATOM     26  H   UNL     1     150.768 166.871 196.826  0.00  0.00    +0.023 HD
ATOM     27  H   UNL     1     149.154 167.154 196.199  0.00  0.00    +0.023 HD
ENDBRANCH  22  24
BRANCH  22  28
ATOM     28  C   UNL     1     151.460 164.689 195.666  0.00  0.00    -0.059 C 
ATOM     29  H   UNL     1     151.453 163.644 195.343  0.00  0.00    +0.023 HD
ATOM     30  H   UNL     1     152.231 165.214 195.097  0.00  0.00    +0.023 HD
ATOM     31  H   UNL     1     151.757 164.715 196.718  0.00  0.00    +0.023 HD
ENDBRANCH  22  28
ENDBRANCH  20  22
BRANCH  20  32
ATOM     32  O   UNL     1     148.726 166.647 193.977  0.00  0.00    -0.461 OA
BRANCH  32  33
ATOM     33  C   UNL     1     147.617 165.966 193.580  0.00  0.00    +0.307 C 
ATOM     34  O   UNL     1     146.635 165.738 194.271  0.00  0.00    -0.251 OA
BRANCH  33  35
ATOM     35  C   UNL     1     147.769 165.510 192.149  0.00  0.00    +0.042 C 
ATOM     36  H   UNL     1     148.685 165.950 191.742  0.00  0.00    +0.037 HD
ATOM     37  H   UNL     1     147.900 164.422 192.133  0.00  0.00    +0.037 HD
BRANCH  35  38
ATOM     38  C   UNL     1     146.580 165.932 191.309  0.00  0.00    -0.055 C 
ATOM     39  H   UNL     1     146.863 166.007 190.254  0.00  0.00    +0.023 HD
ATOM     40  H   UNL     1     145.760 165.210 191.384  0.00  0.00    +0.023 HD
ATOM     41  H   UNL     1     146.194 166.907 191.635  0.00  0.00    +0.023 HD
ENDBRANCH  35  38
ENDBRANCH  33  35
ENDBRANCH  32  33
ENDBRANCH  20  32
ENDBRANCH  17  20
ENDBRANCH  15  17
BRANCH  15  42
ATOM     42  O   UNL     1     152.297 167.589 191.606  0.00  0.00    -0.379 OA
BRANCH  42  43
ATOM     43  C   UNL     1     152.569 166.513 190.726  0.00  0.00    +0.037 C 
ATOM     44  H   UNL     1     153.004 166.924 189.809  0.00  0.00    +0.052 HD
ATOM     45  H   UNL     1     153.300 165.821 191.157  0.00  0.00    +0.052 HD
ATOM     46  H   UNL     1     151.648 165.982 190.463  0.00  0.00    +0.052 HD
ENDBRANCH  42  43
ENDBRANCH  15  42
ENDBRANCH   9  15
ENDBRANCH   6   9
ENDBRANCH   3   6
ENDBRANCH   1   3
BRANCH   1  47
ATOM     47  C   UNL     1     146.245 170.359 190.079  0.00  0.00    +0.020 C 
ATOM     48  H   UNL     1     145.745 169.407 190.312  0.00  0.00    +0.036 HD
BRANCH  47  49
ATOM     49  C   UNL     1     146.988 170.047 188.776  0.00  0.00    -0.057 C 
ATOM     50  H   UNL     1     147.916 169.496 188.942  0.00  0.00    +0.023 HD
ATOM     51  H   UNL     1     147.236 170.964 188.227  0.00  0.00    +0.023 HD
ATOM     52  H   UNL     1     146.362 169.436 188.115  0.00  0.00    +0.023 HD
ENDBRANCH  47  49
BRANCH  47  53
ATOM     53  C   UNL     1     145.064 171.366 189.934  0.00  0.00    +0.070 C 
ATOM     54  H   UNL     1     144.348 170.935 189.225  0.00  0.00    +0.061 HD
BRANCH  53  55
ATOM     55  C   UNL     1     144.240 171.716 191.208  0.00  0.00    +0.002 C 
ATOM     56  H   UNL     1     144.602 171.100 192.035  0.00  0.00    +0.037 HD
BRANCH  55  58
ATOM     57  C   UNL     1     143.217 173.854 192.045  0.00  0.00    -0.005 C 
ATOM     58  C   UNL     1     144.284 173.179 191.595  0.00  0.00    -0.065 C 
ATOM     59  H   UNL     1     142.263 173.336 192.138  0.00  0.00    +0.078 HD
ATOM     60  H   UNL     1     145.253 173.659 191.485  0.00  0.00    +0.059 HD
BRANCH  57  62
ATOM     61  C   UNL     1     142.920 176.165 191.469  0.00  0.00    +0.206 C 
ATOM     62  N   UNL     1     143.184 175.188 192.427  0.00  0.00    -0.281 N 
ATOM     63  O   UNL     1     142.728 175.982 190.273  0.00  0.00    -0.279 OA
ATOM     64  H   UNL     1     142.894 177.182 191.891  0.00  0.00    +0.126 HD
BRANCH  62  65
ATOM     65  C   UNL     1     143.385 175.614 193.810  0.00  0.00    +0.016 C 
ATOM     66  H   UNL     1     144.204 175.044 194.259  0.00  0.00    +0.047 HD
ATOM     67  H   UNL     1     143.709 176.663 193.811  0.00  0.00    +0.047 HD
BRANCH  65  68
ATOM     68  C   UNL     1     142.116 175.501 194.642  0.00  0.00    -0.049 C 
ATOM     69  H   UNL     1     141.631 174.536 194.463  0.00  0.00    +0.024 HD
ATOM     70  H   UNL     1     142.336 175.591 195.705  0.00  0.00    +0.024 HD
ATOM     71  H   UNL     1     141.396 176.285 194.381  0.00  0.00    +0.024 HD
ENDBRANCH  65  68
ENDBRANCH  62  65
ENDBRANCH  57  62
ENDBRANCH  55  58
BRANCH  55  72
ATOM     72  C   UNL     1     142.768 171.324 191.003  0.00  0.00    -0.057 C 
ATOM     73  H   UNL     1     142.092 171.915 191.630  0.00  0.00    +0.024 HD
ATOM     74  H   UNL     1     142.470 171.472 189.959  0.00  0.00    +0.024 HD
ATOM     75  H   UNL     1     142.606 170.267 191.245  0.00  0.00    +0.024 HD
ENDBRANCH  55  72
ENDBRANCH  53  55
BRANCH  53  76
ATOM     76  O   UNL     1     145.538 172.611 189.375  0.00  0.00    -0.379 OA
BRANCH  76  77
ATOM     77  C   UNL     1     144.961 172.933 188.115  0.00  0.00    +0.037 C 
ATOM     78  H   UNL     1     145.390 173.862 187.723  0.00  0.00    +0.052 HD
ATOM     79  H   UNL     1     145.197 172.125 187.419  0.00  0.00    +0.052 HD
ATOM     80  H   UNL     1     143.872 173.022 188.186  0.00  0.00    +0.052 HD
ENDBRANCH  76  77
ENDBRANCH  53  76
ENDBRANCH  47  53
ENDBRANCH   1  47
BRANCH   1  81
ATOM     81  O   UNL     1     148.247 171.524 190.913  0.00  0.00    -0.461 OA
BRANCH  81  82
ATOM     82  C   UNL     1     148.223 172.746 191.507  0.00  0.00    +0.310 C 
ATOM     83  O   UNL     1     148.230 173.812 190.907  0.00  0.00    -0.251 OA
BRANCH  82  84
ATOM     84  C   UNL     1     148.172 172.638 193.022  0.00  0.00    +0.051 C 
ATOM     85  H   UNL     1     147.811 171.624 193.248  0.00  0.00    +0.041 HD
BRANCH  84  86
ATOM     86  C   UNL     1     147.201 173.621 193.675  0.00  0.00    -0.053 C 
ATOM     87  H   UNL     1     147.232 173.560 194.770  0.00  0.00    +0.024 HD
ATOM     88  H   UNL     1     146.172 173.419 193.357  0.00  0.00    +0.024 HD
ATOM     89  H   UNL     1     147.444 174.651 193.393  0.00  0.00    +0.024 HD
ENDBRANCH  84  86
BRANCH  84  90
ATOM     90  C   UNL     1     149.581 172.806 193.589  0.00  0.00    -0.053 C 
ATOM     91  H   UNL     1     149.884 173.861 193.605  0.00  0.00    +0.024 HD
ATOM     92  H   UNL     1     150.312 172.264 192.978  0.00  0.00    +0.024 HD
ATOM     93  H   UNL     1     149.639 172.406 194.609  0.00  0.00    +0.024 HD
ENDBRANCH  84  90
ENDBRANCH  82  84
ENDBRANCH  81  82
ENDBRANCH   1  81
TORSDOF 32
ENDMDL
MODEL 4
REMARK VINA RESULT:      -5.2      1.285      2.026
REMARK  Name = 2c_conf2
REMARK  32 active torsions:
REMARK  status: ('A' for Active; 'I' for Inactive)
REMARK    1  A    between atoms: N_2  and  C_3
REMARK    2  A    between atoms: N_2  and  C_5
REMARK    3  A    between atoms: C_3  and  C_4
REMARK    4  A    between atoms: C_6  and  C_7
REMARK    5  A    between atoms: C_7  and  C_8
REMARK    6  A    between atoms: C_7  and  C_9
REMARK    7  A    between atoms: C_9  and  O_10
REMARK    8  A    between atoms: C_9  and  C_12
REMARK    9  A    between atoms: O_10  and  C_11
REMARK   10  A    between atoms: C_12  and  C_13
REMARK   11  A    between atoms: C_12  and  C_14
REMARK   12  A    between atoms: C_14  and  O_15
REMARK   13  A    between atoms: C_14  and  C_21
REMARK   14  A    between atoms: O_15  and  C_16
REMARK   15  A    between atoms: C_16  and  C_17
REMARK   16  A    between atoms: C_17  and  C_18
REMARK   17  A    between atoms: C_17  and  C_19
REMARK   18  A    between atoms: C_21  and  C_22
REMARK   19  A    between atoms: C_22  and  C_23
REMARK   20  A    between atoms: C_23  and  C_24
REMARK   21  A    between atoms: C_23  and  C_25
REMARK   22  A    between atoms: C_25  and  O_26
REMARK   23  A    between atoms: C_25  and  C_28
REMARK   24  A    between atoms: O_26  and  C_27
REMARK   25  A    between atoms: C_28  and  C_29
REMARK   26  A    between atoms: C_29  and  O_30
REMARK   27  A    between atoms: C_29  and  C_35
REMARK   28  A    between atoms: O_30  and  C_31
REMARK   29  A    between atoms: C_31  and  C_32
REMARK   30  A    between atoms: C_32  and  C_33
REMARK   31  A    between atoms: C_35  and  C_36
REMARK   32  A    between atoms: C_35  and  C_37
REMARK                            x       y       z     vdW  Elec       q    Type
REMARK                         _______ _______ _______ _____ _____    ______ ____
ROOT
ATOM      1  C   UNL     1     147.430 170.834 191.155  0.00  0.00    +0.108 C 
ATOM      2  H   UNL     1     146.927 170.041 191.727  0.00  0.00    +0.074 HD
ENDROOT
BRANCH   1   3
ATOM      3  C   UNL     1     148.944 170.587 191.266  0.00  0.00    -0.015 C 
ATOM      4  H   UNL     1     149.411 171.405 191.819  0.00  0.00    +0.030 HD
ATOM      5  H   UNL     1     149.424 170.536 190.284  0.00  0.00    +0.030 HD
BRANCH   3   6
ATOM      6  C   UNL     1     149.235 169.263 191.997  0.00  0.00    -0.045 C 
ATOM      7  H   UNL     1     148.602 169.166 192.890  0.00  0.00    +0.027 HD
ATOM      8  H   UNL     1     148.943 168.446 191.322  0.00  0.00    +0.027 HD
BRANCH   6   9
ATOM      9  C   UNL     1     150.728 169.105 192.387  0.00  0.00    -0.017 C 
ATOM     10  H   UNL     1     150.823 169.334 193.452  0.00  0.00    +0.032 HD
BRANCH   9  11
ATOM     11  C   UNL     1     151.546 170.146 191.609  0.00  0.00    -0.060 C 
ATOM     12  H   UNL     1     151.140 171.148 191.779  0.00  0.00    +0.023 HD
ATOM     13  H   UNL     1     151.524 169.958 190.530  0.00  0.00    +0.023 HD
ATOM     14  H   UNL     1     152.592 170.170 191.923  0.00  0.00    +0.023 HD
ENDBRANCH   9  11
BRANCH   9  15
ATOM     15  C   UNL     1     151.217 167.651 192.117  0.00  0.00    +0.064 C 
ATOM     16  H   UNL     1     150.368 167.062 191.767  0.00  0.00    +0.060 HD
BRANCH  15  17
ATOM     17  C   UNL     1     151.859 166.963 193.343  0.00  0.00    +0.011 C 
ATOM     18  H   UNL     1     152.074 167.731 194.094  0.00  0.00    +0.033 HD
ATOM     19  H   UNL     1     152.855 166.590 193.087  0.00  0.00    +0.033 HD
BRANCH  17  20
ATOM     20  C   UNL     1     151.076 165.800 193.981  0.00  0.00    +0.108 C 
ATOM     21  H   UNL     1     151.307 164.840 193.508  0.00  0.00    +0.074 HD
BRANCH  20  22
ATOM     22  C   UNL     1     151.263 165.659 195.519  0.00  0.00    -0.009 C 
ATOM     23  H   UNL     1     152.169 166.210 195.808  0.00  0.00    +0.033 HD
BRANCH  22  24
ATOM     24  C   UNL     1     151.409 164.219 196.005  0.00  0.00    -0.059 C 
ATOM     25  H   UNL     1     151.881 163.587 195.250  0.00  0.00    +0.023 HD
ATOM     26  H   UNL     1     151.996 164.178 196.925  0.00  0.00    +0.023 HD
ATOM     27  H   UNL     1     150.430 163.786 196.237  0.00  0.00    +0.023 HD
ENDBRANCH  22  24
BRANCH  22  28
ATOM     28  C   UNL     1     150.095 166.329 196.260  0.00  0.00    -0.059 C 
ATOM     29  H   UNL     1     149.200 165.700 196.228  0.00  0.00    +0.023 HD
ATOM     30  H   UNL     1     150.349 166.503 197.309  0.00  0.00    +0.023 HD
ATOM     31  H   UNL     1     149.842 167.297 195.821  0.00  0.00    +0.023 HD
ENDBRANCH  22  28
ENDBRANCH  20  22
BRANCH  20  32
ATOM     32  O   UNL     1     149.662 166.093 193.795  0.00  0.00    -0.461 OA
BRANCH  32  33
ATOM     33  C   UNL     1     148.922 165.153 193.148  0.00  0.00    +0.307 C 
ATOM     34  O   UNL     1     149.221 163.974 193.021  0.00  0.00    -0.251 OA
BRANCH  33  35
ATOM     35  C   UNL     1     147.666 165.773 192.586  0.00  0.00    +0.042 C 
ATOM     36  H   UNL     1     147.955 166.574 191.899  0.00  0.00    +0.037 HD
ATOM     37  H   UNL     1     147.129 165.020 191.997  0.00  0.00    +0.037 HD
BRANCH  35  38
ATOM     38  C   UNL     1     146.789 166.333 193.688  0.00  0.00    -0.055 C 
ATOM     39  H   UNL     1     147.172 166.037 194.671  0.00  0.00    +0.023 HD
ATOM     40  H   UNL     1     146.757 167.427 193.658  0.00  0.00    +0.023 HD
ATOM     41  H   UNL     1     145.757 165.968 193.594  0.00  0.00    +0.023 HD
ENDBRANCH  35  38
ENDBRANCH  33  35
ENDBRANCH  32  33
ENDBRANCH  20  32
ENDBRANCH  17  20
ENDBRANCH  15  17
BRANCH  15  42
ATOM     42  O   UNL     1     152.175 167.727 191.042  0.00  0.00    -0.379 OA
BRANCH  42  43
ATOM     43  C   UNL     1     152.575 166.474 190.515  0.00  0.00    +0.037 C 
ATOM     44  H   UNL     1     153.440 166.123 191.088  0.00  0.00    +0.052 HD
ATOM     45  H   UNL     1     151.782 165.727 190.621  0.00  0.00    +0.052 HD
ATOM     46  H   UNL     1     152.872 166.571 189.466  0.00  0.00    +0.052 HD
ENDBRANCH  42  43
ENDBRANCH  15  42
ENDBRANCH   9  15
ENDBRANCH   6   9
ENDBRANCH   3   6
ENDBRANCH   1   3
BRANCH   1  47
ATOM     47  C   UNL     1     146.820 170.830 189.726  0.00  0.00    +0.020 C 
ATOM     48  H   UNL     1     147.519 171.438 189.133  0.00  0.00    +0.036 HD
BRANCH  47  49
ATOM     49  C   UNL     1     145.515 171.627 189.644  0.00  0.00    -0.057 C 
ATOM     50  H   UNL     1     145.481 172.289 188.777  0.00  0.00    +0.023 HD
ATOM     51  H   UNL     1     145.364 172.240 190.541  0.00  0.00    +0.023 HD
ATOM     52  H   UNL     1     144.657 170.950 189.569  0.00  0.00    +0.023 HD
ENDBRANCH  47  49
BRANCH  47  53
ATOM     53  C   UNL     1     146.801 169.461 188.978  0.00  0.00    +0.070 C 
ATOM     54  H   UNL     1     147.745 169.374 188.428  0.00  0.00    +0.061 HD
BRANCH  53  55
ATOM     55  C   UNL     1     146.684 168.163 189.830  0.00  0.00    +0.002 C 
ATOM     56  H   UNL     1     147.478 168.168 190.580  0.00  0.00    +0.037 HD
BRANCH  55  58
ATOM     57  C   UNL     1     144.718 166.793 190.589  0.00  0.00    -0.005 C 
ATOM     58  C   UNL     1     145.339 167.978 190.499  0.00  0.00    -0.065 C 
ATOM     59  H   UNL     1     145.193 165.912 190.157  0.00  0.00    +0.078 HD
ATOM     60  H   UNL     1     144.900 168.881 190.914  0.00  0.00    +0.059 HD
BRANCH  57  62
ATOM     61  C   UNL     1     142.531 165.809 190.507  0.00  0.00    +0.206 C 
ATOM     62  N   UNL     1     143.495 166.544 191.195  0.00  0.00    -0.281 N 
ATOM     63  O   UNL     1     142.630 165.354 189.373  0.00  0.00    -0.279 OA
ATOM     64  H   UNL     1     141.612 165.654 191.094  0.00  0.00    +0.126 HD
BRANCH  62  65
ATOM     65  C   UNL     1     143.181 166.999 192.547  0.00  0.00    +0.016 C 
ATOM     66  H   UNL     1     143.936 166.632 193.248  0.00  0.00    +0.047 HD
ATOM     67  H   UNL     1     143.249 168.095 192.574  0.00  0.00    +0.047 HD
BRANCH  65  68
ATOM     68  C   UNL     1     141.782 166.594 192.984  0.00  0.00    -0.049 C 
ATOM     69  H   UNL     1     141.117 166.530 192.116  0.00  0.00    +0.024 HD
ATOM     70  H   UNL     1     141.794 165.627 193.488  0.00  0.00    +0.024 HD
ATOM     71  H   UNL     1     141.350 167.327 193.675  0.00  0.00    +0.024 HD
ENDBRANCH  65  68
ENDBRANCH  62  65
ENDBRANCH  57  62
ENDBRANCH  55  58
BRANCH  55  72
ATOM     72  C   UNL     1     146.948 166.933 188.947  0.00  0.00    -0.057 C 
ATOM     73  H   UNL     1     147.458 166.133 189.493  0.00  0.00    +0.024 HD
ATOM     74  H   UNL     1     146.006 166.525 188.561  0.00  0.00    +0.024 HD
ATOM     75  H   UNL     1     147.571 167.195 188.084  0.00  0.00    +0.024 HD
ENDBRANCH  55  72
ENDBRANCH  53  55
BRANCH  53  76
ATOM     76  O   UNL     1     145.727 169.438 188.012  0.00  0.00    -0.379 OA
BRANCH  76  77
ATOM     77  C   UNL     1     146.156 169.634 186.670  0.00  0.00    +0.037 C 
ATOM     78  H   UNL     1     147.129 170.135 186.648  0.00  0.00    +0.052 HD
ATOM     79  H   UNL     1     146.264 168.652 186.203  0.00  0.00    +0.052 HD
ATOM     80  H   UNL     1     145.423 170.211 186.097  0.00  0.00    +0.052 HD
ENDBRANCH  76  77
ENDBRANCH  53  76
ENDBRANCH  47  53
ENDBRANCH   1  47
BRANCH   1  81
ATOM     81  O   UNL     1     147.190 172.106 191.799  0.00  0.00    -0.461 OA
BRANCH  81  82
ATOM     82  C   UNL     1     148.140 173.068 191.667  0.00  0.00    +0.310 C 
ATOM     83  O   UNL     1     148.604 173.446 190.600  0.00  0.00    -0.251 OA
BRANCH  82  84
ATOM     84  C   UNL     1     148.557 173.639 193.012  0.00  0.00    +0.051 C 
ATOM     85  H   UNL     1     148.944 174.649 192.813  0.00  0.00    +0.041 HD
BRANCH  84  86
ATOM     86  C   UNL     1     149.676 172.851 193.693  0.00  0.00    -0.053 C 
ATOM     87  H   UNL     1     150.651 173.039 193.225  0.00  0.00    +0.024 HD
ATOM     88  H   UNL     1     149.481 171.774 193.638  0.00  0.00    +0.024 HD
ATOM     89  H   UNL     1     149.757 173.125 194.750  0.00  0.00    +0.024 HD
ENDBRANCH  84  86
BRANCH  84  90
ATOM     90  C   UNL     1     147.333 173.740 193.920  0.00  0.00    -0.053 C 
ATOM     91  H   UNL     1     147.621 173.928 194.963  0.00  0.00    +0.024 HD
ATOM     92  H   UNL     1     146.758 172.807 193.901  0.00  0.00    +0.024 HD
ATOM     93  H   UNL     1     146.668 174.547 193.587  0.00  0.00    +0.024 HD
ENDBRANCH  84  90
ENDBRANCH  82  84
ENDBRANCH  81  82
ENDBRANCH   1  81
TORSDOF 32
ENDMDL
MODEL 5
REMARK VINA RESULT:      -5.2      3.031      8.765
REMARK  Name = 2c_conf2
REMARK  32 active torsions:
REMARK  status: ('A' for Active; 'I' for Inactive)
REMARK    1  A    between atoms: N_2  and  C_3
REMARK    2  A    between atoms: N_2  and  C_5
REMARK    3  A    between atoms: C_3  and  C_4
REMARK    4  A    between atoms: C_6  and  C_7
REMARK    5  A    between atoms: C_7  and  C_8
REMARK    6  A    between atoms: C_7  and  C_9
REMARK    7  A    between atoms: C_9  and  O_10
REMARK    8  A    between atoms: C_9  and  C_12
REMARK    9  A    between atoms: O_10  and  C_11
REMARK   10  A    between atoms: C_12  and  C_13
REMARK   11  A    between atoms: C_12  and  C_14
REMARK   12  A    between atoms: C_14  and  O_15
REMARK   13  A    between atoms: C_14  and  C_21
REMARK   14  A    between atoms: O_15  and  C_16
REMARK   15  A    between atoms: C_16  and  C_17
REMARK   16  A    between atoms: C_17  and  C_18
REMARK   17  A    between atoms: C_17  and  C_19
REMARK   18  A    between atoms: C_21  and  C_22
REMARK   19  A    between atoms: C_22  and  C_23
REMARK   20  A    between atoms: C_23  and  C_24
REMARK   21  A    between atoms: C_23  and  C_25
REMARK   22  A    between atoms: C_25  and  O_26
REMARK   23  A    between atoms: C_25  and  C_28
REMARK   24  A    between atoms: O_26  and  C_27
REMARK   25  A    between atoms: C_28  and  C_29
REMARK   26  A    between atoms: C_29  and  O_30
REMARK   27  A    between atoms: C_29  and  C_35
REMARK   28  A    between atoms: O_30  and  C_31
REMARK   29  A    between atoms: C_31  and  C_32
REMARK   30  A    between atoms: C_32  and  C_33
REMARK   31  A    between atoms: C_35  and  C_36
REMARK   32  A    between atoms: C_35  and  C_37
REMARK                            x       y       z     vdW  Elec       q    Type
REMARK                         _______ _______ _______ _____ _____    ______ ____
ROOT
ATOM      1  C   UNL     1     149.323 166.082 193.109  0.00  0.00    +0.108 C 
ATOM      2  H   UNL     1     150.103 166.834 193.300  0.00  0.00    +0.074 HD
ENDROOT
BRANCH   1   3
ATOM      3  C   UNL     1     148.010 166.839 192.854  0.00  0.00    -0.015 C 
ATOM      4  H   UNL     1     147.287 166.595 193.633  0.00  0.00    +0.030 HD
ATOM      5  H   UNL     1     147.563 166.572 191.892  0.00  0.00    +0.030 HD
BRANCH   3   6
ATOM      6  C   UNL     1     148.243 168.362 192.852  0.00  0.00    -0.045 C 
ATOM      7  H   UNL     1     147.300 168.899 193.028  0.00  0.00    +0.027 HD
ATOM      8  H   UNL     1     148.894 168.594 193.706  0.00  0.00    +0.027 HD
BRANCH   6   9
ATOM      9  C   UNL     1     148.903 168.869 191.543  0.00  0.00    -0.017 C 
ATOM     10  H   UNL     1     149.067 168.006 190.893  0.00  0.00    +0.032 HD
BRANCH   9  11
ATOM     11  C   UNL     1     150.278 169.461 191.891  0.00  0.00    -0.060 C 
ATOM     12  H   UNL     1     150.847 168.756 192.504  0.00  0.00    +0.023 HD
ATOM     13  H   UNL     1     150.188 170.395 192.457  0.00  0.00    +0.023 HD
ATOM     14  H   UNL     1     150.878 169.666 191.001  0.00  0.00    +0.023 HD
ENDBRANCH   9  11
BRANCH   9  15
ATOM     15  C   UNL     1     147.984 169.901 190.826  0.00  0.00    +0.064 C 
ATOM     16  H   UNL     1     148.061 169.740 189.749  0.00  0.00    +0.060 HD
BRANCH  15  17
ATOM     17  C   UNL     1     148.312 171.375 191.155  0.00  0.00    +0.011 C 
ATOM     18  H   UNL     1     148.398 171.927 190.213  0.00  0.00    +0.033 HD
ATOM     19  H   UNL     1     149.321 171.452 191.572  0.00  0.00    +0.033 HD
BRANCH  17  20
ATOM     20  C   UNL     1     147.355 172.108 192.114  0.00  0.00    +0.108 C 
ATOM     21  H   UNL     1     146.482 171.497 192.369  0.00  0.00    +0.074 HD
BRANCH  20  22
ATOM     22  C   UNL     1     148.015 172.614 193.428  0.00  0.00    -0.009 C 
ATOM     23  H   UNL     1     147.917 171.828 194.189  0.00  0.00    +0.033 HD
BRANCH  22  24
ATOM     24  C   UNL     1     147.400 173.895 193.988  0.00  0.00    -0.059 C 
ATOM     25  H   UNL     1     146.452 174.131 193.499  0.00  0.00    +0.023 HD
ATOM     26  H   UNL     1     147.237 173.808 195.064  0.00  0.00    +0.023 HD
ATOM     27  H   UNL     1     148.072 174.746 193.839  0.00  0.00    +0.023 HD
ENDBRANCH  22  24
BRANCH  22  28
ATOM     28  C   UNL     1     149.523 172.826 193.217  0.00  0.00    -0.059 C 
ATOM     29  H   UNL     1     150.104 172.246 193.940  0.00  0.00    +0.023 HD
ATOM     30  H   UNL     1     149.822 172.514 192.213  0.00  0.00    +0.023 HD
ATOM     31  H   UNL     1     149.801 173.878 193.327  0.00  0.00    +0.023 HD
ENDBRANCH  22  28
ENDBRANCH  20  22
BRANCH  20  32
ATOM     32  O   UNL     1     146.908 173.309 191.424  0.00  0.00    -0.461 OA
BRANCH  32  33
ATOM     33  C   UNL     1     145.815 173.185 190.623  0.00  0.00    +0.307 C 
ATOM     34  O   UNL     1     145.835 173.006 189.413  0.00  0.00    -0.251 OA
BRANCH  33  35
ATOM     35  C   UNL     1     144.552 173.311 191.439  0.00  0.00    +0.042 C 
ATOM     36  H   UNL     1     144.826 173.328 192.498  0.00  0.00    +0.037 HD
ATOM     37  H   UNL     1     144.076 174.273 191.213  0.00  0.00    +0.037 HD
BRANCH  35  38
ATOM     38  C   UNL     1     143.607 172.157 191.171  0.00  0.00    -0.055 C 
ATOM     39  H   UNL     1     143.299 172.148 190.120  0.00  0.00    +0.023 HD
ATOM     40  H   UNL     1     144.081 171.193 191.388  0.00  0.00    +0.023 HD
ATOM     41  H   UNL     1     142.706 172.231 191.796  0.00  0.00    +0.023 HD
ENDBRANCH  35  38
ENDBRANCH  33  35
ENDBRANCH  32  33
ENDBRANCH  20  32
ENDBRANCH  17  20
ENDBRANCH  15  17
BRANCH  15  42
ATOM     42  O   UNL     1     146.631 169.601 191.222  0.00  0.00    -0.379 OA
BRANCH  42  43
ATOM     43  C   UNL     1     145.766 169.247 190.157  0.00  0.00    +0.037 C 
ATOM     44  H   UNL     1     144.750 169.161 190.557  0.00  0.00    +0.052 HD
ATOM     45  H   UNL     1     145.753 170.019 189.381  0.00  0.00    +0.052 HD
ATOM     46  H   UNL     1     146.052 168.280 189.730  0.00  0.00    +0.052 HD
ENDBRANCH  42  43
ENDBRANCH  15  42
ENDBRANCH   9  15
ENDBRANCH   6   9
ENDBRANCH   3   6
ENDBRANCH   1   3
BRANCH   1  47
ATOM     47  C   UNL     1     149.840 165.166 191.965  0.00  0.00    +0.020 C 
ATOM     48  H   UNL     1     148.926 164.850 191.440  0.00  0.00    +0.036 HD
BRANCH  47  49
ATOM     49  C   UNL     1     150.410 163.843 192.486  0.00  0.00    -0.057 C 
ATOM     50  H   UNL     1     150.281 163.022 191.780  0.00  0.00    +0.023 HD
ATOM     51  H   UNL     1     149.939 163.549 193.432  0.00  0.00    +0.023 HD
ATOM     52  H   UNL     1     151.485 163.940 192.679  0.00  0.00    +0.023 HD
ENDBRANCH  47  49
BRANCH  47  53
ATOM     53  C   UNL     1     150.686 165.850 190.848  0.00  0.00    +0.070 C 
ATOM     54  H   UNL     1     150.413 166.912 190.832  0.00  0.00    +0.061 HD
BRANCH  53  55
ATOM     55  C   UNL     1     152.237 165.812 190.978  0.00  0.00    +0.002 C 
ATOM     56  H   UNL     1     152.511 164.966 191.612  0.00  0.00    +0.037 HD
BRANCH  55  58
ATOM     57  C   UNL     1     153.989 166.535 189.327  0.00  0.00    -0.005 C 
ATOM     58  C   UNL     1     152.970 165.729 189.656  0.00  0.00    -0.065 C 
ATOM     59  H   UNL     1     154.313 167.296 190.037  0.00  0.00    +0.078 HD
ATOM     60  H   UNL     1     152.614 164.959 188.977  0.00  0.00    +0.059 HD
BRANCH  57  62
ATOM     61  C   UNL     1     155.959 165.886 188.120  0.00  0.00    +0.206 C 
ATOM     62  N   UNL     1     154.713 166.511 188.144  0.00  0.00    -0.281 N 
ATOM     63  O   UNL     1     156.526 165.351 189.065  0.00  0.00    -0.279 OA
ATOM     64  H   UNL     1     156.430 165.908 187.124  0.00  0.00    +0.126 HD
BRANCH  62  65
ATOM     65  C   UNL     1     154.209 167.092 186.902  0.00  0.00    +0.016 C 
ATOM     66  H   UNL     1     153.457 167.854 187.126  0.00  0.00    +0.047 HD
ATOM     67  H   UNL     1     155.032 167.616 186.400  0.00  0.00    +0.047 HD
BRANCH  65  68
ATOM     68  C   UNL     1     153.658 166.039 185.952  0.00  0.00    -0.049 C 
ATOM     69  H   UNL     1     152.680 166.349 185.569  0.00  0.00    +0.024 HD
ATOM     70  H   UNL     1     154.331 165.883 185.109  0.00  0.00    +0.024 HD
ATOM     71  H   UNL     1     153.523 165.076 186.457  0.00  0.00    +0.024 HD
ENDBRANCH  65  68
ENDBRANCH  62  65
ENDBRANCH  57  62
ENDBRANCH  55  58
BRANCH  55  72
ATOM     72  C   UNL     1     152.731 167.068 191.715  0.00  0.00    -0.057 C 
ATOM     73  H   UNL     1     152.546 167.983 191.143  0.00  0.00    +0.024 HD
ATOM     74  H   UNL     1     152.227 167.172 192.683  0.00  0.00    +0.024 HD
ATOM     75  H   UNL     1     153.808 167.010 191.910  0.00  0.00    +0.024 HD
ENDBRANCH  55  72
ENDBRANCH  53  55
BRANCH  53  76
ATOM     76  O   UNL     1     150.350 165.293 189.558  0.00  0.00    -0.379 OA
BRANCH  76  77
ATOM     77  C   UNL     1     149.098 165.736 189.048  0.00  0.00    +0.037 C 
ATOM     78  H   UNL     1     148.674 166.511 189.695  0.00  0.00    +0.052 HD
ATOM     79  H   UNL     1     149.270 166.169 188.060  0.00  0.00    +0.052 HD
ATOM     80  H   UNL     1     148.392 164.905 188.945  0.00  0.00    +0.052 HD
ENDBRANCH  76  77
ENDBRANCH  53  76
ENDBRANCH  47  53
ENDBRANCH   1  47
BRANCH   1  81
ATOM     81  O   UNL     1     149.107 165.310 194.311  0.00  0.00    -0.461 OA
BRANCH  81  82
ATOM     82  C   UNL     1     149.346 165.919 195.502  0.00  0.00    +0.310 C 
ATOM     83  O   UNL     1     148.531 166.597 196.112  0.00  0.00    -0.251 OA
BRANCH  82  84
ATOM     84  C   UNL     1     150.754 165.648 196.004  0.00  0.00    +0.051 C 
ATOM     85  H   UNL     1     150.868 166.225 196.932  0.00  0.00    +0.041 HD
BRANCH  84  86
ATOM     86  C   UNL     1     151.848 166.113 195.043  0.00  0.00    -0.053 C 
ATOM     87  H   UNL     1     151.675 165.750 194.021  0.00  0.00    +0.024 HD
ATOM     88  H   UNL     1     152.830 165.749 195.366  0.00  0.00    +0.024 HD
ATOM     89  H   UNL     1     151.890 167.207 195.004  0.00  0.00    +0.024 HD
ENDBRANCH  84  86
BRANCH  84  90
ATOM     90  C   UNL     1     150.901 164.160 196.317  0.00  0.00    -0.053 C 
ATOM     91  H   UNL     1     150.030 163.589 195.973  0.00  0.00    +0.024 HD
ATOM     92  H   UNL     1     150.994 163.999 197.398  0.00  0.00    +0.024 HD
ATOM     93  H   UNL     1     151.802 163.750 195.842  0.00  0.00    +0.024 HD
ENDBRANCH  84  90
ENDBRANCH  82  84
ENDBRANCH  81  82
ENDBRANCH   1  81
TORSDOF 32
ENDMDL
MODEL 6
REMARK VINA RESULT:      -5.2      2.560      4.997
REMARK  Name = 2c_conf2
REMARK  32 active torsions:
REMARK  status: ('A' for Active; 'I' for Inactive)
REMARK    1  A    between atoms: N_2  and  C_3
REMARK    2  A    between atoms: N_2  and  C_5
REMARK    3  A    between atoms: C_3  and  C_4
REMARK    4  A    between atoms: C_6  and  C_7
REMARK    5  A    between atoms: C_7  and  C_8
REMARK    6  A    between atoms: C_7  and  C_9
REMARK    7  A    between atoms: C_9  and  O_10
REMARK    8  A    between atoms: C_9  and  C_12
REMARK    9  A    between atoms: O_10  and  C_11
REMARK   10  A    between atoms: C_12  and  C_13
REMARK   11  A    between atoms: C_12  and  C_14
REMARK   12  A    between atoms: C_14  and  O_15
REMARK   13  A    between atoms: C_14  and  C_21
REMARK   14  A    between atoms: O_15  and  C_16
REMARK   15  A    between atoms: C_16  and  C_17
REMARK   16  A    between atoms: C_17  and  C_18
REMARK   17  A    between atoms: C_17  and  C_19
REMARK   18  A    between atoms: C_21  and  C_22
REMARK   19  A    between atoms: C_22  and  C_23
REMARK   20  A    between atoms: C_23  and  C_24
REMARK   21  A    between atoms: C_23  and  C_25
REMARK   22  A    between atoms: C_25  and  O_26
REMARK   23  A    between atoms: C_25  and  C_28
REMARK   24  A    between atoms: O_26  and  C_27
REMARK   25  A    between atoms: C_28  and  C_29
REMARK   26  A    between atoms: C_29  and  O_30
REMARK   27  A    between atoms: C_29  and  C_35
REMARK   28  A    between atoms: O_30  and  C_31
REMARK   29  A    between atoms: C_31  and  C_32
REMARK   30  A    between atoms: C_32  and  C_33
REMARK   31  A    between atoms: C_35  and  C_36
REMARK   32  A    between atoms: C_35  and  C_37
REMARK                            x       y       z     vdW  Elec       q    Type
REMARK                         _______ _______ _______ _____ _____    ______ ____
ROOT
ATOM      1  C   UNL     1     146.740 169.582 190.355  0.00  0.00    +0.108 C 
ATOM      2  H   UNL     1     146.429 169.180 191.331  0.00  0.00    +0.074 HD
ENDROOT
BRANCH   1   3
ATOM      3  C   UNL     1     147.110 168.384 189.464  0.00  0.00    -0.015 C 
ATOM      4  H   UNL     1     147.285 168.726 188.442  0.00  0.00    +0.030 HD
ATOM      5  H   UNL     1     146.312 167.637 189.431  0.00  0.00    +0.030 HD
BRANCH   3   6
ATOM      6  C   UNL     1     148.382 167.685 189.980  0.00  0.00    -0.045 C 
ATOM      7  H   UNL     1     149.062 167.455 189.148  0.00  0.00    +0.027 HD
ATOM      8  H   UNL     1     148.911 168.403 190.622  0.00  0.00    +0.027 HD
BRANCH   6   9
ATOM      9  C   UNL     1     148.076 166.395 190.785  0.00  0.00    -0.017 C 
ATOM     10  H   UNL     1     148.690 165.589 190.375  0.00  0.00    +0.032 HD
BRANCH   9  11
ATOM     11  C   UNL     1     146.602 166.022 190.564  0.00  0.00    -0.060 C 
ATOM     12  H   UNL     1     146.249 165.386 191.382  0.00  0.00    +0.023 HD
ATOM     13  H   UNL     1     146.458 165.470 189.629  0.00  0.00    +0.023 HD
ATOM     14  H   UNL     1     145.952 166.899 190.539  0.00  0.00    +0.023 HD
ENDBRANCH   9  11
BRANCH   9  15
ATOM     15  C   UNL     1     148.411 166.595 192.293  0.00  0.00    +0.064 C 
ATOM     16  H   UNL     1     148.925 167.551 192.408  0.00  0.00    +0.060 HD
BRANCH  15  17
ATOM     17  C   UNL     1     149.272 165.466 192.903  0.00  0.00    +0.011 C 
ATOM     18  H   UNL     1     149.277 164.622 192.205  0.00  0.00    +0.033 HD
ATOM     19  H   UNL     1     148.775 165.047 193.784  0.00  0.00    +0.033 HD
BRANCH  17  20
ATOM     20  C   UNL     1     150.714 165.827 193.309  0.00  0.00    +0.108 C 
ATOM     21  H   UNL     1     151.311 164.938 193.539  0.00  0.00    +0.074 HD
BRANCH  20  22
ATOM     22  C   UNL     1     151.482 166.693 192.271  0.00  0.00    -0.009 C 
ATOM     23  H   UNL     1     150.825 167.515 191.953  0.00  0.00    +0.033 HD
BRANCH  22  24
ATOM     24  C   UNL     1     151.927 165.934 191.024  0.00  0.00    -0.059 C 
ATOM     25  H   UNL     1     152.857 165.388 191.198  0.00  0.00    +0.023 HD
ATOM     26  H   UNL     1     151.155 165.233 190.701  0.00  0.00    +0.023 HD
ATOM     27  H   UNL     1     152.097 166.622 190.190  0.00  0.00    +0.023 HD
ENDBRANCH  22  24
BRANCH  22  28
ATOM     28  C   UNL     1     152.707 167.350 192.930  0.00  0.00    -0.059 C 
ATOM     29  H   UNL     1     152.553 167.472 194.006  0.00  0.00    +0.023 HD
ATOM     30  H   UNL     1     153.600 166.738 192.783  0.00  0.00    +0.023 HD
ATOM     31  H   UNL     1     152.913 168.335 192.504  0.00  0.00    +0.023 HD
ENDBRANCH  22  28
ENDBRANCH  20  22
BRANCH  20  32
ATOM     32  O   UNL     1     150.618 166.656 194.502  0.00  0.00    -0.461 OA
BRANCH  32  33
ATOM     33  C   UNL     1     150.757 166.025 195.699  0.00  0.00    +0.307 C 
ATOM     34  O   UNL     1     150.312 166.418 196.768  0.00  0.00    -0.251 OA
BRANCH  33  35
ATOM     35  C   UNL     1     151.559 164.757 195.532  0.00  0.00    +0.042 C 
ATOM     36  H   UNL     1     151.334 164.334 194.548  0.00  0.00    +0.037 HD
ATOM     37  H   UNL     1     152.627 165.007 195.539  0.00  0.00    +0.037 HD
BRANCH  35  38
ATOM     38  C   UNL     1     151.225 163.749 196.613  0.00  0.00    -0.055 C 
ATOM     39  H   UNL     1     150.912 162.799 196.168  0.00  0.00    +0.023 HD
ATOM     40  H   UNL     1     152.089 163.549 197.255  0.00  0.00    +0.023 HD
ATOM     41  H   UNL     1     150.412 164.116 197.256  0.00  0.00    +0.023 HD
ENDBRANCH  35  38
ENDBRANCH  33  35
ENDBRANCH  32  33
ENDBRANCH  20  32
ENDBRANCH  17  20
ENDBRANCH  15  17
BRANCH  15  42
ATOM     42  O   UNL     1     147.153 166.683 192.992  0.00  0.00    -0.379 OA
BRANCH  42  43
ATOM     43  C   UNL     1     147.111 165.985 194.224  0.00  0.00    +0.037 C 
ATOM     44  H   UNL     1     147.563 164.999 194.074  0.00  0.00    +0.052 HD
ATOM     45  H   UNL     1     147.691 166.502 194.995  0.00  0.00    +0.052 HD
ATOM     46  H   UNL     1     146.076 165.843 194.555  0.00  0.00    +0.052 HD
ENDBRANCH  42  43
ENDBRANCH  15  42
ENDBRANCH   9  15
ENDBRANCH   6   9
ENDBRANCH   3   6
ENDBRANCH   1   3
BRANCH   1  47
ATOM     47  C   UNL     1     145.596 170.506 189.851  0.00  0.00    +0.020 C 
ATOM     48  H   UNL     1     144.858 169.811 189.424  0.00  0.00    +0.036 HD
BRANCH  47  49
ATOM     49  C   UNL     1     146.014 171.350 188.644  0.00  0.00    -0.057 C 
ATOM     50  H   UNL     1     147.094 171.357 188.488  0.00  0.00    +0.023 HD
ATOM     51  H   UNL     1     145.684 172.391 188.749  0.00  0.00    +0.023 HD
ATOM     52  H   UNL     1     145.556 170.960 187.727  0.00  0.00    +0.023 HD
ENDBRANCH  47  49
BRANCH  47  53
ATOM     53  C   UNL     1     144.788 171.275 190.940  0.00  0.00    +0.070 C 
ATOM     54  H   UNL     1     145.074 170.863 191.915  0.00  0.00    +0.061 HD
BRANCH  53  55
ATOM     55  C   UNL     1     144.992 172.814 191.053  0.00  0.00    +0.002 C 
ATOM     56  H   UNL     1     145.389 173.182 190.105  0.00  0.00    +0.037 HD
BRANCH  55  58
ATOM     57  C   UNL     1     143.688 174.461 192.434  0.00  0.00    -0.005 C 
ATOM     58  C   UNL     1     143.741 173.581 191.424  0.00  0.00    -0.065 C 
ATOM     59  H   UNL     1     144.583 174.638 193.030  0.00  0.00    +0.078 HD
ATOM     60  H   UNL     1     142.870 173.374 190.807  0.00  0.00    +0.059 HD
BRANCH  57  62
ATOM     61  C   UNL     1     142.404 176.484 192.296  0.00  0.00    +0.206 C 
ATOM     62  N   UNL     1     142.585 175.207 192.824  0.00  0.00    -0.281 N 
ATOM     63  O   UNL     1     143.147 177.061 191.510  0.00  0.00    -0.279 OA
ATOM     64  H   UNL     1     141.484 176.971 192.657  0.00  0.00    +0.126 HD
BRANCH  62  65
ATOM     65  C   UNL     1     141.579 174.695 193.752  0.00  0.00    +0.016 C 
ATOM     66  H   UNL     1     140.581 174.803 193.316  0.00  0.00    +0.047 HD
ATOM     67  H   UNL     1     141.738 173.617 193.883  0.00  0.00    +0.047 HD
BRANCH  65  68
ATOM     68  C   UNL     1     141.657 175.362 195.117  0.00  0.00    -0.049 C 
ATOM     69  H   UNL     1     142.666 175.261 195.531  0.00  0.00    +0.024 HD
ATOM     70  H   UNL     1     141.411 176.422 195.049  0.00  0.00    +0.024 HD
ATOM     71  H   UNL     1     140.962 174.901 195.828  0.00  0.00    +0.024 HD
ENDBRANCH  65  68
ENDBRANCH  62  65
ENDBRANCH  57  62
ENDBRANCH  55  58
BRANCH  55  72
ATOM     72  C   UNL     1     146.067 173.123 192.108  0.00  0.00    -0.057 C 
ATOM     73  H   UNL     1     146.668 173.999 191.841  0.00  0.00    +0.024 HD
ATOM     74  H   UNL     1     145.607 173.319 193.084  0.00  0.00    +0.024 HD
ATOM     75  H   UNL     1     146.751 172.275 192.231  0.00  0.00    +0.024 HD
ENDBRANCH  55  72
ENDBRANCH  53  55
BRANCH  53  76
ATOM     76  O   UNL     1     143.372 171.041 190.766  0.00  0.00    -0.379 OA
BRANCH  76  77
ATOM     77  C   UNL     1     142.917 169.816 191.328  0.00  0.00    +0.037 C 
ATOM     78  H   UNL     1     142.852 169.896 192.418  0.00  0.00    +0.052 HD
ATOM     79  H   UNL     1     141.917 169.615 190.937  0.00  0.00    +0.052 HD
ATOM     80  H   UNL     1     143.572 168.983 191.051  0.00  0.00    +0.052 HD
ENDBRANCH  76  77
ENDBRANCH  53  76
ENDBRANCH  47  53
ENDBRANCH   1  47
BRANCH   1  81
ATOM     81  O   UNL     1     147.959 170.340 190.523  0.00  0.00    -0.461 OA
BRANCH  81  82
ATOM     82  C   UNL     1     148.437 170.490 191.786  0.00  0.00    +0.310 C 
ATOM     83  O   UNL     1     147.924 170.008 192.786  0.00  0.00    -0.251 OA
BRANCH  82  84
ATOM     84  C   UNL     1     149.707 171.326 191.815  0.00  0.00    +0.051 C 
ATOM     85  H   UNL     1     149.745 171.862 190.856  0.00  0.00    +0.041 HD
BRANCH  84  86
ATOM     86  C   UNL     1     150.985 170.495 191.923  0.00  0.00    -0.053 C 
ATOM     87  H   UNL     1     151.823 171.082 192.319  0.00  0.00    +0.024 HD
ATOM     88  H   UNL     1     151.282 170.109 190.940  0.00  0.00    +0.024 HD
ATOM     89  H   UNL     1     150.836 169.638 192.589  0.00  0.00    +0.024 HD
ENDBRANCH  84  86
BRANCH  84  90
ATOM     90  C   UNL     1     149.619 172.340 192.954  0.00  0.00    -0.053 C 
ATOM     91  H   UNL     1     149.638 171.846 193.934  0.00  0.00    +0.024 HD
ATOM     92  H   UNL     1     148.686 172.912 192.893  0.00  0.00    +0.024 HD
ATOM     93  H   UNL     1     150.451 173.054 192.903  0.00  0.00    +0.024 HD
ENDBRANCH  84  90
ENDBRANCH  82  84
ENDBRANCH  81  82
ENDBRANCH   1  81
TORSDOF 32
ENDMDL
MODEL 7
REMARK VINA RESULT:      -5.2      3.282      9.017
REMARK  Name = 2c_conf2
REMARK  32 active torsions:
REMARK  status: ('A' for Active; 'I' for Inactive)
REMARK    1  A    between atoms: N_2  and  C_3
REMARK    2  A    between atoms: N_2  and  C_5
REMARK    3  A    between atoms: C_3  and  C_4
REMARK    4  A    between atoms: C_6  and  C_7
REMARK    5  A    between atoms: C_7  and  C_8
REMARK    6  A    between atoms: C_7  and  C_9
REMARK    7  A    between atoms: C_9  and  O_10
REMARK    8  A    between atoms: C_9  and  C_12
REMARK    9  A    between atoms: O_10  and  C_11
REMARK   10  A    between atoms: C_12  and  C_13
REMARK   11  A    between atoms: C_12  and  C_14
REMARK   12  A    between atoms: C_14  and  O_15
REMARK   13  A    between atoms: C_14  and  C_21
REMARK   14  A    between atoms: O_15  and  C_16
REMARK   15  A    between atoms: C_16  and  C_17
REMARK   16  A    between atoms: C_17  and  C_18
REMARK   17  A    between atoms: C_17  and  C_19
REMARK   18  A    between atoms: C_21  and  C_22
REMARK   19  A    between atoms: C_22  and  C_23
REMARK   20  A    between atoms: C_23  and  C_24
REMARK   21  A    between atoms: C_23  and  C_25
REMARK   22  A    between atoms: C_25  and  O_26
REMARK   23  A    between atoms: C_25  and  C_28
REMARK   24  A    between atoms: O_26  and  C_27
REMARK   25  A    between atoms: C_28  and  C_29
REMARK   26  A    between atoms: C_29  and  O_30
REMARK   27  A    between atoms: C_29  and  C_35
REMARK   28  A    between atoms: O_30  and  C_31
REMARK   29  A    between atoms: C_31  and  C_32
REMARK   30  A    between atoms: C_32  and  C_33
REMARK   31  A    between atoms: C_35  and  C_36
REMARK   32  A    between atoms: C_35  and  C_37
REMARK                            x       y       z     vdW  Elec       q    Type
REMARK                         _______ _______ _______ _____ _____    ______ ____
ROOT
ATOM      1  C   UNL     1     150.200 165.839 192.392  0.00  0.00    +0.108 C 
ATOM      2  H   UNL     1     150.890 166.676 192.202  0.00  0.00    +0.074 HD
ENDROOT
BRANCH   1   3
ATOM      3  C   UNL     1     148.807 166.442 192.636  0.00  0.00    -0.015 C 
ATOM      4  H   UNL     1     148.373 166.012 193.540  0.00  0.00    +0.030 HD
ATOM      5  H   UNL     1     148.121 166.236 191.809  0.00  0.00    +0.030 HD
BRANCH   3   6
ATOM      6  C   UNL     1     148.889 167.971 192.802  0.00  0.00    -0.045 C 
ATOM      7  H   UNL     1     147.903 168.388 193.050  0.00  0.00    +0.027 HD
ATOM      8  H   UNL     1     149.535 168.172 193.668  0.00  0.00    +0.027 HD
BRANCH   6   9
ATOM      9  C   UNL     1     149.464 168.684 191.550  0.00  0.00    -0.017 C 
ATOM     10  H   UNL     1     149.669 167.922 190.794  0.00  0.00    +0.032 HD
BRANCH   9  11
ATOM     11  C   UNL     1     150.801 169.336 191.934  0.00  0.00    -0.060 C 
ATOM     12  H   UNL     1     151.076 170.094 191.194  0.00  0.00    +0.023 HD
ATOM     13  H   UNL     1     151.614 168.603 191.974  0.00  0.00    +0.023 HD
ATOM     14  H   UNL     1     150.755 169.838 192.902  0.00  0.00    +0.023 HD
ENDBRANCH   9  11
BRANCH   9  15
ATOM     15  C   UNL     1     148.445 169.720 190.990  0.00  0.00    +0.064 C 
ATOM     16  H   UNL     1     148.428 169.632 189.902  0.00  0.00    +0.060 HD
BRANCH  15  17
ATOM     17  C   UNL     1     148.748 171.183 191.388  0.00  0.00    +0.011 C 
ATOM     18  H   UNL     1     149.012 171.738 190.482  0.00  0.00    +0.033 HD
ATOM     19  H   UNL     1     149.670 171.229 191.977  0.00  0.00    +0.033 HD
BRANCH  17  20
ATOM     20  C   UNL     1     147.656 171.934 192.173  0.00  0.00    +0.108 C 
ATOM     21  H   UNL     1     146.778 171.307 192.358  0.00  0.00    +0.074 HD
BRANCH  20  22
ATOM     22  C   UNL     1     148.131 172.544 193.523  0.00  0.00    -0.009 C 
ATOM     23  H   UNL     1     147.974 171.797 194.314  0.00  0.00    +0.033 HD
BRANCH  22  24
ATOM     24  C   UNL     1     147.402 173.822 193.927  0.00  0.00    -0.059 C 
ATOM     25  H   UNL     1     147.167 173.829 194.994  0.00  0.00    +0.023 HD
ATOM     26  H   UNL     1     148.000 174.703 193.686  0.00  0.00    +0.023 HD
ATOM     27  H   UNL     1     146.459 173.922 193.379  0.00  0.00    +0.023 HD
ENDBRANCH  22  24
BRANCH  22  28
ATOM     28  C   UNL     1     149.644 172.815 193.480  0.00  0.00    -0.059 C 
ATOM     29  H   UNL     1     149.859 173.744 192.945  0.00  0.00    +0.023 HD
ATOM     30  H   UNL     1     150.051 172.903 194.490  0.00  0.00    +0.023 HD
ATOM     31  H   UNL     1     150.184 172.006 192.981  0.00  0.00    +0.023 HD
ENDBRANCH  22  28
ENDBRANCH  20  22
BRANCH  20  32
ATOM     32  O   UNL     1     147.263 173.074 191.358  0.00  0.00    -0.461 OA
BRANCH  32  33
ATOM     33  C   UNL     1     146.225 172.883 190.499  0.00  0.00    +0.307 C 
ATOM     34  O   UNL     1     146.280 172.982 189.281  0.00  0.00    -0.251 OA
BRANCH  33  35
ATOM     35  C   UNL     1     144.970 172.540 191.264  0.00  0.00    +0.042 C 
ATOM     36  H   UNL     1     144.311 171.965 190.606  0.00  0.00    +0.037 HD
ATOM     37  H   UNL     1     145.232 171.891 192.107  0.00  0.00    +0.037 HD
BRANCH  35  38
ATOM     38  C   UNL     1     144.257 173.791 191.738  0.00  0.00    -0.055 C 
ATOM     39  H   UNL     1     143.563 174.152 190.971  0.00  0.00    +0.023 HD
ATOM     40  H   UNL     1     143.678 173.603 192.649  0.00  0.00    +0.023 HD
ATOM     41  H   UNL     1     144.974 174.593 191.961  0.00  0.00    +0.023 HD
ENDBRANCH  35  38
ENDBRANCH  33  35
ENDBRANCH  32  33
ENDBRANCH  20  32
ENDBRANCH  17  20
ENDBRANCH  15  17
BRANCH  15  42
ATOM     42  O   UNL     1     147.146 169.338 191.484  0.00  0.00    -0.379 OA
BRANCH  42  43
ATOM     43  C   UNL     1     146.219 168.960 190.482  0.00  0.00    +0.037 C 
ATOM     44  H   UNL     1     146.461 169.512 189.567  0.00  0.00    +0.052 HD
ATOM     45  H   UNL     1     146.292 167.892 190.254  0.00  0.00    +0.052 HD
ATOM     46  H   UNL     1     145.197 169.218 190.780  0.00  0.00    +0.052 HD
ENDBRANCH  42  43
ENDBRANCH  15  42
ENDBRANCH   9  15
ENDBRANCH   6   9
ENDBRANCH   3   6
ENDBRANCH   1   3
BRANCH   1  47
ATOM     47  C   UNL     1     150.340 164.849 191.204  0.00  0.00    +0.020 C 
ATOM     48  H   UNL     1     149.307 164.535 190.992  0.00  0.00    +0.036 HD
BRANCH  47  49
ATOM     49  C   UNL     1     151.020 163.538 191.610  0.00  0.00    -0.057 C 
ATOM     50  H   UNL     1     150.311 162.719 191.740  0.00  0.00    +0.023 HD
ATOM     51  H   UNL     1     151.578 163.651 192.548  0.00  0.00    +0.023 HD
ATOM     52  H   UNL     1     151.740 163.227 190.844  0.00  0.00    +0.023 HD
ENDBRANCH  47  49
BRANCH  47  53
ATOM     53  C   UNL     1     150.825 165.446 189.848  0.00  0.00    +0.070 C 
ATOM     54  H   UNL     1     150.163 166.284 189.601  0.00  0.00    +0.061 HD
BRANCH  53  55
ATOM     55  C   UNL     1     152.273 166.015 189.775  0.00  0.00    +0.002 C 
ATOM     56  H   UNL     1     152.588 166.292 190.784  0.00  0.00    +0.037 HD
BRANCH  55  58
ATOM     57  C   UNL     1     154.597 165.131 189.408  0.00  0.00    -0.005 C 
ATOM     58  C   UNL     1     153.282 165.070 189.158  0.00  0.00    -0.065 C 
ATOM     59  H   UNL     1     154.973 165.899 190.086  0.00  0.00    +0.078 HD
ATOM     60  H   UNL     1     152.867 164.322 188.487  0.00  0.00    +0.059 HD
BRANCH  57  62
ATOM     61  C   UNL     1     156.545 164.827 188.039  0.00  0.00    +0.206 C 
ATOM     62  N   UNL     1     155.577 164.296 188.890  0.00  0.00    -0.281 N 
ATOM     63  O   UNL     1     156.625 165.989 187.659  0.00  0.00    -0.279 OA
ATOM     64  H   UNL     1     157.283 164.078 187.711  0.00  0.00    +0.126 HD
BRANCH  62  65
ATOM     65  C   UNL     1     155.657 162.877 189.226  0.00  0.00    +0.016 C 
ATOM     66  H   UNL     1     154.714 162.546 189.671  0.00  0.00    +0.047 HD
ATOM     67  H   UNL     1     155.773 162.302 188.297  0.00  0.00    +0.047 HD
BRANCH  65  68
ATOM     68  C   UNL     1     156.834 162.562 190.136  0.00  0.00    -0.049 C 
ATOM     69  H   UNL     1     157.425 163.466 190.318  0.00  0.00    +0.024 HD
ATOM     70  H   UNL     1     156.494 162.167 191.094  0.00  0.00    +0.024 HD
ATOM     71  H   UNL     1     157.502 161.819 189.686  0.00  0.00    +0.024 HD
ENDBRANCH  65  68
ENDBRANCH  62  65
ENDBRANCH  57  62
ENDBRANCH  55  58
BRANCH  55  72
ATOM     72  C   UNL     1     152.283 167.318 188.959  0.00  0.00    -0.057 C 
ATOM     73  H   UNL     1     152.726 167.181 187.967  0.00  0.00    +0.024 HD
ATOM     74  H   UNL     1     151.263 167.695 188.820  0.00  0.00    +0.024 HD
ATOM     75  H   UNL     1     152.855 168.099 189.473  0.00  0.00    +0.024 HD
ENDBRANCH  55  72
ENDBRANCH  53  55
BRANCH  53  76
ATOM     76  O   UNL     1     150.698 164.463 188.797  0.00  0.00    -0.379 OA
BRANCH  76  77
ATOM     77  C   UNL     1     149.626 164.718 187.897  0.00  0.00    +0.037 C 
ATOM     78  H   UNL     1     148.981 165.514 188.285  0.00  0.00    +0.052 HD
ATOM     79  H   UNL     1     150.053 165.052 186.949  0.00  0.00    +0.052 HD
ATOM     80  H   UNL     1     149.036 163.814 187.713  0.00  0.00    +0.052 HD
ENDBRANCH  76  77
ENDBRANCH  53  76
ENDBRANCH  47  53
ENDBRANCH   1  47
BRANCH   1  81
ATOM     81  O   UNL     1     150.572 165.193 193.630  0.00  0.00    -0.461 OA
BRANCH  81  82
ATOM     82  C   UNL     1     151.433 165.852 194.451  0.00  0.00    +0.310 C 
ATOM     83  O   UNL     1     152.327 166.593 194.069  0.00  0.00    -0.251 OA
BRANCH  82  84
ATOM     84  C   UNL     1     151.144 165.572 195.916  0.00  0.00    +0.051 C 
ATOM     85  H   UNL     1     151.916 166.103 196.491  0.00  0.00    +0.041 HD
BRANCH  84  86
ATOM     86  C   UNL     1     151.239 164.092 196.287  0.00  0.00    -0.053 C 
ATOM     87  H   UNL     1     150.405 163.512 195.873  0.00  0.00    +0.024 HD
ATOM     88  H   UNL     1     151.229 163.963 197.375  0.00  0.00    +0.024 HD
ATOM     89  H   UNL     1     152.168 163.655 195.905  0.00  0.00    +0.024 HD
ENDBRANCH  84  86
BRANCH  84  90
ATOM     90  C   UNL     1     149.772 166.137 196.278  0.00  0.00    -0.053 C 
ATOM     91  H   UNL     1     149.499 166.977 195.628  0.00  0.00    +0.024 HD
ATOM     92  H   UNL     1     149.765 166.504 197.312  0.00  0.00    +0.024 HD
ATOM     93  H   UNL     1     148.999 165.362 196.196  0.00  0.00    +0.024 HD
ENDBRANCH  84  90
ENDBRANCH  82  84
ENDBRANCH  81  82
ENDBRANCH   1  81
TORSDOF 32
ENDMDL
MODEL 8
REMARK VINA RESULT:      -5.2      2.036      3.411
REMARK  Name = 2c_conf2
REMARK  32 active torsions:
REMARK  status: ('A' for Active; 'I' for Inactive)
REMARK    1  A    between atoms: N_2  and  C_3
REMARK    2  A    between atoms: N_2  and  C_5
REMARK    3  A    between atoms: C_3  and  C_4
REMARK    4  A    between atoms: C_6  and  C_7
REMARK    5  A    between atoms: C_7  and  C_8
REMARK    6  A    between atoms: C_7  and  C_9
REMARK    7  A    between atoms: C_9  and  O_10
REMARK    8  A    between atoms: C_9  and  C_12
REMARK    9  A    between atoms: O_10  and  C_11
REMARK   10  A    between atoms: C_12  and  C_13
REMARK   11  A    between atoms: C_12  and  C_14
REMARK   12  A    between atoms: C_14  and  O_15
REMARK   13  A    between atoms: C_14  and  C_21
REMARK   14  A    between atoms: O_15  and  C_16
REMARK   15  A    between atoms: C_16  and  C_17
REMARK   16  A    between atoms: C_17  and  C_18
REMARK   17  A    between atoms: C_17  and  C_19
REMARK   18  A    between atoms: C_21  and  C_22
REMARK   19  A    between atoms: C_22  and  C_23
REMARK   20  A    between atoms: C_23  and  C_24
REMARK   21  A    between atoms: C_23  and  C_25
REMARK   22  A    between atoms: C_25  and  O_26
REMARK   23  A    between atoms: C_25  and  C_28
REMARK   24  A    between atoms: O_26  and  C_27
REMARK   25  A    between atoms: C_28  and  C_29
REMARK   26  A    between atoms: C_29  and  O_30
REMARK   27  A    between atoms: C_29  and  C_35
REMARK   28  A    between atoms: O_30  and  C_31
REMARK   29  A    between atoms: C_31  and  C_32
REMARK   30  A    between atoms: C_32  and  C_33
REMARK   31  A    between atoms: C_35  and  C_36
REMARK   32  A    between atoms: C_35  and  C_37
REMARK                            x       y       z     vdW  Elec       q    Type
REMARK                         _______ _______ _______ _____ _____    ______ ____
ROOT
ATOM      1  C   UNL     1     147.301 170.589 191.506  0.00  0.00    +0.108 C 
ATOM      2  H   UNL     1     146.883 170.975 192.448  0.00  0.00    +0.074 HD
ENDROOT
BRANCH   1   3
ATOM      3  C   UNL     1     148.037 169.280 191.835  0.00  0.00    -0.015 C 
ATOM      4  H   UNL     1     147.457 168.430 191.472  0.00  0.00    +0.030 HD
ATOM      5  H   UNL     1     148.178 169.149 192.912  0.00  0.00    +0.030 HD
BRANCH   3   6
ATOM      6  C   UNL     1     149.429 169.250 191.176  0.00  0.00    -0.045 C 
ATOM      7  H   UNL     1     149.464 168.493 190.380  0.00  0.00    +0.027 HD
ATOM      8  H   UNL     1     149.580 170.222 190.686  0.00  0.00    +0.027 HD
BRANCH   6   9
ATOM      9  C   UNL     1     150.572 169.000 192.194  0.00  0.00    -0.017 C 
ATOM     10  H   UNL     1     150.163 169.134 193.199  0.00  0.00    +0.032 HD
BRANCH   9  11
ATOM     11  C   UNL     1     151.655 170.069 191.982  0.00  0.00    -0.060 C 
ATOM     12  H   UNL     1     151.260 171.059 192.230  0.00  0.00    +0.023 HD
ATOM     13  H   UNL     1     151.997 170.100 190.942  0.00  0.00    +0.023 HD
ATOM     14  H   UNL     1     152.528 169.906 192.617  0.00  0.00    +0.023 HD
ENDBRANCH   9  11
BRANCH   9  15
ATOM     15  C   UNL     1     151.136 167.555 192.046  0.00  0.00    +0.064 C 
ATOM     16  H   UNL     1     150.343 166.914 191.657  0.00  0.00    +0.060 HD
BRANCH  15  17
ATOM     17  C   UNL     1     151.692 166.957 193.358  0.00  0.00    +0.011 C 
ATOM     18  H   UNL     1     151.919 167.782 194.042  0.00  0.00    +0.033 HD
ATOM     19  H   UNL     1     152.677 166.513 193.181  0.00  0.00    +0.033 HD
BRANCH  17  20
ATOM     20  C   UNL     1     150.825 165.901 194.068  0.00  0.00    +0.108 C 
ATOM     21  H   UNL     1     150.828 164.943 193.539  0.00  0.00    +0.074 HD
BRANCH  20  22
ATOM     22  C   UNL     1     151.196 165.653 195.558  0.00  0.00    -0.009 C 
ATOM     23  H   UNL     1     152.171 166.120 195.754  0.00  0.00    +0.033 HD
BRANCH  22  24
ATOM     24  C   UNL     1     151.291 164.179 195.945  0.00  0.00    -0.059 C 
ATOM     25  H   UNL     1     151.158 163.528 195.079  0.00  0.00    +0.023 HD
ATOM     26  H   UNL     1     152.254 163.963 196.413  0.00  0.00    +0.023 HD
ATOM     27  H   UNL     1     150.520 163.919 196.678  0.00  0.00    +0.023 HD
ENDBRANCH  22  24
BRANCH  22  28
ATOM     28  C   UNL     1     150.187 166.356 196.481  0.00  0.00    -0.059 C 
ATOM     29  H   UNL     1     150.670 167.153 197.054  0.00  0.00    +0.023 HD
ATOM     30  H   UNL     1     149.374 166.801 195.901  0.00  0.00    +0.023 HD
ATOM     31  H   UNL     1     149.736 165.657 197.190  0.00  0.00    +0.023 HD
ENDBRANCH  22  28
ENDBRANCH  20  22
BRANCH  20  32
ATOM     32  O   UNL     1     149.466 166.424 194.096  0.00  0.00    -0.461 OA
BRANCH  32  33
ATOM     33  C   UNL     1     148.476 165.576 193.706  0.00  0.00    +0.307 C 
ATOM     34  O   UNL     1     148.627 164.566 193.033  0.00  0.00    -0.251 OA
BRANCH  33  35
ATOM     35  C   UNL     1     147.141 166.064 194.212  0.00  0.00    +0.042 C 
ATOM     36  H   UNL     1     146.743 165.320 194.908  0.00  0.00    +0.037 HD
ATOM     37  H   UNL     1     147.291 166.990 194.780  0.00  0.00    +0.037 HD
BRANCH  35  38
ATOM     38  C   UNL     1     146.165 166.274 193.072  0.00  0.00    -0.055 C 
ATOM     39  H   UNL     1     145.268 166.794 193.424  0.00  0.00    +0.023 HD
ATOM     40  H   UNL     1     146.607 166.876 192.271  0.00  0.00    +0.023 HD
ATOM     41  H   UNL     1     145.859 165.313 192.634  0.00  0.00    +0.023 HD
ENDBRANCH  35  38
ENDBRANCH  33  35
ENDBRANCH  32  33
ENDBRANCH  20  32
ENDBRANCH  17  20
ENDBRANCH  15  17
BRANCH  15  42
ATOM     42  O   UNL     1     152.182 167.615 191.054  0.00  0.00    -0.379 OA
BRANCH  42  43
ATOM     43  C   UNL     1     152.585 166.358 190.542  0.00  0.00    +0.037 C 
ATOM     44  H   UNL     1     152.887 165.727 191.385  0.00  0.00    +0.052 HD
ATOM     45  H   UNL     1     151.759 165.853 190.030  0.00  0.00    +0.052 HD
ATOM     46  H   UNL     1     153.442 166.469 189.869  0.00  0.00    +0.052 HD
ENDBRANCH  42  43
ENDBRANCH  15  42
ENDBRANCH   9  15
ENDBRANCH   6   9
ENDBRANCH   3   6
ENDBRANCH   1   3
BRANCH   1  47
ATOM     47  C   UNL     1     146.131 170.501 190.487  0.00  0.00    +0.020 C 
ATOM     48  H   UNL     1     146.021 169.423 190.297  0.00  0.00    +0.036 HD
BRANCH  47  49
ATOM     49  C   UNL     1     146.511 171.055 189.111  0.00  0.00    -0.057 C 
ATOM     50  H   UNL     1     145.684 171.019 188.399  0.00  0.00    +0.023 HD
ATOM     51  H   UNL     1     147.352 170.502 188.675  0.00  0.00    +0.023 HD
ATOM     52  H   UNL     1     146.824 172.103 189.192  0.00  0.00    +0.023 HD
ENDBRANCH  47  49
BRANCH  47  53
ATOM     53  C   UNL     1     144.722 170.928 191.000  0.00  0.00    +0.070 C 
ATOM     54  H   UNL     1     144.764 170.955 192.094  0.00  0.00    +0.061 HD
BRANCH  53  55
ATOM     55  C   UNL     1     144.174 172.318 190.562  0.00  0.00    +0.002 C 
ATOM     56  H   UNL     1     144.476 172.500 189.528  0.00  0.00    +0.037 HD
BRANCH  55  58
ATOM     57  C   UNL     1     142.091 173.335 191.533  0.00  0.00    -0.005 C 
ATOM     58  C   UNL     1     142.673 172.465 190.696  0.00  0.00    -0.065 C 
ATOM     59  H   UNL     1     142.718 173.971 192.158  0.00  0.00    +0.078 HD
ATOM     60  H   UNL     1     142.085 171.811 190.058  0.00  0.00    +0.059 HD
BRANCH  57  62
ATOM     61  C   UNL     1     140.185 173.476 192.985  0.00  0.00    +0.206 C 
ATOM     62  N   UNL     1     140.728 173.533 191.702  0.00  0.00    -0.281 N 
ATOM     63  O   UNL     1     140.790 173.240 194.025  0.00  0.00    -0.279 OA
ATOM     64  H   UNL     1     139.101 173.673 193.000  0.00  0.00    +0.126 HD
BRANCH  62  65
ATOM     65  C   UNL     1     139.833 173.832 190.587  0.00  0.00    +0.016 C 
ATOM     66  H   UNL     1     139.879 173.027 189.848  0.00  0.00    +0.047 HD
ATOM     67  H   UNL     1     138.800 173.844 190.959  0.00  0.00    +0.047 HD
BRANCH  65  68
ATOM     68  C   UNL     1     140.131 175.181 189.950  0.00  0.00    -0.049 C 
ATOM     69  H   UNL     1     139.291 175.866 190.105  0.00  0.00    +0.024 HD
ATOM     70  H   UNL     1     141.030 175.625 190.378  0.00  0.00    +0.024 HD
ATOM     71  H   UNL     1     140.285 175.088 188.869  0.00  0.00    +0.024 HD
ENDBRANCH  65  68
ENDBRANCH  62  65
ENDBRANCH  57  62
ENDBRANCH  55  58
BRANCH  55  72
ATOM     72  C   UNL     1     144.835 173.427 191.396  0.00  0.00    -0.057 C 
ATOM     73  H   UNL     1     144.232 174.341 191.420  0.00  0.00    +0.024 HD
ATOM     74  H   UNL     1     144.983 173.098 192.431  0.00  0.00    +0.024 HD
ATOM     75  H   UNL     1     145.820 173.689 190.990  0.00  0.00    +0.024 HD
ENDBRANCH  55  72
ENDBRANCH  53  55
BRANCH  53  76
ATOM     76  O   UNL     1     143.736 169.941 190.624  0.00  0.00    -0.379 OA
BRANCH  76  77
ATOM     77  C   UNL     1     144.212 168.601 190.681  0.00  0.00    +0.037 C 
ATOM     78  H   UNL     1     144.193 168.232 191.712  0.00  0.00    +0.052 HD
ATOM     79  H   UNL     1     143.546 167.979 190.079  0.00  0.00    +0.052 HD
ATOM     80  H   UNL     1     145.225 168.520 190.272  0.00  0.00    +0.052 HD
ENDBRANCH  76  77
ENDBRANCH  53  76
ENDBRANCH  47  53
ENDBRANCH   1  47
BRANCH   1  81
ATOM     81  O   UNL     1     148.314 171.503 191.030  0.00  0.00    -0.461 OA
BRANCH  81  82
ATOM     82  C   UNL     1     148.388 172.725 191.621  0.00  0.00    +0.310 C 
ATOM     83  O   UNL     1     148.454 173.786 191.017  0.00  0.00    -0.251 OA
BRANCH  82  84
ATOM     84  C   UNL     1     148.364 172.622 193.137  0.00  0.00    +0.051 C 
ATOM     85  H   UNL     1     147.963 171.626 193.373  0.00  0.00    +0.041 HD
BRANCH  84  86
ATOM     86  C   UNL     1     147.453 173.650 193.806  0.00  0.00    -0.053 C 
ATOM     87  H   UNL     1     148.023 174.382 194.393  0.00  0.00    +0.024 HD
ATOM     88  H   UNL     1     146.743 173.159 194.483  0.00  0.00    +0.024 HD
ATOM     89  H   UNL     1     146.875 174.202 193.058  0.00  0.00    +0.024 HD
ENDBRANCH  84  86
BRANCH  84  90
ATOM     90  C   UNL     1     149.790 172.728 193.673  0.00  0.00    -0.053 C 
ATOM     91  H   UNL     1     149.919 172.141 194.591  0.00  0.00    +0.024 HD
ATOM     92  H   UNL     1     150.038 173.770 193.912  0.00  0.00    +0.024 HD
ATOM     93  H   UNL     1     150.513 172.378 192.925  0.00  0.00    +0.024 HD
ENDBRANCH  84  90
ENDBRANCH  82  84
ENDBRANCH  81  82
ENDBRANCH   1  81
TORSDOF 32
ENDMDL
MODEL 9
REMARK VINA RESULT:      -5.1      2.246      3.972
REMARK  Name = 2c_conf2
REMARK  32 active torsions:
REMARK  status: ('A' for Active; 'I' for Inactive)
REMARK    1  A    between atoms: N_2  and  C_3
REMARK    2  A    between atoms: N_2  and  C_5
REMARK    3  A    between atoms: C_3  and  C_4
REMARK    4  A    between atoms: C_6  and  C_7
REMARK    5  A    between atoms: C_7  and  C_8
REMARK    6  A    between atoms: C_7  and  C_9
REMARK    7  A    between atoms: C_9  and  O_10
REMARK    8  A    between atoms: C_9  and  C_12
REMARK    9  A    between atoms: O_10  and  C_11
REMARK   10  A    between atoms: C_12  and  C_13
REMARK   11  A    between atoms: C_12  and  C_14
REMARK   12  A    between atoms: C_14  and  O_15
REMARK   13  A    between atoms: C_14  and  C_21
REMARK   14  A    between atoms: O_15  and  C_16
REMARK   15  A    between atoms: C_16  and  C_17
REMARK   16  A    between atoms: C_17  and  C_18
REMARK   17  A    between atoms: C_17  and  C_19
REMARK   18  A    between atoms: C_21  and  C_22
REMARK   19  A    between atoms: C_22  and  C_23
REMARK   20  A    between atoms: C_23  and  C_24
REMARK   21  A    between atoms: C_23  and  C_25
REMARK   22  A    between atoms: C_25  and  O_26
REMARK   23  A    between atoms: C_25  and  C_28
REMARK   24  A    between atoms: O_26  and  C_27
REMARK   25  A    between atoms: C_28  and  C_29
REMARK   26  A    between atoms: C_29  and  O_30
REMARK   27  A    between atoms: C_29  and  C_35
REMARK   28  A    between atoms: O_30  and  C_31
REMARK   29  A    between atoms: C_31  and  C_32
REMARK   30  A    between atoms: C_32  and  C_33
REMARK   31  A    between atoms: C_35  and  C_36
REMARK   32  A    between atoms: C_35  and  C_37
REMARK                            x       y       z     vdW  Elec       q    Type
REMARK                         _______ _______ _______ _____ _____    ______ ____
ROOT
ATOM      1  C   UNL     1     146.883 171.396 191.118  0.00  0.00    +0.108 C 
ATOM      2  H   UNL     1     146.308 170.935 191.935  0.00  0.00    +0.074 HD
ENDROOT
BRANCH   1   3
ATOM      3  C   UNL     1     148.330 170.889 191.234  0.00  0.00    -0.015 C 
ATOM      4  H   UNL     1     148.978 171.699 191.573  0.00  0.00    +0.030 HD
ATOM      5  H   UNL     1     148.718 170.534 190.275  0.00  0.00    +0.030 HD
BRANCH   3   6
ATOM      6  C   UNL     1     148.427 169.723 192.236  0.00  0.00    -0.045 C 
ATOM      7  H   UNL     1     148.128 170.050 193.242  0.00  0.00    +0.027 HD
ATOM      8  H   UNL     1     147.694 168.965 191.927  0.00  0.00    +0.027 HD
BRANCH   6   9
ATOM      9  C   UNL     1     149.841 169.087 192.286  0.00  0.00    -0.017 C 
ATOM     10  H   UNL     1     150.125 168.979 193.336  0.00  0.00    +0.032 HD
BRANCH   9  11
ATOM     11  C   UNL     1     150.834 170.058 191.630  0.00  0.00    -0.060 C 
ATOM     12  H   UNL     1     150.590 171.089 191.905  0.00  0.00    +0.023 HD
ATOM     13  H   UNL     1     150.807 169.991 190.537  0.00  0.00    +0.023 HD
ATOM     14  H   UNL     1     151.863 169.878 191.950  0.00  0.00    +0.023 HD
ENDBRANCH   9  11
BRANCH   9  15
ATOM     15  C   UNL     1     149.842 167.691 191.595  0.00  0.00    +0.064 C 
ATOM     16  H   UNL     1     149.528 167.820 190.557  0.00  0.00    +0.060 HD
BRANCH  15  17
ATOM     17  C   UNL     1     148.937 166.645 192.286  0.00  0.00    +0.011 C 
ATOM     18  H   UNL     1     149.030 165.698 191.742  0.00  0.00    +0.033 HD
ATOM     19  H   UNL     1     147.884 166.904 192.140  0.00  0.00    +0.033 HD
BRANCH  17  20
ATOM     20  C   UNL     1     149.158 166.415 193.793  0.00  0.00    +0.108 C 
ATOM     21  H   UNL     1     150.001 166.997 194.178  0.00  0.00    +0.074 HD
BRANCH  20  22
ATOM     22  C   UNL     1     147.911 166.692 194.680  0.00  0.00    -0.009 C 
ATOM     23  H   UNL     1     147.703 167.771 194.656  0.00  0.00    +0.033 HD
BRANCH  22  24
ATOM     24  C   UNL     1     148.070 166.272 196.139  0.00  0.00    -0.059 C 
ATOM     25  H   UNL     1     147.832 167.092 196.820  0.00  0.00    +0.023 HD
ATOM     26  H   UNL     1     147.431 165.418 196.368  0.00  0.00    +0.023 HD
ATOM     27  H   UNL     1     149.100 165.960 196.343  0.00  0.00    +0.023 HD
ENDBRANCH  22  24
BRANCH  22  28
ATOM     28  C   UNL     1     146.672 166.001 194.086  0.00  0.00    -0.059 C 
ATOM     29  H   UNL     1     145.899 166.733 193.835  0.00  0.00    +0.023 HD
ATOM     30  H   UNL     1     146.932 165.456 193.174  0.00  0.00    +0.023 HD
ATOM     31  H   UNL     1     146.240 165.280 194.784  0.00  0.00    +0.023 HD
ENDBRANCH  22  28
ENDBRANCH  20  22
BRANCH  20  32
ATOM     32  O   UNL     1     149.440 164.998 193.965  0.00  0.00    -0.461 OA
BRANCH  32  33
ATOM     33  C   UNL     1     150.745 164.619 193.883  0.00  0.00    +0.307 C 
ATOM     34  O   UNL     1     151.255 164.018 192.948  0.00  0.00    -0.251 OA
BRANCH  33  35
ATOM     35  C   UNL     1     151.489 165.035 195.128  0.00  0.00    +0.042 C 
ATOM     36  H   UNL     1     152.561 164.999 194.917  0.00  0.00    +0.037 HD
ATOM     37  H   UNL     1     151.240 166.077 195.361  0.00  0.00    +0.037 HD
BRANCH  35  38
ATOM     38  C   UNL     1     151.164 164.121 196.293  0.00  0.00    -0.055 C 
ATOM     39  H   UNL     1     151.197 163.072 195.979  0.00  0.00    +0.023 HD
ATOM     40  H   UNL     1     151.879 164.246 197.113  0.00  0.00    +0.023 HD
ATOM     41  H   UNL     1     150.162 164.332 196.692  0.00  0.00    +0.023 HD
ENDBRANCH  35  38
ENDBRANCH  33  35
ENDBRANCH  32  33
ENDBRANCH  20  32
ENDBRANCH  17  20
ENDBRANCH  15  17
BRANCH  15  42
ATOM     42  O   UNL     1     151.208 167.229 191.590  0.00  0.00    -0.379 OA
BRANCH  42  43
ATOM     43  C   UNL     1     151.588 166.517 190.425  0.00  0.00    +0.037 C 
ATOM     44  H   UNL     1     150.709 165.980 190.052  0.00  0.00    +0.052 HD
ATOM     45  H   UNL     1     151.921 167.197 189.635  0.00  0.00    +0.052 HD
ATOM     46  H   UNL     1     152.369 165.784 190.655  0.00  0.00    +0.052 HD
ENDBRANCH  42  43
ENDBRANCH  15  42
ENDBRANCH   9  15
ENDBRANCH   6   9
ENDBRANCH   3   6
ENDBRANCH   1   3
BRANCH   1  47
ATOM     47  C   UNL     1     146.133 171.084 189.794  0.00  0.00    +0.020 C 
ATOM     48  H   UNL     1     146.904 170.642 189.146  0.00  0.00    +0.036 HD
BRANCH  47  49
ATOM     49  C   UNL     1     145.732 172.352 189.035  0.00  0.00    -0.057 C 
ATOM     50  H   UNL     1     145.830 172.244 187.953  0.00  0.00    +0.023 HD
ATOM     51  H   UNL     1     146.339 173.212 189.343  0.00  0.00    +0.023 HD
ATOM     52  H   UNL     1     144.686 172.607 189.242  0.00  0.00    +0.023 HD
ENDBRANCH  47  49
BRANCH  47  53
ATOM     53  C   UNL     1     145.032 169.981 189.857  0.00  0.00    +0.070 C 
ATOM     54  H   UNL     1     144.284 170.219 189.093  0.00  0.00    +0.061 HD
BRANCH  53  55
ATOM     55  C   UNL     1     145.456 168.507 189.591  0.00  0.00    +0.002 C 
ATOM     56  H   UNL     1     144.688 168.030 188.978  0.00  0.00    +0.037 HD
BRANCH  55  58
ATOM     57  C   UNL     1     146.971 167.999 187.650  0.00  0.00    -0.005 C 
ATOM     58  C   UNL     1     146.811 168.359 188.932  0.00  0.00    -0.065 C 
ATOM     59  H   UNL     1     146.089 167.796 187.043  0.00  0.00    +0.078 HD
ATOM     60  H   UNL     1     147.664 168.569 189.573  0.00  0.00    +0.059 HD
BRANCH  57  62
ATOM     61  C   UNL     1     148.511 168.766 185.977  0.00  0.00    +0.206 C 
ATOM     62  N   UNL     1     148.176 167.855 186.977  0.00  0.00    -0.281 N 
ATOM     63  O   UNL     1     147.830 169.709 185.589  0.00  0.00    -0.279 OA
ATOM     64  H   UNL     1     149.498 168.567 185.530  0.00  0.00    +0.126 HD
BRANCH  62  65
ATOM     65  C   UNL     1     149.131 166.795 187.293  0.00  0.00    +0.016 C 
ATOM     66  H   UNL     1     149.064 166.540 188.355  0.00  0.00    +0.047 HD
ATOM     67  H   UNL     1     148.844 165.889 186.744  0.00  0.00    +0.047 HD
BRANCH  65  68
ATOM     68  C   UNL     1     150.554 167.164 186.904  0.00  0.00    -0.049 C 
ATOM     69  H   UNL     1     150.708 167.001 185.833  0.00  0.00    +0.024 HD
ATOM     70  H   UNL     1     150.765 168.208 187.134  0.00  0.00    +0.024 HD
ATOM     71  H   UNL     1     151.287 166.548 187.439  0.00  0.00    +0.024 HD
ENDBRANCH  65  68
ENDBRANCH  62  65
ENDBRANCH  57  62
ENDBRANCH  55  58
BRANCH  55  72
ATOM     72  C   UNL     1     145.485 167.724 190.914  0.00  0.00    -0.057 C 
ATOM     73  H   UNL     1     145.724 168.366 191.769  0.00  0.00    +0.024 HD
ATOM     74  H   UNL     1     144.514 167.256 191.108  0.00  0.00    +0.024 HD
ATOM     75  H   UNL     1     146.235 166.924 190.880  0.00  0.00    +0.024 HD
ENDBRANCH  55  72
ENDBRANCH  53  55
BRANCH  53  76
ATOM     76  O   UNL     1     144.371 170.012 191.142  0.00  0.00    -0.379 OA
BRANCH  76  77
ATOM     77  C   UNL     1     143.083 170.616 191.112  0.00  0.00    +0.037 C 
ATOM     78  H   UNL     1     142.890 171.058 190.128  0.00  0.00    +0.052 HD
ATOM     79  H   UNL     1     142.340 169.836 191.291  0.00  0.00    +0.052 HD
ATOM     80  H   UNL     1     142.982 171.378 191.892  0.00  0.00    +0.052 HD
ENDBRANCH  76  77
ENDBRANCH  53  76
ENDBRANCH  47  53
ENDBRANCH   1  47
BRANCH   1  81
ATOM     81  O   UNL     1     146.947 172.824 191.334  0.00  0.00    -0.461 OA
BRANCH  81  82
ATOM     82  C   UNL     1     148.174 173.379 191.516  0.00  0.00    +0.310 C 
ATOM     83  O   UNL     1     148.999 173.548 190.628  0.00  0.00    -0.251 OA
BRANCH  82  84
ATOM     84  C   UNL     1     148.403 173.784 192.962  0.00  0.00    +0.051 C 
ATOM     85  H   UNL     1     148.728 174.834 192.941  0.00  0.00    +0.041 HD
BRANCH  84  86
ATOM     86  C   UNL     1     149.503 172.982 193.657  0.00  0.00    -0.053 C 
ATOM     87  H   UNL     1     150.403 173.586 193.829  0.00  0.00    +0.024 HD
ATOM     88  H   UNL     1     149.793 172.115 193.052  0.00  0.00    +0.024 HD
ATOM     89  H   UNL     1     149.160 172.613 194.629  0.00  0.00    +0.024 HD
ENDBRANCH  84  86
BRANCH  84  90
ATOM     90  C   UNL     1     147.087 173.682 193.731  0.00  0.00    -0.053 C 
ATOM     91  H   UNL     1     147.245 173.309 194.750  0.00  0.00    +0.024 HD
ATOM     92  H   UNL     1     146.399 172.990 193.230  0.00  0.00    +0.024 HD
ATOM     93  H   UNL     1     146.593 174.661 193.786  0.00  0.00    +0.024 HD
ENDBRANCH  84  90
ENDBRANCH  82  84
ENDBRANCH  81  82
ENDBRANCH   1  81
TORSDOF 32
ENDMDL
MODEL 10
REMARK VINA RESULT:      -5.1      2.296      7.057
REMARK  Name = 2c_conf2
REMARK  32 active torsions:
REMARK  status: ('A' for Active; 'I' for Inactive)
REMARK    1  A    between atoms: N_2  and  C_3
REMARK    2  A    between atoms: N_2  and  C_5
REMARK    3  A    between atoms: C_3  and  C_4
REMARK    4  A    between atoms: C_6  and  C_7
REMARK    5  A    between atoms: C_7  and  C_8
REMARK    6  A    between atoms: C_7  and  C_9
REMARK    7  A    between atoms: C_9  and  O_10
REMARK    8  A    between atoms: C_9  and  C_12
REMARK    9  A    between atoms: O_10  and  C_11
REMARK   10  A    between atoms: C_12  and  C_13
REMARK   11  A    between atoms: C_12  and  C_14
REMARK   12  A    between atoms: C_14  and  O_15
REMARK   13  A    between atoms: C_14  and  C_21
REMARK   14  A    between atoms: O_15  and  C_16
REMARK   15  A    between atoms: C_16  and  C_17
REMARK   16  A    between atoms: C_17  and  C_18
REMARK   17  A    between atoms: C_17  and  C_19
REMARK   18  A    between atoms: C_21  and  C_22
REMARK   19  A    between atoms: C_22  and  C_23
REMARK   20  A    between atoms: C_23  and  C_24
REMARK   21  A    between atoms: C_23  and  C_25
REMARK   22  A    between atoms: C_25  and  O_26
REMARK   23  A    between atoms: C_25  and  C_28
REMARK   24  A    between atoms: O_26  and  C_27
REMARK   25  A    between atoms: C_28  and  C_29
REMARK   26  A    between atoms: C_29  and  O_30
REMARK   27  A    between atoms: C_29  and  C_35
REMARK   28  A    between atoms: O_30  and  C_31
REMARK   29  A    between atoms: C_31  and  C_32
REMARK   30  A    between atoms: C_32  and  C_33
REMARK   31  A    between atoms: C_35  and  C_36
REMARK   32  A    between atoms: C_35  and  C_37
REMARK                            x       y       z     vdW  Elec       q    Type
REMARK                         _______ _______ _______ _____ _____    ______ ____
ROOT
ATOM      1  C   UNL     1     149.530 169.118 191.592  0.00  0.00    +0.108 C 
ATOM      2  H   UNL     1     149.613 169.589 190.601  0.00  0.00    +0.074 HD
ENDROOT
BRANCH   1   3
ATOM      3  C   UNL     1     148.665 167.858 191.429  0.00  0.00    -0.015 C 
ATOM      4  H   UNL     1     149.289 167.022 191.107  0.00  0.00    +0.030 HD
ATOM      5  H   UNL     1     147.880 167.994 190.678  0.00  0.00    +0.030 HD
BRANCH   3   6
ATOM      6  C   UNL     1     147.979 167.483 192.757  0.00  0.00    -0.045 C 
ATOM      7  H   UNL     1     148.725 167.347 193.552  0.00  0.00    +0.027 HD
ATOM      8  H   UNL     1     147.360 168.340 193.057  0.00  0.00    +0.027 HD
BRANCH   6   9
ATOM      9  C   UNL     1     147.092 166.216 192.641  0.00  0.00    -0.017 C 
ATOM     10  H   UNL     1     146.390 166.220 193.480  0.00  0.00    +0.032 HD
BRANCH   9  11
ATOM     11  C   UNL     1     147.991 164.979 192.786  0.00  0.00    -0.060 C 
ATOM     12  H   UNL     1     148.054 164.681 193.838  0.00  0.00    +0.023 HD
ATOM     13  H   UNL     1     149.010 165.172 192.435  0.00  0.00    +0.023 HD
ATOM     14  H   UNL     1     147.604 164.119 192.235  0.00  0.00    +0.023 HD
ENDBRANCH   9  11
BRANCH   9  15
ATOM     15  C   UNL     1     146.305 166.216 191.297  0.00  0.00    +0.064 C 
ATOM     16  H   UNL     1     146.688 167.025 190.673  0.00  0.00    +0.060 HD
BRANCH  15  17
ATOM     17  C   UNL     1     144.775 166.365 191.462  0.00  0.00    +0.011 C 
ATOM     18  H   UNL     1     144.519 166.143 192.503  0.00  0.00    +0.033 HD
ATOM     19  H   UNL     1     144.259 165.572 190.911  0.00  0.00    +0.033 HD
BRANCH  17  20
ATOM     20  C   UNL     1     144.154 167.709 191.037  0.00  0.00    +0.108 C 
ATOM     21  H   UNL     1     143.897 167.725 189.973  0.00  0.00    +0.074 HD
BRANCH  20  22
ATOM     22  C   UNL     1     142.906 168.135 191.861  0.00  0.00    -0.009 C 
ATOM     23  H   UNL     1     143.208 168.925 192.563  0.00  0.00    +0.033 HD
BRANCH  22  24
ATOM     24  C   UNL     1     142.267 167.006 192.666  0.00  0.00    -0.059 C 
ATOM     25  H   UNL     1     141.911 166.203 192.017  0.00  0.00    +0.023 HD
ATOM     26  H   UNL     1     142.977 166.596 193.387  0.00  0.00    +0.023 HD
ATOM     27  H   UNL     1     141.411 167.374 193.241  0.00  0.00    +0.023 HD
ENDBRANCH  22  24
BRANCH  22  28
ATOM     28  C   UNL     1     141.847 168.760 190.937  0.00  0.00    -0.059 C 
ATOM     29  H   UNL     1     142.063 168.535 189.888  0.00  0.00    +0.023 HD
ATOM     30  H   UNL     1     140.852 168.372 191.169  0.00  0.00    +0.023 HD
ATOM     31  H   UNL     1     141.808 169.847 191.048  0.00  0.00    +0.023 HD
ENDBRANCH  22  28
ENDBRANCH  20  22
BRANCH  20  32
ATOM     32  O   UNL     1     145.152 168.735 191.300  0.00  0.00    -0.461 OA
BRANCH  32  33
ATOM     33  C   UNL     1     145.418 169.604 190.287  0.00  0.00    +0.307 C 
ATOM     34  O   UNL     1     145.991 169.327 189.243  0.00  0.00    -0.251 OA
BRANCH  33  35
ATOM     35  C   UNL     1     144.915 170.983 190.637  0.00  0.00    +0.042 C 
ATOM     36  H   UNL     1     144.396 170.927 191.599  0.00  0.00    +0.037 HD
ATOM     37  H   UNL     1     145.772 171.653 190.770  0.00  0.00    +0.037 HD
BRANCH  35  38
ATOM     38  C   UNL     1     143.970 171.508 189.574  0.00  0.00    -0.055 C 
ATOM     39  H   UNL     1     143.947 170.832 188.713  0.00  0.00    +0.023 HD
ATOM     40  H   UNL     1     142.947 171.597 189.956  0.00  0.00    +0.023 HD
ATOM     41  H   UNL     1     144.282 172.503 189.226  0.00  0.00    +0.023 HD
ENDBRANCH  35  38
ENDBRANCH  33  35
ENDBRANCH  32  33
ENDBRANCH  20  32
ENDBRANCH  17  20
ENDBRANCH  15  17
BRANCH  15  42
ATOM     42  O   UNL     1     146.606 164.969 190.637  0.00  0.00    -0.379 OA
BRANCH  42  43
ATOM     43  C   UNL     1     145.796 164.685 189.511  0.00  0.00    +0.037 C 
ATOM     44  H   UNL     1     145.079 165.504 189.391  0.00  0.00    +0.052 HD
ATOM     45  H   UNL     1     146.393 164.630 188.595  0.00  0.00    +0.052 HD
ATOM     46  H   UNL     1     145.237 163.755 189.659  0.00  0.00    +0.052 HD
ENDBRANCH  42  43
ENDBRANCH  15  42
ENDBRANCH   9  15
ENDBRANCH   6   9
ENDBRANCH   3   6
ENDBRANCH   1   3
BRANCH   1  47
ATOM     47  C   UNL     1     150.975 168.914 192.126  0.00  0.00    +0.020 C 
ATOM     48  H   UNL     1     150.834 168.601 193.171  0.00  0.00    +0.036 HD
BRANCH  47  49
ATOM     49  C   UNL     1     151.741 170.233 192.262  0.00  0.00    -0.057 C 
ATOM     50  H   UNL     1     152.570 170.168 192.969  0.00  0.00    +0.023 HD
ATOM     51  H   UNL     1     151.082 171.046 192.592  0.00  0.00    +0.023 HD
ATOM     52  H   UNL     1     152.162 170.533 191.295  0.00  0.00    +0.023 HD
ENDBRANCH  47  49
BRANCH  47  53
ATOM     53  C   UNL     1     151.793 167.743 191.501  0.00  0.00    +0.070 C 
ATOM     54  H   UNL     1     152.806 168.114 191.308  0.00  0.00    +0.061 HD
BRANCH  53  55
ATOM     55  C   UNL     1     151.970 166.444 192.341  0.00  0.00    +0.002 C 
ATOM     56  H   UNL     1     153.038 166.230 192.428  0.00  0.00    +0.037 HD
BRANCH  55  58
ATOM     57  C   UNL     1     151.180 165.425 194.499  0.00  0.00    -0.005 C 
ATOM     58  C   UNL     1     151.340 166.501 193.716  0.00  0.00    -0.065 C 
ATOM     59  H   UNL     1     151.513 164.452 194.137  0.00  0.00    +0.078 HD
ATOM     60  H   UNL     1     151.020 167.489 194.038  0.00  0.00    +0.059 HD
BRANCH  57  62
ATOM     61  C   UNL     1     150.879 164.317 196.606  0.00  0.00    +0.206 C 
ATOM     62  N   UNL     1     150.624 165.402 195.770  0.00  0.00    -0.281 N 
ATOM     63  O   UNL     1     151.547 163.326 196.334  0.00  0.00    -0.279 OA
ATOM     64  H   UNL     1     150.406 164.419 197.596  0.00  0.00    +0.126 HD
BRANCH  62  65
ATOM     65  C   UNL     1     149.797 166.491 196.285  0.00  0.00    +0.016 C 
ATOM     66  H   UNL     1     150.145 166.784 197.280  0.00  0.00    +0.047 HD
ATOM     67  H   UNL     1     149.936 167.371 195.643  0.00  0.00    +0.047 HD
BRANCH  65  68
ATOM     68  C   UNL     1     148.318 166.137 196.303  0.00  0.00    -0.049 C 
ATOM     69  H   UNL     1     147.799 166.718 197.072  0.00  0.00    +0.024 HD
ATOM     70  H   UNL     1     147.855 166.342 195.337  0.00  0.00    +0.024 HD
ATOM     71  H   UNL     1     148.163 165.076 196.530  0.00  0.00    +0.024 HD
ENDBRANCH  65  68
ENDBRANCH  62  65
ENDBRANCH  57  62
ENDBRANCH  55  58
BRANCH  55  72
ATOM     72  C   UNL     1     151.361 165.248 191.590  0.00  0.00    -0.057 C 
ATOM     73  H   UNL     1     151.064 165.509 190.569  0.00  0.00    +0.024 HD
ATOM     74  H   UNL     1     152.080 164.423 191.528  0.00  0.00    +0.024 HD
ATOM     75  H   UNL     1     150.472 164.871 192.109  0.00  0.00    +0.024 HD
ENDBRANCH  55  72
ENDBRANCH  53  55
BRANCH  53  76
ATOM     76  O   UNL     1     151.220 167.358 190.232  0.00  0.00    -0.379 OA
BRANCH  76  77
ATOM     77  C   UNL     1     152.085 167.568 189.122  0.00  0.00    +0.037 C 
ATOM     78  H   UNL     1     152.866 168.292 189.378  0.00  0.00    +0.052 HD
ATOM     79  H   UNL     1     152.562 166.616 188.880  0.00  0.00    +0.052 HD
ATOM     80  H   UNL     1     151.529 167.911 188.243  0.00  0.00    +0.052 HD
ENDBRANCH  76  77
ENDBRANCH  53  76
ENDBRANCH  47  53
ENDBRANCH   1  47
BRANCH   1  81
ATOM     81  O   UNL     1     148.790 169.994 192.471  0.00  0.00    -0.461 OA
BRANCH  81  82
ATOM     82  C   UNL     1     148.446 171.219 191.994  0.00  0.00    +0.310 C 
ATOM     83  O   UNL     1     148.379 171.510 190.808  0.00  0.00    -0.251 OA
BRANCH  82  84
ATOM     84  C   UNL     1     148.135 172.197 193.116  0.00  0.00    +0.051 C 
ATOM     85  H   UNL     1     147.783 171.592 193.964  0.00  0.00    +0.041 HD
BRANCH  84  86
ATOM     86  C   UNL     1     147.024 173.189 192.774  0.00  0.00    -0.053 C 
ATOM     87  H   UNL     1     147.158 174.147 193.293  0.00  0.00    +0.024 HD
ATOM     88  H   UNL     1     146.044 172.788 193.057  0.00  0.00    +0.024 HD
ATOM     89  H   UNL     1     147.006 173.395 191.698  0.00  0.00    +0.024 HD
ENDBRANCH  84  86
BRANCH  84  90
ATOM     90  C   UNL     1     149.414 172.928 193.518  0.00  0.00    -0.053 C 
ATOM     91  H   UNL     1     150.147 172.935 192.701  0.00  0.00    +0.024 HD
ATOM     92  H   UNL     1     149.887 172.438 194.378  0.00  0.00    +0.024 HD
ATOM     93  H   UNL     1     149.195 173.964 193.805  0.00  0.00    +0.024 HD
ENDBRANCH  84  90
ENDBRANCH  82  84
ENDBRANCH  81  82
ENDBRANCH   1  81
TORSDOF 32
ENDMDL
