MODEL 1
REMARK VINA RESULT:      -5.2      0.000      0.000
REMARK  Name = 2u_conf1
REMARK  31 active torsions:
REMARK  status: ('A' for Active; 'I' for Inactive)
REMARK    1  A    between atoms: C_2  and  C_3
REMARK    2  A    between atoms: C_2  and  O_8
REMARK    3  A    between atoms: O_8  and  C_9
REMARK    4  A    between atoms: C_9  and  C_10
REMARK    5  A    between atoms: C_9  and  C_29
REMARK    6  A    between atoms: C_10  and  C_11
REMARK    7  A    between atoms: C_11  and  C_12
REMARK    8  A    between atoms: C_12  and  C_13
REMARK    9  A    between atoms: C_12  and  C_14
REMARK   10  A    between atoms: C_14  and  O_15
REMARK   11  A    between atoms: C_14  and  C_17
REMARK   12  A    between atoms: O_15  and  C_16
REMARK   13  A    between atoms: C_17  and  C_18
REMARK   14  A    between atoms: C_18  and  O_19
REMARK   15  A    between atoms: C_18  and  C_26
REMARK   16  A    between atoms: O_19  and  C_20
REMARK   17  A    between atoms: C_20  and  C_21
REMARK   18  A    between atoms: C_21  and  C_22
REMARK   19  A    between atoms: C_22  and  C_23
REMARK   20  A    between atoms: C_23  and  N_24
REMARK   21  A    between atoms: C_26  and  C_27
REMARK   22  A    between atoms: C_26  and  C_28
REMARK   23  A    between atoms: C_29  and  C_30
REMARK   24  A    between atoms: C_29  and  C_31
REMARK   25  A    between atoms: C_31  and  O_32
REMARK   26  A    between atoms: C_31  and  C_34
REMARK   27  A    between atoms: O_32  and  C_33
REMARK   28  A    between atoms: C_34  and  C_35
REMARK   29  A    between atoms: C_34  and  C_36
REMARK   30  A    between atoms: C_37  and  N_38
REMARK   31  A    between atoms: N_38  and  C_39
REMARK                            x       y       z     vdW  Elec       q    Type
REMARK                         _______ _______ _______ _____ _____    ______ ____
ROOT
ATOM      1  C   UNL     1     150.499 165.680 189.775  0.00  0.00    -0.015 C 
ATOM      2  H   UNL     1     149.895 166.042 188.946  0.00  0.00    +0.030 HD
ATOM      3  H   UNL     1     150.804 164.667 189.489  0.00  0.00    +0.030 HD
ENDROOT
BRANCH   1   4
ATOM      4  C   UNL     1     151.737 166.590 189.856  0.00  0.00    -0.045 C 
ATOM      5  H   UNL     1     152.573 166.000 190.254  0.00  0.00    +0.027 HD
ATOM      6  H   UNL     1     151.547 167.369 190.605  0.00  0.00    +0.027 HD
BRANCH   4   7
ATOM      7  C   UNL     1     152.170 167.248 188.526  0.00  0.00    -0.017 C 
ATOM      8  H   UNL     1     152.315 168.320 188.707  0.00  0.00    +0.032 HD
BRANCH   7   9
ATOM      9  C   UNL     1     151.013 167.117 187.522  0.00  0.00    -0.060 C 
ATOM     10  H   UNL     1     150.069 166.933 188.048  0.00  0.00    +0.023 HD
ATOM     11  H   UNL     1     150.880 168.034 186.941  0.00  0.00    +0.023 HD
ATOM     12  H   UNL     1     151.173 166.287 186.826  0.00  0.00    +0.023 HD
ENDBRANCH   7   9
BRANCH   7  13
ATOM     13  C   UNL     1     153.502 166.666 187.977  0.00  0.00    +0.064 C 
ATOM     14  H   UNL     1     153.273 165.823 187.316  0.00  0.00    +0.060 HD
BRANCH  13  15
ATOM     15  C   UNL     1     154.406 166.156 189.117  0.00  0.00    +0.011 C 
ATOM     16  H   UNL     1     153.821 166.147 190.043  0.00  0.00    +0.033 HD
ATOM     17  H   UNL     1     155.257 166.832 189.247  0.00  0.00    +0.033 HD
BRANCH  15  18
ATOM     18  C   UNL     1     154.948 164.737 188.845  0.00  0.00    +0.108 C 
ATOM     19  H   UNL     1     154.688 164.463 187.815  0.00  0.00    +0.074 HD
BRANCH  18  20
ATOM     20  C   UNL     1     156.489 164.681 189.007  0.00  0.00    -0.009 C 
ATOM     21  H   UNL     1     156.796 165.532 189.628  0.00  0.00    +0.033 HD
BRANCH  20  22
ATOM     22  C   UNL     1     156.982 163.398 189.683  0.00  0.00    -0.059 C 
ATOM     23  H   UNL     1     158.077 163.349 189.710  0.00  0.00    +0.023 HD
ATOM     24  H   UNL     1     156.622 163.348 190.717  0.00  0.00    +0.023 HD
ATOM     25  H   UNL     1     156.613 162.507 189.167  0.00  0.00    +0.023 HD
ENDBRANCH  20  22
BRANCH  20  26
ATOM     26  C   UNL     1     157.197 164.847 187.659  0.00  0.00    -0.059 C 
ATOM     27  H   UNL     1     158.284 164.814 187.765  0.00  0.00    +0.023 HD
ATOM     28  H   UNL     1     156.895 164.057 186.961  0.00  0.00    +0.023 HD
ATOM     29  H   UNL     1     156.936 165.807 187.203  0.00  0.00    +0.023 HD
ENDBRANCH  20  26
ENDBRANCH  18  20
BRANCH  18  30
ATOM     30  O   UNL     1     154.304 163.859 189.796  0.00  0.00    -0.461 OA
BRANCH  30  31
ATOM     31  C   UNL     1     153.194 163.184 189.391  0.00  0.00    +0.307 C 
ATOM     32  O   UNL     1     152.778 163.121 188.243  0.00  0.00    -0.251 OA
BRANCH  31  33
ATOM     33  C   UNL     1     152.474 162.628 190.600  0.00  0.00    +0.046 C 
ATOM     34  H   UNL     1     153.200 162.285 191.345  0.00  0.00    +0.038 HD
ATOM     35  H   UNL     1     151.918 163.466 191.038  0.00  0.00    +0.038 HD
BRANCH  33  36
ATOM     36  C   UNL     1     151.503 161.499 190.252  0.00  0.00    -0.031 C 
ATOM     37  H   UNL     1     151.653 160.637 190.914  0.00  0.00    +0.028 HD
ATOM     38  H   UNL     1     151.724 161.154 189.235  0.00  0.00    +0.028 HD
BRANCH  36  39
ATOM     39  C   UNL     1     150.035 161.928 190.288  0.00  0.00    -0.006 C 
ATOM     40  H   UNL     1     149.547 161.626 189.354  0.00  0.00    +0.042 HD
ATOM     41  H   UNL     1     149.973 163.021 190.349  0.00  0.00    +0.042 HD
BRANCH  39  42
ATOM     42  N   UNL     1     149.319 161.351 191.413  0.00  0.00    -0.330 NA
ATOM     43  H   UNL     1     149.941 161.273 192.222  0.00  0.00    +0.118 HD
ATOM     44  H   UNL     1     149.026 160.401 191.185  0.00  0.00    +0.118 HD
ENDBRANCH  39  42
ENDBRANCH  36  39
ENDBRANCH  33  36
ENDBRANCH  31  33
ENDBRANCH  30  31
ENDBRANCH  18  30
ENDBRANCH  15  18
ENDBRANCH  13  15
BRANCH  13  45
ATOM     45  O   UNL     1     154.210 167.690 187.269  0.00  0.00    -0.379 OA
BRANCH  45  46
ATOM     46  C   UNL     1     154.831 167.236 186.076  0.00  0.00    +0.037 C 
ATOM     47  H   UNL     1     155.912 167.385 186.120  0.00  0.00    +0.052 HD
ATOM     48  H   UNL     1     154.604 166.181 185.898  0.00  0.00    +0.052 HD
ATOM     49  H   UNL     1     154.434 167.820 185.240  0.00  0.00    +0.052 HD
ENDBRANCH  45  46
ENDBRANCH  13  45
ENDBRANCH   7  13
ENDBRANCH   4   7
ENDBRANCH   1   4
BRANCH   1  50
ATOM     50  C   UNL     1     149.653 165.626 191.059  0.00  0.00    +0.108 C 
ATOM     51  H   UNL     1     149.069 164.698 190.976  0.00  0.00    +0.074 HD
BRANCH  50  52
ATOM     52  C   UNL     1     148.630 166.781 191.239  0.00  0.00    +0.020 C 
ATOM     53  H   UNL     1     147.768 166.275 191.700  0.00  0.00    +0.036 HD
BRANCH  52  54
ATOM     54  C   UNL     1     148.065 167.280 189.903  0.00  0.00    -0.057 C 
ATOM     55  H   UNL     1     147.024 166.973 189.769  0.00  0.00    +0.023 HD
ATOM     56  H   UNL     1     148.635 166.852 189.071  0.00  0.00    +0.023 HD
ATOM     57  H   UNL     1     148.112 168.366 189.803  0.00  0.00    +0.023 HD
ENDBRANCH  52  54
BRANCH  52  58
ATOM     58  C   UNL     1     148.970 167.905 192.270  0.00  0.00    +0.070 C 
ATOM     59  H   UNL     1     149.816 167.551 192.874  0.00  0.00    +0.061 HD
BRANCH  58  60
ATOM     60  C   UNL     1     149.349 169.349 191.804  0.00  0.00    +0.002 C 
ATOM     61  H   UNL     1     149.288 169.310 190.705  0.00  0.00    +0.037 HD
BRANCH  60  62
ATOM     62  C   UNL     1     150.808 169.728 192.073  0.00  0.00    -0.057 C 
ATOM     63  H   UNL     1     150.864 170.666 192.637  0.00  0.00    +0.024 HD
ATOM     64  H   UNL     1     151.360 169.886 191.142  0.00  0.00    +0.024 HD
ATOM     65  H   UNL     1     151.334 168.973 192.660  0.00  0.00    +0.024 HD
ENDBRANCH  60  62
BRANCH  60  66
ATOM     66  C   UNL     1     148.316 170.398 192.176  0.00  0.00    -0.065 C 
ATOM     67  C   UNL     1     148.514 171.715 192.345  0.00  0.00    -0.005 C 
ATOM     68  H   UNL     1     147.310 169.998 192.281  0.00  0.00    +0.059 HD
ATOM     69  H   UNL     1     149.511 172.130 192.213  0.00  0.00    +0.078 HD
BRANCH  67  70
ATOM     70  N   UNL     1     147.542 172.637 192.709  0.00  0.00    -0.284 N 
ATOM     71  C   UNL     1     146.355 172.735 191.988  0.00  0.00    +0.206 C 
ATOM     72  O   UNL     1     145.433 173.512 192.202  0.00  0.00    -0.279 OA
ATOM     73  H   UNL     1     146.299 172.017 191.153  0.00  0.00    +0.126 HD
BRANCH  70  74
ATOM     74  C   UNL     1     147.732 173.542 193.833  0.00  0.00    +0.007 C 
ATOM     75  H   UNL     1     146.805 174.060 194.100  0.00  0.00    +0.043 HD
ATOM     76  H   UNL     1     148.479 174.297 193.568  0.00  0.00    +0.043 HD
ATOM     77  H   UNL     1     148.064 172.970 194.706  0.00  0.00    +0.043 HD
ENDBRANCH  70  74
ENDBRANCH  67  70
ENDBRANCH  60  66
ENDBRANCH  58  60
BRANCH  58  78
ATOM     78  O   UNL     1     147.855 168.079 193.180  0.00  0.00    -0.379 OA
BRANCH  78  79
ATOM     79  C   UNL     1     147.481 166.895 193.877  0.00  0.00    +0.037 C 
ATOM     80  H   UNL     1     148.046 166.786 194.805  0.00  0.00    +0.052 HD
ATOM     81  H   UNL     1     147.712 166.039 193.238  0.00  0.00    +0.052 HD
ATOM     82  H   UNL     1     146.406 166.887 194.085  0.00  0.00    +0.052 HD
ENDBRANCH  78  79
ENDBRANCH  58  78
ENDBRANCH  52  58
ENDBRANCH  50  52
BRANCH  50  83
ATOM     83  O   UNL     1     150.523 165.528 192.204  0.00  0.00    -0.459 OA
BRANCH  83  85
ATOM     84  O   UNL     1     149.206 163.862 193.075  0.00  0.00    -0.248 OA
ATOM     85  C   UNL     1     150.190 164.586 193.140  0.00  0.00    +0.337 C 
BRANCH  85  86
ATOM     86  C   UNL     1     151.228 164.586 194.269  0.00  0.00    +0.155 C 
ATOM     87  O   UNL     1     150.746 163.922 195.447  0.00  0.00    -0.365 OA
ATOM     88  C   UNL     1     150.493 164.897 196.465  0.00  0.00    +0.049 C 
ATOM     89  C   UNL     1     150.581 166.255 195.807  0.00  0.00    -0.027 C 
ATOM     90  C   UNL     1     151.570 166.004 194.695  0.00  0.00    -0.014 C 
ATOM     91  H   UNL     1     152.108 164.040 193.912  0.00  0.00    +0.071 HD
ATOM     92  H   UNL     1     149.517 164.712 196.921  0.00  0.00    +0.056 HD
ATOM     93  H   UNL     1     151.265 164.783 197.236  0.00  0.00    +0.056 HD
ATOM     94  H   UNL     1     150.887 167.047 196.496  0.00  0.00    +0.029 HD
ATOM     95  H   UNL     1     149.608 166.531 195.384  0.00  0.00    +0.029 HD
ATOM     96  H   UNL     1     152.589 166.032 195.102  0.00  0.00    +0.030 HD
ATOM     97  H   UNL     1     151.503 166.751 193.900  0.00  0.00    +0.030 HD
ENDBRANCH  85  86
ENDBRANCH  83  85
ENDBRANCH  50  83
ENDBRANCH   1  50
TORSDOF 31
ENDMDL
MODEL 2
REMARK VINA RESULT:      -5.1      2.840      6.417
REMARK  Name = 2u_conf1
REMARK  31 active torsions:
REMARK  status: ('A' for Active; 'I' for Inactive)
REMARK    1  A    between atoms: C_2  and  C_3
REMARK    2  A    between atoms: C_2  and  O_8
REMARK    3  A    between atoms: O_8  and  C_9
REMARK    4  A    between atoms: C_9  and  C_10
REMARK    5  A    between atoms: C_9  and  C_29
REMARK    6  A    between atoms: C_10  and  C_11
REMARK    7  A    between atoms: C_11  and  C_12
REMARK    8  A    between atoms: C_12  and  C_13
REMARK    9  A    between atoms: C_12  and  C_14
REMARK   10  A    between atoms: C_14  and  O_15
REMARK   11  A    between atoms: C_14  and  C_17
REMARK   12  A    between atoms: O_15  and  C_16
REMARK   13  A    between atoms: C_17  and  C_18
REMARK   14  A    between atoms: C_18  and  O_19
REMARK   15  A    between atoms: C_18  and  C_26
REMARK   16  A    between atoms: O_19  and  C_20
REMARK   17  A    between atoms: C_20  and  C_21
REMARK   18  A    between atoms: C_21  and  C_22
REMARK   19  A    between atoms: C_22  and  C_23
REMARK   20  A    between atoms: C_23  and  N_24
REMARK   21  A    between atoms: C_26  and  C_27
REMARK   22  A    between atoms: C_26  and  C_28
REMARK   23  A    between atoms: C_29  and  C_30
REMARK   24  A    between atoms: C_29  and  C_31
REMARK   25  A    between atoms: C_31  and  O_32
REMARK   26  A    between atoms: C_31  and  C_34
REMARK   27  A    between atoms: O_32  and  C_33
REMARK   28  A    between atoms: C_34  and  C_35
REMARK   29  A    between atoms: C_34  and  C_36
REMARK   30  A    between atoms: C_37  and  N_38
REMARK   31  A    between atoms: N_38  and  C_39
REMARK                            x       y       z     vdW  Elec       q    Type
REMARK                         _______ _______ _______ _____ _____    ______ ____
ROOT
ATOM      1  C   UNL     1     148.446 168.916 190.766  0.00  0.00    -0.015 C 
ATOM      2  H   UNL     1     149.298 169.053 190.103  0.00  0.00    +0.030 HD
ATOM      3  H   UNL     1     148.022 167.943 190.494  0.00  0.00    +0.030 HD
ENDROOT
BRANCH   1   4
ATOM      4  C   UNL     1     149.002 168.858 192.200  0.00  0.00    -0.045 C 
ATOM      5  H   UNL     1     148.607 167.957 192.686  0.00  0.00    +0.027 HD
ATOM      6  H   UNL     1     148.588 169.701 192.767  0.00  0.00    +0.027 HD
BRANCH   4   7
ATOM      7  C   UNL     1     150.543 168.862 192.319  0.00  0.00    -0.017 C 
ATOM      8  H   UNL     1     150.803 168.875 193.384  0.00  0.00    +0.032 HD
BRANCH   7   9
ATOM      9  C   UNL     1     151.072 170.173 191.714  0.00  0.00    -0.060 C 
ATOM     10  H   UNL     1     152.059 170.016 191.264  0.00  0.00    +0.023 HD
ATOM     11  H   UNL     1     150.416 170.543 190.922  0.00  0.00    +0.023 HD
ATOM     12  H   UNL     1     151.172 170.956 192.473  0.00  0.00    +0.023 HD
ENDBRANCH   7   9
BRANCH   7  13
ATOM     13  C   UNL     1     151.195 167.606 191.677  0.00  0.00    +0.064 C 
ATOM     14  H   UNL     1     150.403 166.911 191.379  0.00  0.00    +0.060 HD
BRANCH  13  15
ATOM     15  C   UNL     1     152.124 166.884 192.672  0.00  0.00    +0.011 C 
ATOM     16  H   UNL     1     152.398 167.590 193.463  0.00  0.00    +0.033 HD
ATOM     17  H   UNL     1     153.037 166.560 192.161  0.00  0.00    +0.033 HD
BRANCH  15  18
ATOM     18  C   UNL     1     151.456 165.645 193.305  0.00  0.00    +0.108 C 
ATOM     19  H   UNL     1     152.098 164.775 193.116  0.00  0.00    +0.074 HD
BRANCH  18  20
ATOM     20  C   UNL     1     151.280 165.817 194.835  0.00  0.00    -0.009 C 
ATOM     21  H   UNL     1     152.076 166.483 195.195  0.00  0.00    +0.033 HD
BRANCH  20  22
ATOM     22  C   UNL     1     149.933 166.433 195.226  0.00  0.00    -0.059 C 
ATOM     23  H   UNL     1     149.134 166.127 194.542  0.00  0.00    +0.023 HD
ATOM     24  H   UNL     1     149.645 166.114 196.235  0.00  0.00    +0.023 HD
ATOM     25  H   UNL     1     149.980 167.525 195.231  0.00  0.00    +0.023 HD
ENDBRANCH  20  22
BRANCH  20  26
ATOM     26  C   UNL     1     151.460 164.486 195.569  0.00  0.00    -0.059 C 
ATOM     27  H   UNL     1     151.174 163.636 194.945  0.00  0.00    +0.023 HD
ATOM     28  H   UNL     1     152.503 164.350 195.878  0.00  0.00    +0.023 HD
ATOM     29  H   UNL     1     150.842 164.458 196.472  0.00  0.00    +0.023 HD
ENDBRANCH  20  26
ENDBRANCH  18  20
BRANCH  18  30
ATOM     30  O   UNL     1     150.171 165.493 192.659  0.00  0.00    -0.461 OA
BRANCH  30  31
ATOM     31  C   UNL     1     149.828 164.258 192.203  0.00  0.00    +0.307 C 
ATOM     32  O   UNL     1     149.052 163.487 192.750  0.00  0.00    -0.251 OA
BRANCH  31  33
ATOM     33  C   UNL     1     150.652 163.926 190.979  0.00  0.00    +0.046 C 
ATOM     34  H   UNL     1     150.042 164.030 190.075  0.00  0.00    +0.038 HD
ATOM     35  H   UNL     1     151.449 164.678 190.932  0.00  0.00    +0.038 HD
BRANCH  33  36
ATOM     36  C   UNL     1     151.274 162.530 191.037  0.00  0.00    -0.031 C 
ATOM     37  H   UNL     1     151.509 162.249 192.071  0.00  0.00    +0.028 HD
ATOM     38  H   UNL     1     152.228 162.553 190.495  0.00  0.00    +0.028 HD
BRANCH  36  39
ATOM     39  C   UNL     1     150.403 161.450 190.393  0.00  0.00    -0.006 C 
ATOM     40  H   UNL     1     151.031 160.798 189.774  0.00  0.00    +0.042 HD
ATOM     41  H   UNL     1     149.667 161.918 189.729  0.00  0.00    +0.042 HD
BRANCH  39  42
ATOM     42  N   UNL     1     149.703 160.645 191.381  0.00  0.00    -0.330 NA
ATOM     43  H   UNL     1     150.186 160.695 192.281  0.00  0.00    +0.118 HD
ATOM     44  H   UNL     1     149.719 159.665 191.101  0.00  0.00    +0.118 HD
ENDBRANCH  39  42
ENDBRANCH  36  39
ENDBRANCH  33  36
ENDBRANCH  31  33
ENDBRANCH  30  31
ENDBRANCH  18  30
ENDBRANCH  15  18
ENDBRANCH  13  15
BRANCH  13  45
ATOM     45  O   UNL     1     151.975 168.004 190.544  0.00  0.00    -0.379 OA
BRANCH  45  46
ATOM     46  C   UNL     1     151.844 167.139 189.426  0.00  0.00    +0.037 C 
ATOM     47  H   UNL     1     150.964 166.499 189.532  0.00  0.00    +0.052 HD
ATOM     48  H   UNL     1     151.781 167.712 188.497  0.00  0.00    +0.052 HD
ATOM     49  H   UNL     1     152.732 166.502 189.380  0.00  0.00    +0.052 HD
ENDBRANCH  45  46
ENDBRANCH  13  45
ENDBRANCH   7  13
ENDBRANCH   4   7
ENDBRANCH   1   4
BRANCH   1  50
ATOM     50  C   UNL     1     147.405 170.023 190.522  0.00  0.00    +0.108 C 
ATOM     51  H   UNL     1     146.808 170.059 191.445  0.00  0.00    +0.074 HD
BRANCH  50  52
ATOM     52  C   UNL     1     146.411 169.766 189.357  0.00  0.00    +0.020 C 
ATOM     53  H   UNL     1     146.666 168.744 189.038  0.00  0.00    +0.036 HD
BRANCH  52  54
ATOM     54  C   UNL     1     146.731 170.607 188.115  0.00  0.00    -0.057 C 
ATOM     55  H   UNL     1     147.560 171.296 188.301  0.00  0.00    +0.023 HD
ATOM     56  H   UNL     1     145.862 171.217 187.840  0.00  0.00    +0.023 HD
ATOM     57  H   UNL     1     146.987 169.998 187.246  0.00  0.00    +0.023 HD
ENDBRANCH  52  54
BRANCH  52  58
ATOM     58  C   UNL     1     144.891 169.657 189.703  0.00  0.00    +0.070 C 
ATOM     59  H   UNL     1     144.340 170.231 188.946  0.00  0.00    +0.061 HD
BRANCH  58  60
ATOM     60  C   UNL     1     144.174 168.270 189.798  0.00  0.00    +0.002 C 
ATOM     61  H   UNL     1     144.764 167.609 189.143  0.00  0.00    +0.037 HD
BRANCH  60  62
ATOM     62  C   UNL     1     142.777 168.248 189.174  0.00  0.00    -0.057 C 
ATOM     63  H   UNL     1     142.088 168.876 189.750  0.00  0.00    +0.024 HD
ATOM     64  H   UNL     1     142.355 167.238 189.171  0.00  0.00    +0.024 HD
ATOM     65  H   UNL     1     142.769 168.625 188.150  0.00  0.00    +0.024 HD
ENDBRANCH  60  62
BRANCH  60  66
ATOM     66  C   UNL     1     144.299 167.615 191.162  0.00  0.00    -0.065 C 
ATOM     67  C   UNL     1     145.368 166.980 191.668  0.00  0.00    -0.005 C 
ATOM     68  H   UNL     1     143.407 167.718 191.775  0.00  0.00    +0.059 HD
ATOM     69  H   UNL     1     146.276 166.898 191.073  0.00  0.00    +0.078 HD
BRANCH  67  70
ATOM     70  N   UNL     1     145.431 166.374 192.915  0.00  0.00    -0.284 N 
ATOM     71  C   UNL     1     146.649 165.942 193.432  0.00  0.00    +0.206 C 
ATOM     72  O   UNL     1     146.831 165.386 194.507  0.00  0.00    -0.279 OA
ATOM     73  H   UNL     1     147.498 166.147 192.758  0.00  0.00    +0.126 HD
BRANCH  70  74
ATOM     74  C   UNL     1     144.236 166.149 193.715  0.00  0.00    +0.007 C 
ATOM     75  H   UNL     1     144.426 165.468 194.550  0.00  0.00    +0.043 HD
ATOM     76  H   UNL     1     143.457 165.706 193.087  0.00  0.00    +0.043 HD
ATOM     77  H   UNL     1     143.892 167.104 194.128  0.00  0.00    +0.043 HD
ENDBRANCH  70  74
ENDBRANCH  67  70
ENDBRANCH  60  66
ENDBRANCH  58  60
BRANCH  58  78
ATOM     78  O   UNL     1     144.639 170.304 190.977  0.00  0.00    -0.379 OA
BRANCH  78  79
ATOM     79  C   UNL     1     143.811 171.459 190.891  0.00  0.00    +0.037 C 
ATOM     80  H   UNL     1     143.284 171.641 191.830  0.00  0.00    +0.052 HD
ATOM     81  H   UNL     1     143.064 171.283 190.112  0.00  0.00    +0.052 HD
ATOM     82  H   UNL     1     144.398 172.340 190.609  0.00  0.00    +0.052 HD
ENDBRANCH  78  79
ENDBRANCH  58  78
ENDBRANCH  52  58
ENDBRANCH  50  52
BRANCH  50  83
ATOM     83  O   UNL     1     148.078 171.287 190.354  0.00  0.00    -0.459 OA
BRANCH  83  85
ATOM     84  O   UNL     1     147.180 173.398 190.289  0.00  0.00    -0.248 OA
ATOM     85  C   UNL     1     147.464 172.379 190.904  0.00  0.00    +0.337 C 
BRANCH  85  86
ATOM     86  C   UNL     1     147.196 172.130 192.393  0.00  0.00    +0.155 C 
ATOM     87  O   UNL     1     146.358 173.143 192.969  0.00  0.00    -0.365 OA
ATOM     88  C   UNL     1     147.145 173.961 193.843  0.00  0.00    +0.049 C 
ATOM     89  C   UNL     1     148.592 173.596 193.605  0.00  0.00    -0.027 C 
ATOM     90  C   UNL     1     148.490 172.149 193.190  0.00  0.00    -0.014 C 
ATOM     91  H   UNL     1     146.673 171.172 192.481  0.00  0.00    +0.071 HD
ATOM     92  H   UNL     1     146.938 175.017 193.648  0.00  0.00    +0.056 HD
ATOM     93  H   UNL     1     146.846 173.733 194.873  0.00  0.00    +0.056 HD
ATOM     94  H   UNL     1     149.225 173.759 194.481  0.00  0.00    +0.029 HD
ATOM     95  H   UNL     1     148.997 174.193 192.779  0.00  0.00    +0.029 HD
ATOM     96  H   UNL     1     148.382 171.522 194.084  0.00  0.00    +0.030 HD
ATOM     97  H   UNL     1     149.371 171.808 192.642  0.00  0.00    +0.030 HD
ENDBRANCH  85  86
ENDBRANCH  83  85
ENDBRANCH  50  83
ENDBRANCH   1  50
TORSDOF 31
ENDMDL
MODEL 3
REMARK VINA RESULT:      -4.9      3.282      7.287
REMARK  Name = 2u_conf1
REMARK  31 active torsions:
REMARK  status: ('A' for Active; 'I' for Inactive)
REMARK    1  A    between atoms: C_2  and  C_3
REMARK    2  A    between atoms: C_2  and  O_8
REMARK    3  A    between atoms: O_8  and  C_9
REMARK    4  A    between atoms: C_9  and  C_10
REMARK    5  A    between atoms: C_9  and  C_29
REMARK    6  A    between atoms: C_10  and  C_11
REMARK    7  A    between atoms: C_11  and  C_12
REMARK    8  A    between atoms: C_12  and  C_13
REMARK    9  A    between atoms: C_12  and  C_14
REMARK   10  A    between atoms: C_14  and  O_15
REMARK   11  A    between atoms: C_14  and  C_17
REMARK   12  A    between atoms: O_15  and  C_16
REMARK   13  A    between atoms: C_17  and  C_18
REMARK   14  A    between atoms: C_18  and  O_19
REMARK   15  A    between atoms: C_18  and  C_26
REMARK   16  A    between atoms: O_19  and  C_20
REMARK   17  A    between atoms: C_20  and  C_21
REMARK   18  A    between atoms: C_21  and  C_22
REMARK   19  A    between atoms: C_22  and  C_23
REMARK   20  A    between atoms: C_23  and  N_24
REMARK   21  A    between atoms: C_26  and  C_27
REMARK   22  A    between atoms: C_26  and  C_28
REMARK   23  A    between atoms: C_29  and  C_30
REMARK   24  A    between atoms: C_29  and  C_31
REMARK   25  A    between atoms: C_31  and  O_32
REMARK   26  A    between atoms: C_31  and  C_34
REMARK   27  A    between atoms: O_32  and  C_33
REMARK   28  A    between atoms: C_34  and  C_35
REMARK   29  A    between atoms: C_34  and  C_36
REMARK   30  A    between atoms: C_37  and  N_38
REMARK   31  A    between atoms: N_38  and  C_39
REMARK                            x       y       z     vdW  Elec       q    Type
REMARK                         _______ _______ _______ _____ _____    ______ ____
ROOT
ATOM      1  C   UNL     1     147.784 168.598 191.294  0.00  0.00    -0.015 C 
ATOM      2  H   UNL     1     147.445 167.658 190.863  0.00  0.00    +0.030 HD
ATOM      3  H   UNL     1     147.684 168.471 192.378  0.00  0.00    +0.030 HD
ENDROOT
BRANCH   1   4
ATOM      4  C   UNL     1     149.270 168.747 190.925  0.00  0.00    -0.045 C 
ATOM      5  H   UNL     1     149.472 169.809 190.734  0.00  0.00    +0.027 HD
ATOM      6  H   UNL     1     149.443 168.240 189.967  0.00  0.00    +0.027 HD
BRANCH   4   7
ATOM      7  C   UNL     1     150.275 168.222 191.976  0.00  0.00    -0.017 C 
ATOM      8  H   UNL     1     149.736 168.077 192.920  0.00  0.00    +0.032 HD
BRANCH   7   9
ATOM      9  C   UNL     1     151.328 169.314 192.227  0.00  0.00    -0.060 C 
ATOM     10  H   UNL     1     151.626 169.323 193.282  0.00  0.00    +0.023 HD
ATOM     11  H   UNL     1     152.234 169.140 191.641  0.00  0.00    +0.023 HD
ATOM     12  H   UNL     1     150.944 170.310 191.981  0.00  0.00    +0.023 HD
ENDBRANCH   7   9
BRANCH   7  13
ATOM     13  C   UNL     1     150.912 166.865 191.568  0.00  0.00    +0.064 C 
ATOM     14  H   UNL     1     150.516 166.569 190.590  0.00  0.00    +0.060 HD
BRANCH  13  15
ATOM     15  C   UNL     1     150.573 165.756 192.584  0.00  0.00    +0.011 C 
ATOM     16  H   UNL     1     150.904 166.084 193.575  0.00  0.00    +0.033 HD
ATOM     17  H   UNL     1     151.107 164.837 192.322  0.00  0.00    +0.033 HD
BRANCH  15  18
ATOM     18  C   UNL     1     149.062 165.446 192.630  0.00  0.00    +0.108 C 
ATOM     19  H   UNL     1     148.518 166.342 192.308  0.00  0.00    +0.074 HD
BRANCH  18  20
ATOM     20  C   UNL     1     148.698 164.271 191.687  0.00  0.00    -0.009 C 
ATOM     21  H   UNL     1     147.963 163.637 192.202  0.00  0.00    +0.033 HD
BRANCH  20  22
ATOM     22  C   UNL     1     148.084 164.725 190.359  0.00  0.00    -0.059 C 
ATOM     23  H   UNL     1     148.038 163.906 189.632  0.00  0.00    +0.023 HD
ATOM     24  H   UNL     1     147.060 165.087 190.515  0.00  0.00    +0.023 HD
ATOM     25  H   UNL     1     148.654 165.545 189.914  0.00  0.00    +0.023 HD
ENDBRANCH  20  22
BRANCH  20  26
ATOM     26  C   UNL     1     149.915 163.386 191.404  0.00  0.00    -0.059 C 
ATOM     27  H   UNL     1     150.834 163.818 191.808  0.00  0.00    +0.023 HD
ATOM     28  H   UNL     1     149.781 162.389 191.842  0.00  0.00    +0.023 HD
ATOM     29  H   UNL     1     150.055 163.256 190.326  0.00  0.00    +0.023 HD
ENDBRANCH  20  26
ENDBRANCH  18  20
BRANCH  18  30
ATOM     30  O   UNL     1     148.750 165.112 194.002  0.00  0.00    -0.461 OA
BRANCH  30  31
ATOM     31  C   UNL     1     148.489 166.132 194.864  0.00  0.00    +0.307 C 
ATOM     32  O   UNL     1     147.912 167.172 194.582  0.00  0.00    -0.251 OA
BRANCH  31  33
ATOM     33  C   UNL     1     149.138 165.842 196.199  0.00  0.00    +0.046 C 
ATOM     34  H   UNL     1     148.719 166.497 196.970  0.00  0.00    +0.038 HD
ATOM     35  H   UNL     1     148.866 164.810 196.455  0.00  0.00    +0.038 HD
BRANCH  33  36
ATOM     36  C   UNL     1     150.662 165.973 196.166  0.00  0.00    -0.031 C 
ATOM     37  H   UNL     1     151.026 166.514 197.049  0.00  0.00    +0.028 HD
ATOM     38  H   UNL     1     150.938 166.577 195.293  0.00  0.00    +0.028 HD
BRANCH  36  39
ATOM     39  C   UNL     1     151.385 164.630 196.048  0.00  0.00    -0.006 C 
ATOM     40  H   UNL     1     152.386 164.718 196.487  0.00  0.00    +0.042 HD
ATOM     41  H   UNL     1     151.514 164.374 194.990  0.00  0.00    +0.042 HD
BRANCH  39  42
ATOM     42  N   UNL     1     150.662 163.556 196.709  0.00  0.00    -0.330 NA
ATOM     43  H   UNL     1     149.873 163.936 197.237  0.00  0.00    +0.118 HD
ATOM     44  H   UNL     1     151.270 163.100 197.389  0.00  0.00    +0.118 HD
ENDBRANCH  39  42
ENDBRANCH  36  39
ENDBRANCH  33  36
ENDBRANCH  31  33
ENDBRANCH  30  31
ENDBRANCH  18  30
ENDBRANCH  15  18
ENDBRANCH  13  15
BRANCH  13  45
ATOM     45  O   UNL     1     152.336 167.006 191.518  0.00  0.00    -0.379 OA
BRANCH  45  46
ATOM     46  C   UNL     1     152.914 166.553 190.303  0.00  0.00    +0.037 C 
ATOM     47  H   UNL     1     152.167 166.524 189.505  0.00  0.00    +0.052 HD
ATOM     48  H   UNL     1     153.752 167.191 190.010  0.00  0.00    +0.052 HD
ATOM     49  H   UNL     1     153.291 165.538 190.461  0.00  0.00    +0.052 HD
ENDBRANCH  45  46
ENDBRANCH  13  45
ENDBRANCH   7  13
ENDBRANCH   4   7
ENDBRANCH   1   4
BRANCH   1  50
ATOM     50  C   UNL     1     146.882 169.751 190.820  0.00  0.00    +0.108 C 
ATOM     51  H   UNL     1     146.345 170.081 191.721  0.00  0.00    +0.074 HD
BRANCH  50  52
ATOM     52  C   UNL     1     145.801 169.371 189.771  0.00  0.00    +0.020 C 
ATOM     53  H   UNL     1     145.782 168.273 189.826  0.00  0.00    +0.036 HD
BRANCH  52  54
ATOM     54  C   UNL     1     146.259 169.639 188.332  0.00  0.00    -0.057 C 
ATOM     55  H   UNL     1     147.299 169.978 188.300  0.00  0.00    +0.023 HD
ATOM     56  H   UNL     1     145.648 170.430 187.884  0.00  0.00    +0.023 HD
ATOM     57  H   UNL     1     146.172 168.760 187.690  0.00  0.00    +0.023 HD
ENDBRANCH  52  54
BRANCH  52  58
ATOM     58  C   UNL     1     144.319 169.766 190.073  0.00  0.00    +0.070 C 
ATOM     59  H   UNL     1     143.959 170.363 189.224  0.00  0.00    +0.061 HD
BRANCH  58  60
ATOM     60  C   UNL     1     143.224 168.679 190.330  0.00  0.00    +0.002 C 
ATOM     61  H   UNL     1     142.304 169.108 189.902  0.00  0.00    +0.037 HD
BRANCH  60  62
ATOM     62  C   UNL     1     142.880 168.479 191.808  0.00  0.00    -0.057 C 
ATOM     63  H   UNL     1     142.242 167.597 191.938  0.00  0.00    +0.024 HD
ATOM     64  H   UNL     1     142.323 169.332 192.209  0.00  0.00    +0.024 HD
ATOM     65  H   UNL     1     143.765 168.325 192.427  0.00  0.00    +0.024 HD
ENDBRANCH  60  62
BRANCH  60  66
ATOM     66  C   UNL     1     143.428 167.409 189.522  0.00  0.00    -0.065 C 
ATOM     67  C   UNL     1     143.429 166.146 189.975  0.00  0.00    -0.005 C 
ATOM     68  H   UNL     1     143.557 167.589 188.457  0.00  0.00    +0.059 HD
ATOM     69  H   UNL     1     143.272 165.954 191.035  0.00  0.00    +0.078 HD
BRANCH  67  70
ATOM     70  N   UNL     1     143.643 165.012 189.203  0.00  0.00    -0.284 N 
ATOM     71  C   UNL     1     142.682 164.008 189.139  0.00  0.00    +0.206 C 
ATOM     72  O   UNL     1     142.758 162.962 188.507  0.00  0.00    -0.279 OA
ATOM     73  H   UNL     1     141.784 164.234 189.740  0.00  0.00    +0.126 HD
BRANCH  70  74
ATOM     74  C   UNL     1     144.876 164.821 188.453  0.00  0.00    +0.007 C 
ATOM     75  H   UNL     1     144.747 165.046 187.390  0.00  0.00    +0.043 HD
ATOM     76  H   UNL     1     145.196 163.778 188.542  0.00  0.00    +0.043 HD
ATOM     77  H   UNL     1     145.649 165.489 188.850  0.00  0.00    +0.043 HD
ENDBRANCH  70  74
ENDBRANCH  67  70
ENDBRANCH  60  66
ENDBRANCH  58  60
BRANCH  58  78
ATOM     78  O   UNL     1     144.278 170.631 191.236  0.00  0.00    -0.379 OA
BRANCH  78  79
ATOM     79  C   UNL     1     143.849 171.960 190.959  0.00  0.00    +0.037 C 
ATOM     80  H   UNL     1     144.588 172.693 191.289  0.00  0.00    +0.052 HD
ATOM     81  H   UNL     1     142.924 172.140 191.514  0.00  0.00    +0.052 HD
ATOM     82  H   UNL     1     143.639 172.088 189.892  0.00  0.00    +0.052 HD
ENDBRANCH  78  79
ENDBRANCH  58  78
ENDBRANCH  52  58
ENDBRANCH  50  52
BRANCH  50  83
ATOM     83  O   UNL     1     147.702 170.837 190.344  0.00  0.00    -0.459 OA
BRANCH  83  85
ATOM     84  O   UNL     1     147.317 173.098 190.278  0.00  0.00    -0.248 OA
ATOM     85  C   UNL     1     147.474 172.062 190.909  0.00  0.00    +0.337 C 
BRANCH  85  86
ATOM     86  C   UNL     1     147.453 171.933 192.437  0.00  0.00    +0.155 C 
ATOM     87  O   UNL     1     146.810 173.053 193.065  0.00  0.00    -0.365 OA
ATOM     88  C   UNL     1     147.799 173.850 193.727  0.00  0.00    +0.049 C 
ATOM     89  C   UNL     1     149.150 173.342 193.276  0.00  0.00    -0.027 C 
ATOM     90  C   UNL     1     148.863 171.886 193.000  0.00  0.00    -0.014 C 
ATOM     91  H   UNL     1     146.879 171.034 192.687  0.00  0.00    +0.071 HD
ATOM     92  H   UNL     1     147.644 174.906 193.487  0.00  0.00    +0.056 HD
ATOM     93  H   UNL     1     147.668 173.716 194.807  0.00  0.00    +0.056 HD
ATOM     94  H   UNL     1     149.936 173.502 194.018  0.00  0.00    +0.029 HD
ATOM     95  H   UNL     1     149.449 173.845 192.350  0.00  0.00    +0.029 HD
ATOM     96  H   UNL     1     148.865 171.330 193.945  0.00  0.00    +0.030 HD
ATOM     97  H   UNL     1     149.606 171.433 192.339  0.00  0.00    +0.030 HD
ENDBRANCH  85  86
ENDBRANCH  83  85
ENDBRANCH  50  83
ENDBRANCH   1  50
TORSDOF 31
ENDMDL
MODEL 4
REMARK VINA RESULT:      -4.9      3.557      7.768
REMARK  Name = 2u_conf1
REMARK  31 active torsions:
REMARK  status: ('A' for Active; 'I' for Inactive)
REMARK    1  A    between atoms: C_2  and  C_3
REMARK    2  A    between atoms: C_2  and  O_8
REMARK    3  A    between atoms: O_8  and  C_9
REMARK    4  A    between atoms: C_9  and  C_10
REMARK    5  A    between atoms: C_9  and  C_29
REMARK    6  A    between atoms: C_10  and  C_11
REMARK    7  A    between atoms: C_11  and  C_12
REMARK    8  A    between atoms: C_12  and  C_13
REMARK    9  A    between atoms: C_12  and  C_14
REMARK   10  A    between atoms: C_14  and  O_15
REMARK   11  A    between atoms: C_14  and  C_17
REMARK   12  A    between atoms: O_15  and  C_16
REMARK   13  A    between atoms: C_17  and  C_18
REMARK   14  A    between atoms: C_18  and  O_19
REMARK   15  A    between atoms: C_18  and  C_26
REMARK   16  A    between atoms: O_19  and  C_20
REMARK   17  A    between atoms: C_20  and  C_21
REMARK   18  A    between atoms: C_21  and  C_22
REMARK   19  A    between atoms: C_22  and  C_23
REMARK   20  A    between atoms: C_23  and  N_24
REMARK   21  A    between atoms: C_26  and  C_27
REMARK   22  A    between atoms: C_26  and  C_28
REMARK   23  A    between atoms: C_29  and  C_30
REMARK   24  A    between atoms: C_29  and  C_31
REMARK   25  A    between atoms: C_31  and  O_32
REMARK   26  A    between atoms: C_31  and  C_34
REMARK   27  A    between atoms: O_32  and  C_33
REMARK   28  A    between atoms: C_34  and  C_35
REMARK   29  A    between atoms: C_34  and  C_36
REMARK   30  A    between atoms: C_37  and  N_38
REMARK   31  A    between atoms: N_38  and  C_39
REMARK                            x       y       z     vdW  Elec       q    Type
REMARK                         _______ _______ _______ _____ _____    ______ ____
ROOT
ATOM      1  C   UNL     1     147.590 169.565 190.613  0.00  0.00    -0.015 C 
ATOM      2  H   UNL     1     148.445 169.985 190.088  0.00  0.00    +0.030 HD
ATOM      3  H   UNL     1     147.362 168.629 190.090  0.00  0.00    +0.030 HD
ENDROOT
BRANCH   1   4
ATOM      4  C   UNL     1     148.053 169.257 192.048  0.00  0.00    -0.045 C 
ATOM      5  H   UNL     1     147.251 169.547 192.738  0.00  0.00    +0.027 HD
ATOM      6  H   UNL     1     148.897 169.915 192.288  0.00  0.00    +0.027 HD
BRANCH   4   7
ATOM      7  C   UNL     1     148.448 167.788 192.321  0.00  0.00    -0.017 C 
ATOM      8  H   UNL     1     149.513 167.765 192.584  0.00  0.00    +0.032 HD
BRANCH   7   9
ATOM      9  C   UNL     1     148.295 166.994 191.013  0.00  0.00    -0.060 C 
ATOM     10  H   UNL     1     147.239 166.939 190.721  0.00  0.00    +0.023 HD
ATOM     11  H   UNL     1     148.828 167.473 190.188  0.00  0.00    +0.023 HD
ATOM     12  H   UNL     1     148.666 165.969 191.116  0.00  0.00    +0.023 HD
ENDBRANCH   7   9
BRANCH   7  13
ATOM     13  C   UNL     1     147.647 167.162 193.495  0.00  0.00    +0.064 C 
ATOM     14  H   UNL     1     147.744 167.809 194.373  0.00  0.00    +0.060 HD
BRANCH  13  15
ATOM     15  C   UNL     1     148.183 165.764 193.861  0.00  0.00    +0.011 C 
ATOM     16  H   UNL     1     148.159 165.139 192.962  0.00  0.00    +0.033 HD
ATOM     17  H   UNL     1     147.542 165.307 194.622  0.00  0.00    +0.033 HD
BRANCH  15  18
ATOM     18  C   UNL     1     149.625 165.815 194.407  0.00  0.00    +0.108 C 
ATOM     19  H   UNL     1     149.989 166.846 194.321  0.00  0.00    +0.074 HD
BRANCH  18  20
ATOM     20  C   UNL     1     149.682 165.384 195.895  0.00  0.00    -0.009 C 
ATOM     21  H   UNL     1     148.839 164.705 196.084  0.00  0.00    +0.033 HD
BRANCH  20  22
ATOM     22  C   UNL     1     150.974 164.651 196.267  0.00  0.00    -0.059 C 
ATOM     23  H   UNL     1     151.103 163.734 195.681  0.00  0.00    +0.023 HD
ATOM     24  H   UNL     1     151.845 165.290 196.077  0.00  0.00    +0.023 HD
ATOM     25  H   UNL     1     150.992 164.385 197.327  0.00  0.00    +0.023 HD
ENDBRANCH  20  22
BRANCH  20  26
ATOM     26  C   UNL     1     149.493 166.583 196.829  0.00  0.00    -0.059 C 
ATOM     27  H   UNL     1     149.400 167.519 196.274  0.00  0.00    +0.023 HD
ATOM     28  H   UNL     1     148.595 166.458 197.446  0.00  0.00    +0.023 HD
ATOM     29  H   UNL     1     150.347 166.681 197.506  0.00  0.00    +0.023 HD
ENDBRANCH  20  26
ENDBRANCH  18  20
BRANCH  18  30
ATOM     30  O   UNL     1     150.409 164.917 193.588  0.00  0.00    -0.461 OA
BRANCH  30  31
ATOM     31  C   UNL     1     151.232 165.462 192.651  0.00  0.00    +0.307 C 
ATOM     32  O   UNL     1     151.461 164.993 191.545  0.00  0.00    -0.251 OA
BRANCH  31  33
ATOM     33  C   UNL     1     151.926 166.673 193.234  0.00  0.00    +0.046 C 
ATOM     34  H   UNL     1     151.241 167.219 193.891  0.00  0.00    +0.038 HD
ATOM     35  H   UNL     1     152.746 166.289 193.853  0.00  0.00    +0.038 HD
BRANCH  33  36
ATOM     36  C   UNL     1     152.492 167.611 192.166  0.00  0.00    -0.031 C 
ATOM     37  H   UNL     1     152.500 167.123 191.183  0.00  0.00    +0.028 HD
ATOM     38  H   UNL     1     153.538 167.828 192.416  0.00  0.00    +0.028 HD
BRANCH  36  39
ATOM     39  C   UNL     1     151.751 168.945 192.075  0.00  0.00    -0.006 C 
ATOM     40  H   UNL     1     152.287 169.699 192.664  0.00  0.00    +0.042 HD
ATOM     41  H   UNL     1     150.751 168.842 192.513  0.00  0.00    +0.042 HD
BRANCH  39  42
ATOM     42  N   UNL     1     151.620 169.411 190.704  0.00  0.00    -0.330 NA
ATOM     43  H   UNL     1     150.634 169.552 190.474  0.00  0.00    +0.118 HD
ATOM     44  H   UNL     1     151.964 168.695 190.063  0.00  0.00    +0.118 HD
ENDBRANCH  39  42
ENDBRANCH  36  39
ENDBRANCH  33  36
ENDBRANCH  31  33
ENDBRANCH  30  31
ENDBRANCH  18  30
ENDBRANCH  15  18
ENDBRANCH  13  15
BRANCH  13  45
ATOM     45  O   UNL     1     146.273 167.028 193.112  0.00  0.00    -0.379 OA
BRANCH  45  46
ATOM     46  C   UNL     1     145.592 165.978 193.783  0.00  0.00    +0.037 C 
ATOM     47  H   UNL     1     144.512 166.062 193.638  0.00  0.00    +0.052 HD
ATOM     48  H   UNL     1     145.943 165.003 193.434  0.00  0.00    +0.052 HD
ATOM     49  H   UNL     1     145.805 166.060 194.852  0.00  0.00    +0.052 HD
ENDBRANCH  45  46
ENDBRANCH  13  45
ENDBRANCH   7  13
ENDBRANCH   4   7
ENDBRANCH   1   4
BRANCH   1  50
ATOM     50  C   UNL     1     146.388 170.521 190.514  0.00  0.00    +0.108 C 
ATOM     51  H   UNL     1     145.925 170.500 191.511  0.00  0.00    +0.074 HD
BRANCH  50  52
ATOM     52  C   UNL     1     145.284 170.111 189.501  0.00  0.00    +0.020 C 
ATOM     53  H   UNL     1     145.698 169.200 189.043  0.00  0.00    +0.036 HD
BRANCH  52  54
ATOM     54  C   UNL     1     145.183 171.080 188.317  0.00  0.00    -0.057 C 
ATOM     55  H   UNL     1     146.132 171.594 188.139  0.00  0.00    +0.023 HD
ATOM     56  H   UNL     1     144.434 171.852 188.525  0.00  0.00    +0.023 HD
ATOM     57  H   UNL     1     144.889 170.585 187.389  0.00  0.00    +0.023 HD
ENDBRANCH  52  54
BRANCH  52  58
ATOM     58  C   UNL     1     143.912 169.626 190.072  0.00  0.00    +0.070 C 
ATOM     59  H   UNL     1     143.132 169.946 189.368  0.00  0.00    +0.061 HD
BRANCH  58  60
ATOM     60  C   UNL     1     143.639 168.113 190.358  0.00  0.00    +0.002 C 
ATOM     61  H   UNL     1     142.835 167.839 189.656  0.00  0.00    +0.037 HD
BRANCH  60  62
ATOM     62  C   UNL     1     143.027 167.841 191.735  0.00  0.00    -0.057 C 
ATOM     63  H   UNL     1     143.792 167.477 192.430  0.00  0.00    +0.024 HD
ATOM     64  H   UNL     1     142.253 167.068 191.684  0.00  0.00    +0.024 HD
ATOM     65  H   UNL     1     142.590 168.735 192.183  0.00  0.00    +0.024 HD
ENDBRANCH  60  62
BRANCH  60  66
ATOM     66  C   UNL     1     144.785 167.202 189.953  0.00  0.00    -0.065 C 
ATOM     67  C   UNL     1     144.723 166.112 189.172  0.00  0.00    -0.005 C 
ATOM     68  H   UNL     1     145.749 167.521 190.341  0.00  0.00    +0.059 HD
ATOM     69  H   UNL     1     143.767 165.802 188.755  0.00  0.00    +0.078 HD
BRANCH  67  70
ATOM     70  N   UNL     1     145.795 165.293 188.845  0.00  0.00    -0.284 N 
ATOM     71  C   UNL     1     146.033 164.121 189.557  0.00  0.00    +0.206 C 
ATOM     72  O   UNL     1     146.946 163.326 189.374  0.00  0.00    -0.279 OA
ATOM     73  H   UNL     1     145.291 163.945 190.355  0.00  0.00    +0.126 HD
BRANCH  70  74
ATOM     74  C   UNL     1     146.715 165.633 187.769  0.00  0.00    +0.007 C 
ATOM     75  H   UNL     1     146.750 166.712 187.589  0.00  0.00    +0.043 HD
ATOM     76  H   UNL     1     146.389 165.144 186.846  0.00  0.00    +0.043 HD
ATOM     77  H   UNL     1     147.724 165.301 188.038  0.00  0.00    +0.043 HD
ENDBRANCH  70  74
ENDBRANCH  67  70
ENDBRANCH  60  66
ENDBRANCH  58  60
BRANCH  58  78
ATOM     78  O   UNL     1     143.643 170.306 191.325  0.00  0.00    -0.379 OA
BRANCH  78  79
ATOM     79  C   UNL     1     142.770 171.424 191.206  0.00  0.00    +0.037 C 
ATOM     80  H   UNL     1     142.813 171.857 190.204  0.00  0.00    +0.052 HD
ATOM     81  H   UNL     1     143.097 172.187 191.918  0.00  0.00    +0.052 HD
ATOM     82  H   UNL     1     141.740 171.143 191.453  0.00  0.00    +0.052 HD
ENDBRANCH  78  79
ENDBRANCH  58  78
ENDBRANCH  52  58
ENDBRANCH  50  52
BRANCH  50  83
ATOM     83  O   UNL     1     146.859 171.858 190.247  0.00  0.00    -0.459 OA
BRANCH  83  85
ATOM     84  O   UNL     1     145.733 172.978 191.903  0.00  0.00    -0.248 OA
ATOM     85  C   UNL     1     146.759 172.752 191.277  0.00  0.00    +0.337 C 
BRANCH  85  86
ATOM     86  C   UNL     1     148.118 173.424 191.515  0.00  0.00    +0.155 C 
ATOM     87  O   UNL     1     149.212 172.513 191.326  0.00  0.00    -0.365 OA
ATOM     88  C   UNL     1     149.793 172.207 192.599  0.00  0.00    +0.049 C 
ATOM     89  C   UNL     1     148.858 172.754 193.654  0.00  0.00    -0.027 C 
ATOM     90  C   UNL     1     148.233 173.930 192.943  0.00  0.00    -0.014 C 
ATOM     91  H   UNL     1     148.223 174.231 190.782  0.00  0.00    +0.071 HD
ATOM     92  H   UNL     1     149.943 171.128 192.688  0.00  0.00    +0.056 HD
ATOM     93  H   UNL     1     150.771 172.700 192.647  0.00  0.00    +0.056 HD
ATOM     94  H   UNL     1     149.369 173.023 194.582  0.00  0.00    +0.029 HD
ATOM     95  H   UNL     1     148.088 172.012 193.893  0.00  0.00    +0.029 HD
ATOM     96  H   UNL     1     148.922 174.783 192.978  0.00  0.00    +0.030 HD
ATOM     97  H   UNL     1     147.288 174.239 193.398  0.00  0.00    +0.030 HD
ENDBRANCH  85  86
ENDBRANCH  83  85
ENDBRANCH  50  83
ENDBRANCH   1  50
TORSDOF 31
ENDMDL
MODEL 5
REMARK VINA RESULT:      -4.9      3.042      6.951
REMARK  Name = 2u_conf1
REMARK  31 active torsions:
REMARK  status: ('A' for Active; 'I' for Inactive)
REMARK    1  A    between atoms: C_2  and  C_3
REMARK    2  A    between atoms: C_2  and  O_8
REMARK    3  A    between atoms: O_8  and  C_9
REMARK    4  A    between atoms: C_9  and  C_10
REMARK    5  A    between atoms: C_9  and  C_29
REMARK    6  A    between atoms: C_10  and  C_11
REMARK    7  A    between atoms: C_11  and  C_12
REMARK    8  A    between atoms: C_12  and  C_13
REMARK    9  A    between atoms: C_12  and  C_14
REMARK   10  A    between atoms: C_14  and  O_15
REMARK   11  A    between atoms: C_14  and  C_17
REMARK   12  A    between atoms: O_15  and  C_16
REMARK   13  A    between atoms: C_17  and  C_18
REMARK   14  A    between atoms: C_18  and  O_19
REMARK   15  A    between atoms: C_18  and  C_26
REMARK   16  A    between atoms: O_19  and  C_20
REMARK   17  A    between atoms: C_20  and  C_21
REMARK   18  A    between atoms: C_21  and  C_22
REMARK   19  A    between atoms: C_22  and  C_23
REMARK   20  A    between atoms: C_23  and  N_24
REMARK   21  A    between atoms: C_26  and  C_27
REMARK   22  A    between atoms: C_26  and  C_28
REMARK   23  A    between atoms: C_29  and  C_30
REMARK   24  A    between atoms: C_29  and  C_31
REMARK   25  A    between atoms: C_31  and  O_32
REMARK   26  A    between atoms: C_31  and  C_34
REMARK   27  A    between atoms: O_32  and  C_33
REMARK   28  A    between atoms: C_34  and  C_35
REMARK   29  A    between atoms: C_34  and  C_36
REMARK   30  A    between atoms: C_37  and  N_38
REMARK   31  A    between atoms: N_38  and  C_39
REMARK                            x       y       z     vdW  Elec       q    Type
REMARK                         _______ _______ _______ _____ _____    ______ ____
ROOT
ATOM      1  C   UNL     1     148.991 169.984 191.073  0.00  0.00    -0.015 C 
ATOM      2  H   UNL     1     149.295 170.936 191.502  0.00  0.00    +0.030 HD
ATOM      3  H   UNL     1     149.630 169.848 190.193  0.00  0.00    +0.030 HD
ENDROOT
BRANCH   1   4
ATOM      4  C   UNL     1     149.310 168.901 192.118  0.00  0.00    -0.045 C 
ATOM      5  H   UNL     1     148.920 167.943 191.751  0.00  0.00    +0.027 HD
ATOM      6  H   UNL     1     148.738 169.119 193.029  0.00  0.00    +0.027 HD
BRANCH   4   7
ATOM      7  C   UNL     1     150.805 168.736 192.474  0.00  0.00    -0.017 C 
ATOM      8  H   UNL     1     150.915 168.878 193.556  0.00  0.00    +0.032 HD
BRANCH   7   9
ATOM      9  C   UNL     1     151.592 169.867 191.793  0.00  0.00    -0.060 C 
ATOM     10  H   UNL     1     152.653 169.814 192.066  0.00  0.00    +0.023 HD
ATOM     11  H   UNL     1     151.541 169.792 190.704  0.00  0.00    +0.023 HD
ATOM     12  H   UNL     1     151.221 170.854 192.089  0.00  0.00    +0.023 HD
ENDBRANCH   7   9
BRANCH   7  13
ATOM     13  C   UNL     1     151.353 167.328 192.113  0.00  0.00    +0.064 C 
ATOM     14  H   UNL     1     150.550 166.745 191.649  0.00  0.00    +0.060 HD
BRANCH  13  15
ATOM     15  C   UNL     1     151.837 166.573 193.367  0.00  0.00    +0.011 C 
ATOM     16  H   UNL     1     151.776 167.254 194.223  0.00  0.00    +0.033 HD
ATOM     17  H   UNL     1     152.880 166.267 193.237  0.00  0.00    +0.033 HD
BRANCH  15  18
ATOM     18  C   UNL     1     150.992 165.315 193.656  0.00  0.00    +0.108 C 
ATOM     19  H   UNL     1     151.673 164.460 193.753  0.00  0.00    +0.074 HD
BRANCH  18  20
ATOM     20  C   UNL     1     150.185 165.466 194.970  0.00  0.00    -0.009 C 
ATOM     21  H   UNL     1     149.884 164.462 195.301  0.00  0.00    +0.033 HD
BRANCH  20  22
ATOM     22  C   UNL     1     150.982 166.119 196.102  0.00  0.00    -0.059 C 
ATOM     23  H   UNL     1     150.419 166.930 196.580  0.00  0.00    +0.023 HD
ATOM     24  H   UNL     1     151.222 165.382 196.877  0.00  0.00    +0.023 HD
ATOM     25  H   UNL     1     151.930 166.529 195.740  0.00  0.00    +0.023 HD
ENDBRANCH  20  22
BRANCH  20  26
ATOM     26  C   UNL     1     148.892 166.254 194.741  0.00  0.00    -0.059 C 
ATOM     27  H   UNL     1     149.018 167.028 193.979  0.00  0.00    +0.023 HD
ATOM     28  H   UNL     1     148.081 165.589 194.425  0.00  0.00    +0.023 HD
ATOM     29  H   UNL     1     148.573 166.747 195.665  0.00  0.00    +0.023 HD
ENDBRANCH  20  26
ENDBRANCH  18  20
BRANCH  18  30
ATOM     30  O   UNL     1     150.103 165.147 192.528  0.00  0.00    -0.461 OA
BRANCH  30  31
ATOM     31  C   UNL     1     149.843 163.880 192.104  0.00  0.00    +0.307 C 
ATOM     32  O   UNL     1     148.883 163.200 192.437  0.00  0.00    -0.251 OA
BRANCH  31  33
ATOM     33  C   UNL     1     150.994 163.388 191.254  0.00  0.00    +0.046 C 
ATOM     34  H   UNL     1     151.508 164.237 190.789  0.00  0.00    +0.038 HD
ATOM     35  H   UNL     1     151.700 162.908 191.943  0.00  0.00    +0.038 HD
BRANCH  33  36
ATOM     36  C   UNL     1     150.563 162.383 190.185  0.00  0.00    -0.031 C 
ATOM     37  H   UNL     1     151.045 162.604 189.225  0.00  0.00    +0.028 HD
ATOM     38  H   UNL     1     149.483 162.490 190.025  0.00  0.00    +0.028 HD
BRANCH  36  39
ATOM     39  C   UNL     1     150.832 160.928 190.576  0.00  0.00    -0.006 C 
ATOM     40  H   UNL     1     151.748 160.877 191.175  0.00  0.00    +0.042 HD
ATOM     41  H   UNL     1     151.000 160.329 189.673  0.00  0.00    +0.042 HD
BRANCH  39  42
ATOM     42  N   UNL     1     149.732 160.348 191.329  0.00  0.00    -0.330 NA
ATOM     43  H   UNL     1     148.892 160.304 190.747  0.00  0.00    +0.118 HD
ATOM     44  H   UNL     1     149.501 160.950 192.120  0.00  0.00    +0.118 HD
ENDBRANCH  39  42
ENDBRANCH  36  39
ENDBRANCH  33  36
ENDBRANCH  31  33
ENDBRANCH  30  31
ENDBRANCH  18  30
ENDBRANCH  15  18
ENDBRANCH  13  15
BRANCH  13  45
ATOM     45  O   UNL     1     152.463 167.468 191.218  0.00  0.00    -0.379 OA
BRANCH  45  46
ATOM     46  C   UNL     1     152.382 166.633 190.072  0.00  0.00    +0.037 C 
ATOM     47  H   UNL     1     152.835 167.120 189.205  0.00  0.00    +0.052 HD
ATOM     48  H   UNL     1     152.867 165.671 190.259  0.00  0.00    +0.052 HD
ATOM     49  H   UNL     1     151.326 166.452 189.855  0.00  0.00    +0.052 HD
ENDBRANCH  45  46
ENDBRANCH  13  45
ENDBRANCH   7  13
ENDBRANCH   4   7
ENDBRANCH   1   4
BRANCH   1  50
ATOM     50  C   UNL     1     147.517 170.048 190.639  0.00  0.00    +0.108 C 
ATOM     51  H   UNL     1     146.946 169.733 191.524  0.00  0.00    +0.074 HD
BRANCH  50  52
ATOM     52  C   UNL     1     147.113 169.090 189.484  0.00  0.00    +0.020 C 
ATOM     53  H   UNL     1     148.063 168.595 189.233  0.00  0.00    +0.036 HD
BRANCH  52  54
ATOM     54  C   UNL     1     146.761 169.840 188.194  0.00  0.00    -0.057 C 
ATOM     55  H   UNL     1     146.089 170.681 188.390  0.00  0.00    +0.023 HD
ATOM     56  H   UNL     1     146.242 169.170 187.499  0.00  0.00    +0.023 HD
ATOM     57  H   UNL     1     147.641 170.226 187.675  0.00  0.00    +0.023 HD
ENDBRANCH  52  54
BRANCH  52  58
ATOM     58  C   UNL     1     146.171 167.891 189.825  0.00  0.00    +0.070 C 
ATOM     59  H   UNL     1     145.413 167.832 189.032  0.00  0.00    +0.061 HD
BRANCH  58  60
ATOM     60  C   UNL     1     146.729 166.439 189.994  0.00  0.00    +0.002 C 
ATOM     61  H   UNL     1     146.600 166.216 191.065  0.00  0.00    +0.037 HD
BRANCH  60  62
ATOM     62  C   UNL     1     148.240 166.324 189.778  0.00  0.00    -0.057 C 
ATOM     63  H   UNL     1     148.763 167.152 190.270  0.00  0.00    +0.024 HD
ATOM     64  H   UNL     1     148.498 166.376 188.715  0.00  0.00    +0.024 HD
ATOM     65  H   UNL     1     148.652 165.400 190.187  0.00  0.00    +0.024 HD
ENDBRANCH  60  62
BRANCH  60  66
ATOM     66  C   UNL     1     145.882 165.380 189.311  0.00  0.00    -0.065 C 
ATOM     67  C   UNL     1     144.639 164.993 189.638  0.00  0.00    -0.005 C 
ATOM     68  H   UNL     1     146.365 164.929 188.448  0.00  0.00    +0.059 HD
ATOM     69  H   UNL     1     144.135 165.460 190.482  0.00  0.00    +0.078 HD
BRANCH  67  70
ATOM     70  N   UNL     1     143.908 164.002 188.998  0.00  0.00    -0.284 N 
ATOM     71  C   UNL     1     144.503 162.790 188.659  0.00  0.00    +0.206 C 
ATOM     72  O   UNL     1     143.971 161.849 188.086  0.00  0.00    -0.279 OA
ATOM     73  H   UNL     1     145.563 162.733 188.962  0.00  0.00    +0.126 HD
BRANCH  70  74
ATOM     74  C   UNL     1     142.509 164.195 188.641  0.00  0.00    +0.007 C 
ATOM     75  H   UNL     1     141.891 164.413 189.518  0.00  0.00    +0.043 HD
ATOM     76  H   UNL     1     142.126 163.282 188.174  0.00  0.00    +0.043 HD
ATOM     77  H   UNL     1     142.426 165.039 187.948  0.00  0.00    +0.043 HD
ENDBRANCH  70  74
ENDBRANCH  67  70
ENDBRANCH  60  66
ENDBRANCH  58  60
BRANCH  58  78
ATOM     78  O   UNL     1     145.459 168.171 191.058  0.00  0.00    -0.379 OA
BRANCH  78  79
ATOM     79  C   UNL     1     144.057 168.352 190.893  0.00  0.00    +0.037 C 
ATOM     80  H   UNL     1     143.542 167.395 190.786  0.00  0.00    +0.052 HD
ATOM     81  H   UNL     1     143.895 168.927 189.976  0.00  0.00    +0.052 HD
ATOM     82  H   UNL     1     143.635 168.918 191.730  0.00  0.00    +0.052 HD
ENDBRANCH  78  79
ENDBRANCH  58  78
ENDBRANCH  52  58
ENDBRANCH  50  52
BRANCH  50  83
ATOM     83  O   UNL     1     147.167 171.410 190.321  0.00  0.00    -0.459 OA
BRANCH  83  85
ATOM     84  O   UNL     1     145.161 171.550 191.425  0.00  0.00    -0.248 OA
ATOM     85  C   UNL     1     146.259 172.012 191.148  0.00  0.00    +0.337 C 
BRANCH  85  86
ATOM     86  C   UNL     1     146.824 173.343 191.659  0.00  0.00    +0.155 C 
ATOM     87  O   UNL     1     148.169 173.569 191.209  0.00  0.00    -0.365 OA
ATOM     88  C   UNL     1     149.063 173.429 192.319  0.00  0.00    +0.049 C 
ATOM     89  C   UNL     1     148.264 172.840 193.459  0.00  0.00    -0.027 C 
ATOM     90  C   UNL     1     146.878 173.365 193.178  0.00  0.00    -0.014 C 
ATOM     91  H   UNL     1     146.197 174.147 191.258  0.00  0.00    +0.071 HD
ATOM     92  H   UNL     1     149.913 172.804 192.033  0.00  0.00    +0.056 HD
ATOM     93  H   UNL     1     149.437 174.428 192.575  0.00  0.00    +0.056 HD
ATOM     94  H   UNL     1     148.649 173.122 194.443  0.00  0.00    +0.029 HD
ATOM     95  H   UNL     1     148.269 171.746 193.394  0.00  0.00    +0.029 HD
ATOM     96  H   UNL     1     146.801 174.400 193.535  0.00  0.00    +0.030 HD
ATOM     97  H   UNL     1     146.100 172.778 193.673  0.00  0.00    +0.030 HD
ENDBRANCH  85  86
ENDBRANCH  83  85
ENDBRANCH  50  83
ENDBRANCH   1  50
TORSDOF 31
ENDMDL
MODEL 6
REMARK VINA RESULT:      -4.9      3.210      7.392
REMARK  Name = 2u_conf1
REMARK  31 active torsions:
REMARK  status: ('A' for Active; 'I' for Inactive)
REMARK    1  A    between atoms: C_2  and  C_3
REMARK    2  A    between atoms: C_2  and  O_8
REMARK    3  A    between atoms: O_8  and  C_9
REMARK    4  A    between atoms: C_9  and  C_10
REMARK    5  A    between atoms: C_9  and  C_29
REMARK    6  A    between atoms: C_10  and  C_11
REMARK    7  A    between atoms: C_11  and  C_12
REMARK    8  A    between atoms: C_12  and  C_13
REMARK    9  A    between atoms: C_12  and  C_14
REMARK   10  A    between atoms: C_14  and  O_15
REMARK   11  A    between atoms: C_14  and  C_17
REMARK   12  A    between atoms: O_15  and  C_16
REMARK   13  A    between atoms: C_17  and  C_18
REMARK   14  A    between atoms: C_18  and  O_19
REMARK   15  A    between atoms: C_18  and  C_26
REMARK   16  A    between atoms: O_19  and  C_20
REMARK   17  A    between atoms: C_20  and  C_21
REMARK   18  A    between atoms: C_21  and  C_22
REMARK   19  A    between atoms: C_22  and  C_23
REMARK   20  A    between atoms: C_23  and  N_24
REMARK   21  A    between atoms: C_26  and  C_27
REMARK   22  A    between atoms: C_26  and  C_28
REMARK   23  A    between atoms: C_29  and  C_30
REMARK   24  A    between atoms: C_29  and  C_31
REMARK   25  A    between atoms: C_31  and  O_32
REMARK   26  A    between atoms: C_31  and  C_34
REMARK   27  A    between atoms: O_32  and  C_33
REMARK   28  A    between atoms: C_34  and  C_35
REMARK   29  A    between atoms: C_34  and  C_36
REMARK   30  A    between atoms: C_37  and  N_38
REMARK   31  A    between atoms: N_38  and  C_39
REMARK                            x       y       z     vdW  Elec       q    Type
REMARK                         _______ _______ _______ _____ _____    ______ ____
ROOT
ATOM      1  C   UNL     1     148.391 168.971 191.466  0.00  0.00    -0.015 C 
ATOM      2  H   UNL     1     148.772 168.103 190.933  0.00  0.00    +0.030 HD
ATOM      3  H   UNL     1     148.056 168.589 192.437  0.00  0.00    +0.030 HD
ENDROOT
BRANCH   1   4
ATOM      4  C   UNL     1     149.578 169.929 191.667  0.00  0.00    -0.045 C 
ATOM      5  H   UNL     1     149.229 170.793 192.247  0.00  0.00    +0.027 HD
ATOM      6  H   UNL     1     149.869 170.332 190.689  0.00  0.00    +0.027 HD
BRANCH   4   7
ATOM      7  C   UNL     1     150.816 169.320 192.364  0.00  0.00    -0.017 C 
ATOM      8  H   UNL     1     150.675 169.408 193.448  0.00  0.00    +0.032 HD
BRANCH   7   9
ATOM      9  C   UNL     1     152.043 170.173 192.003  0.00  0.00    -0.060 C 
ATOM     10  H   UNL     1     151.968 171.166 192.461  0.00  0.00    +0.023 HD
ATOM     11  H   UNL     1     152.968 169.722 192.373  0.00  0.00    +0.023 HD
ATOM     12  H   UNL     1     152.136 170.311 190.921  0.00  0.00    +0.023 HD
ENDBRANCH   7   9
BRANCH   7  13
ATOM     13  C   UNL     1     151.014 167.817 192.023  0.00  0.00    +0.064 C 
ATOM     14  H   UNL     1     150.032 167.359 191.864  0.00  0.00    +0.060 HD
BRANCH  13  15
ATOM     15  C   UNL     1     151.720 167.068 193.170  0.00  0.00    +0.011 C 
ATOM     16  H   UNL     1     152.063 167.805 193.904  0.00  0.00    +0.033 HD
ATOM     17  H   UNL     1     152.590 166.529 192.782  0.00  0.00    +0.033 HD
BRANCH  15  18
ATOM     18  C   UNL     1     150.789 166.052 193.866  0.00  0.00    +0.108 C 
ATOM     19  H   UNL     1     150.820 165.114 193.298  0.00  0.00    +0.074 HD
BRANCH  18  20
ATOM     20  C   UNL     1     151.243 165.775 195.321  0.00  0.00    -0.009 C 
ATOM     21  H   UNL     1     152.239 166.220 195.457  0.00  0.00    +0.033 HD
BRANCH  20  22
ATOM     22  C   UNL     1     150.308 166.377 196.375  0.00  0.00    -0.059 C 
ATOM     23  H   UNL     1     149.327 166.625 195.952  0.00  0.00    +0.023 HD
ATOM     24  H   UNL     1     150.144 165.665 197.193  0.00  0.00    +0.023 HD
ATOM     25  H   UNL     1     150.731 167.285 196.813  0.00  0.00    +0.023 HD
ENDBRANCH  20  22
BRANCH  20  26
ATOM     26  C   UNL     1     151.397 164.274 195.580  0.00  0.00    -0.059 C 
ATOM     27  H   UNL     1     151.949 163.778 194.777  0.00  0.00    +0.023 HD
ATOM     28  H   UNL     1     151.927 164.094 196.523  0.00  0.00    +0.023 HD
ATOM     29  H   UNL     1     150.417 163.793 195.656  0.00  0.00    +0.023 HD
ENDBRANCH  20  26
ENDBRANCH  18  20
BRANCH  18  30
ATOM     30  O   UNL     1     149.463 166.627 193.848  0.00  0.00    -0.461 OA
BRANCH  30  31
ATOM     31  C   UNL     1     148.407 165.792 193.648  0.00  0.00    +0.307 C 
ATOM     32  O   UNL     1     148.473 164.659 193.192  0.00  0.00    -0.251 OA
BRANCH  31  33
ATOM     33  C   UNL     1     147.119 166.525 193.952  0.00  0.00    +0.046 C 
ATOM     34  H   UNL     1     146.764 166.259 194.953  0.00  0.00    +0.038 HD
ATOM     35  H   UNL     1     147.369 167.593 193.960  0.00  0.00    +0.038 HD
BRANCH  33  36
ATOM     36  C   UNL     1     146.024 166.266 192.917  0.00  0.00    -0.031 C 
ATOM     37  H   UNL     1     146.241 165.361 192.336  0.00  0.00    +0.028 HD
ATOM     38  H   UNL     1     146.016 167.100 192.205  0.00  0.00    +0.028 HD
BRANCH  36  39
ATOM     39  C   UNL     1     144.624 166.165 193.527  0.00  0.00    -0.006 C 
ATOM     40  H   UNL     1     144.706 166.141 194.620  0.00  0.00    +0.042 HD
ATOM     41  H   UNL     1     144.153 165.225 193.214  0.00  0.00    +0.042 HD
BRANCH  39  42
ATOM     42  N   UNL     1     143.771 167.274 193.132  0.00  0.00    -0.330 NA
ATOM     43  H   UNL     1     144.046 167.619 192.209  0.00  0.00    +0.118 HD
ATOM     44  H   UNL     1     143.897 168.053 193.779  0.00  0.00    +0.118 HD
ENDBRANCH  39  42
ENDBRANCH  36  39
ENDBRANCH  33  36
ENDBRANCH  31  33
ENDBRANCH  30  31
ENDBRANCH  18  30
ENDBRANCH  15  18
ENDBRANCH  13  15
BRANCH  13  45
ATOM     45  O   UNL     1     151.825 167.702 190.847  0.00  0.00    -0.379 OA
BRANCH  45  46
ATOM     46  C   UNL     1     152.601 166.513 190.802  0.00  0.00    +0.037 C 
ATOM     47  H   UNL     1     152.074 165.727 190.257  0.00  0.00    +0.052 HD
ATOM     48  H   UNL     1     153.573 166.703 190.341  0.00  0.00    +0.052 HD
ATOM     49  H   UNL     1     152.765 166.173 191.828  0.00  0.00    +0.052 HD
ENDBRANCH  45  46
ENDBRANCH  13  45
ENDBRANCH   7  13
ENDBRANCH   4   7
ENDBRANCH   1   4
BRANCH   1  50
ATOM     50  C   UNL     1     147.197 169.574 190.706  0.00  0.00    +0.108 C 
ATOM     51  H   UNL     1     146.320 169.353 191.331  0.00  0.00    +0.074 HD
BRANCH  50  52
ATOM     52  C   UNL     1     146.912 168.962 189.306  0.00  0.00    +0.020 C 
ATOM     53  H   UNL     1     147.242 169.756 188.620  0.00  0.00    +0.036 HD
BRANCH  52  54
ATOM     54  C   UNL     1     145.412 168.848 189.009  0.00  0.00    -0.057 C 
ATOM     55  H   UNL     1     145.024 169.762 188.551  0.00  0.00    +0.023 HD
ATOM     56  H   UNL     1     144.855 168.694 189.941  0.00  0.00    +0.023 HD
ATOM     57  H   UNL     1     145.174 168.012 188.348  0.00  0.00    +0.023 HD
ENDBRANCH  52  54
BRANCH  52  58
ATOM     58  C   UNL     1     147.766 167.732 188.859  0.00  0.00    +0.070 C 
ATOM     59  H   UNL     1     148.823 168.017 188.949  0.00  0.00    +0.061 HD
BRANCH  58  60
ATOM     60  C   UNL     1     147.633 166.346 189.570  0.00  0.00    +0.002 C 
ATOM     61  H   UNL     1     147.242 166.585 190.572  0.00  0.00    +0.037 HD
BRANCH  60  62
ATOM     62  C   UNL     1     148.972 165.661 189.856  0.00  0.00    -0.057 C 
ATOM     63  H   UNL     1     149.558 165.562 188.935  0.00  0.00    +0.024 HD
ATOM     64  H   UNL     1     148.829 164.650 190.250  0.00  0.00    +0.024 HD
ATOM     65  H   UNL     1     149.585 166.221 190.564  0.00  0.00    +0.024 HD
ENDBRANCH  60  62
BRANCH  60  66
ATOM     66  C   UNL     1     146.552 165.459 188.974  0.00  0.00    -0.065 C 
ATOM     67  C   UNL     1     145.650 164.718 189.635  0.00  0.00    -0.005 C 
ATOM     68  H   UNL     1     146.527 165.479 187.888  0.00  0.00    +0.059 HD
ATOM     69  H   UNL     1     145.648 164.715 190.723  0.00  0.00    +0.078 HD
BRANCH  67  70
ATOM     70  N   UNL     1     144.692 163.902 189.049  0.00  0.00    -0.284 N 
ATOM     71  C   UNL     1     143.413 164.387 188.788  0.00  0.00    +0.206 C 
ATOM     72  O   UNL     1     142.483 163.766 188.289  0.00  0.00    -0.279 OA
ATOM     73  H   UNL     1     143.285 165.442 189.084  0.00  0.00    +0.126 HD
BRANCH  70  74
ATOM     74  C   UNL     1     144.976 162.516 188.706  0.00  0.00    +0.007 C 
ATOM     75  H   UNL     1     145.724 162.438 187.910  0.00  0.00    +0.043 HD
ATOM     76  H   UNL     1     144.057 162.034 188.357  0.00  0.00    +0.043 HD
ATOM     77  H   UNL     1     145.365 161.997 189.589  0.00  0.00    +0.043 HD
ENDBRANCH  70  74
ENDBRANCH  67  70
ENDBRANCH  60  66
ENDBRANCH  58  60
BRANCH  58  78
ATOM     78  O   UNL     1     147.527 167.464 187.454  0.00  0.00    -0.379 OA
BRANCH  78  79
ATOM     79  C   UNL     1     148.610 167.819 186.600  0.00  0.00    +0.037 C 
ATOM     80  H   UNL     1     148.495 168.835 186.215  0.00  0.00    +0.052 HD
ATOM     81  H   UNL     1     148.609 167.133 185.748  0.00  0.00    +0.052 HD
ATOM     82  H   UNL     1     149.568 167.717 187.121  0.00  0.00    +0.052 HD
ENDBRANCH  78  79
ENDBRANCH  58  78
ENDBRANCH  52  58
ENDBRANCH  50  52
BRANCH  50  83
ATOM     83  O   UNL     1     147.356 171.004 190.618  0.00  0.00    -0.459 OA
BRANCH  83  85
ATOM     84  O   UNL     1     145.230 171.387 191.393  0.00  0.00    -0.248 OA
ATOM     85  C   UNL     1     146.380 171.761 191.207  0.00  0.00    +0.337 C 
BRANCH  85  86
ATOM     86  C   UNL     1     146.947 173.134 191.589  0.00  0.00    +0.155 C 
ATOM     87  O   UNL     1     148.341 173.253 191.264  0.00  0.00    -0.365 OA
ATOM     88  C   UNL     1     149.107 173.247 192.474  0.00  0.00    +0.049 C 
ATOM     89  C   UNL     1     148.167 172.850 193.590  0.00  0.00    -0.027 C 
ATOM     90  C   UNL     1     146.843 173.370 193.087  0.00  0.00    -0.014 C 
ATOM     91  H   UNL     1     146.403 173.890 191.014  0.00  0.00    +0.071 HD
ATOM     92  H   UNL     1     149.954 172.562 192.373  0.00  0.00    +0.056 HD
ATOM     93  H   UNL     1     149.496 174.260 192.629  0.00  0.00    +0.056 HD
ATOM     94  H   UNL     1     148.458 173.257 194.561  0.00  0.00    +0.029 HD
ATOM     95  H   UNL     1     148.130 171.758 193.677  0.00  0.00    +0.029 HD
ATOM     96  H   UNL     1     146.775 174.446 193.287  0.00  0.00    +0.030 HD
ATOM     97  H   UNL     1     145.992 172.882 193.569  0.00  0.00    +0.030 HD
ENDBRANCH  85  86
ENDBRANCH  83  85
ENDBRANCH  50  83
ENDBRANCH   1  50
TORSDOF 31
ENDMDL
MODEL 7
REMARK VINA RESULT:      -4.9      2.927      6.871
REMARK  Name = 2u_conf1
REMARK  31 active torsions:
REMARK  status: ('A' for Active; 'I' for Inactive)
REMARK    1  A    between atoms: C_2  and  C_3
REMARK    2  A    between atoms: C_2  and  O_8
REMARK    3  A    between atoms: O_8  and  C_9
REMARK    4  A    between atoms: C_9  and  C_10
REMARK    5  A    between atoms: C_9  and  C_29
REMARK    6  A    between atoms: C_10  and  C_11
REMARK    7  A    between atoms: C_11  and  C_12
REMARK    8  A    between atoms: C_12  and  C_13
REMARK    9  A    between atoms: C_12  and  C_14
REMARK   10  A    between atoms: C_14  and  O_15
REMARK   11  A    between atoms: C_14  and  C_17
REMARK   12  A    between atoms: O_15  and  C_16
REMARK   13  A    between atoms: C_17  and  C_18
REMARK   14  A    between atoms: C_18  and  O_19
REMARK   15  A    between atoms: C_18  and  C_26
REMARK   16  A    between atoms: O_19  and  C_20
REMARK   17  A    between atoms: C_20  and  C_21
REMARK   18  A    between atoms: C_21  and  C_22
REMARK   19  A    between atoms: C_22  and  C_23
REMARK   20  A    between atoms: C_23  and  N_24
REMARK   21  A    between atoms: C_26  and  C_27
REMARK   22  A    between atoms: C_26  and  C_28
REMARK   23  A    between atoms: C_29  and  C_30
REMARK   24  A    between atoms: C_29  and  C_31
REMARK   25  A    between atoms: C_31  and  O_32
REMARK   26  A    between atoms: C_31  and  C_34
REMARK   27  A    between atoms: O_32  and  C_33
REMARK   28  A    between atoms: C_34  and  C_35
REMARK   29  A    between atoms: C_34  and  C_36
REMARK   30  A    between atoms: C_37  and  N_38
REMARK   31  A    between atoms: N_38  and  C_39
REMARK                            x       y       z     vdW  Elec       q    Type
REMARK                         _______ _______ _______ _____ _____    ______ ____
ROOT
ATOM      1  C   UNL     1     148.656 169.923 190.551  0.00  0.00    -0.015 C 
ATOM      2  H   UNL     1     149.232 170.809 190.294  0.00  0.00    +0.030 HD
ATOM      3  H   UNL     1     148.932 169.172 189.801  0.00  0.00    +0.030 HD
ENDROOT
BRANCH   1   4
ATOM      4  C   UNL     1     149.133 169.468 191.941  0.00  0.00    -0.045 C 
ATOM      5  H   UNL     1     148.468 168.667 192.288  0.00  0.00    +0.027 HD
ATOM      6  H   UNL     1     148.986 170.295 192.646  0.00  0.00    +0.027 HD
BRANCH   4   7
ATOM      7  C   UNL     1     150.597 168.978 192.017  0.00  0.00    -0.017 C 
ATOM      8  H   UNL     1     150.777 168.595 193.028  0.00  0.00    +0.032 HD
BRANCH   7   9
ATOM      9  C   UNL     1     151.523 170.191 191.828  0.00  0.00    -0.060 C 
ATOM     10  H   UNL     1     151.576 170.780 192.751  0.00  0.00    +0.023 HD
ATOM     11  H   UNL     1     152.545 169.882 191.589  0.00  0.00    +0.023 HD
ATOM     12  H   UNL     1     151.167 170.852 191.031  0.00  0.00    +0.023 HD
ENDBRANCH   7   9
BRANCH   7  13
ATOM     13  C   UNL     1     150.898 167.836 191.007  0.00  0.00    +0.064 C 
ATOM     14  H   UNL     1     150.035 167.716 190.343  0.00  0.00    +0.060 HD
BRANCH  13  15
ATOM     15  C   UNL     1     151.145 166.497 191.728  0.00  0.00    +0.011 C 
ATOM     16  H   UNL     1     151.508 166.712 192.739  0.00  0.00    +0.033 HD
ATOM     17  H   UNL     1     151.912 165.924 191.196  0.00  0.00    +0.033 HD
BRANCH  15  18
ATOM     18  C   UNL     1     149.868 165.636 191.818  0.00  0.00    +0.108 C 
ATOM     19  H   UNL     1     149.016 166.251 191.503  0.00  0.00    +0.074 HD
BRANCH  18  20
ATOM     20  C   UNL     1     149.959 164.393 190.896  0.00  0.00    -0.009 C 
ATOM     21  H   UNL     1     149.913 164.739 189.854  0.00  0.00    +0.033 HD
BRANCH  20  22
ATOM     22  C   UNL     1     151.255 163.597 191.075  0.00  0.00    -0.059 C 
ATOM     23  H   UNL     1     151.894 163.659 190.186  0.00  0.00    +0.023 HD
ATOM     24  H   UNL     1     151.830 163.986 191.923  0.00  0.00    +0.023 HD
ATOM     25  H   UNL     1     151.051 162.542 191.277  0.00  0.00    +0.023 HD
ENDBRANCH  20  22
BRANCH  20  26
ATOM     26  C   UNL     1     148.761 163.461 191.098  0.00  0.00    -0.059 C 
ATOM     27  H   UNL     1     148.396 163.486 192.128  0.00  0.00    +0.023 HD
ATOM     28  H   UNL     1     147.934 163.740 190.434  0.00  0.00    +0.023 HD
ATOM     29  H   UNL     1     149.034 162.427 190.868  0.00  0.00    +0.023 HD
ENDBRANCH  20  26
ENDBRANCH  18  20
BRANCH  18  30
ATOM     30  O   UNL     1     149.737 165.234 193.201  0.00  0.00    -0.461 OA
BRANCH  30  31
ATOM     31  C   UNL     1     149.329 166.170 194.101  0.00  0.00    +0.307 C 
ATOM     32  O   UNL     1     148.337 166.876 193.994  0.00  0.00    -0.251 OA
BRANCH  31  33
ATOM     33  C   UNL     1     150.364 166.298 195.198  0.00  0.00    +0.046 C 
ATOM     34  H   UNL     1     151.368 166.342 194.763  0.00  0.00    +0.038 HD
ATOM     35  H   UNL     1     150.172 167.259 195.690  0.00  0.00    +0.038 HD
BRANCH  33  36
ATOM     36  C   UNL     1     150.285 165.173 196.231  0.00  0.00    -0.031 C 
ATOM     37  H   UNL     1     149.274 164.748 196.269  0.00  0.00    +0.028 HD
ATOM     38  H   UNL     1     150.483 165.599 197.222  0.00  0.00    +0.028 HD
BRANCH  36  39
ATOM     39  C   UNL     1     151.305 164.058 195.993  0.00  0.00    -0.006 C 
ATOM     40  H   UNL     1     152.314 164.443 196.183  0.00  0.00    +0.042 HD
ATOM     41  H   UNL     1     151.269 163.743 194.943  0.00  0.00    +0.042 HD
BRANCH  39  42
ATOM     42  N   UNL     1     151.065 162.902 196.841  0.00  0.00    -0.330 NA
ATOM     43  H   UNL     1     151.550 162.083 196.465  0.00  0.00    +0.118 HD
ATOM     44  H   UNL     1     150.071 162.673 196.838  0.00  0.00    +0.118 HD
ENDBRANCH  39  42
ENDBRANCH  36  39
ENDBRANCH  33  36
ENDBRANCH  31  33
ENDBRANCH  30  31
ENDBRANCH  18  30
ENDBRANCH  15  18
ENDBRANCH  13  15
BRANCH  13  45
ATOM     45  O   UNL     1     152.074 168.165 190.257  0.00  0.00    -0.379 OA
BRANCH  45  46
ATOM     46  C   UNL     1     152.817 167.032 189.832  0.00  0.00    +0.037 C 
ATOM     47  H   UNL     1     152.315 166.107 190.126  0.00  0.00    +0.052 HD
ATOM     48  H   UNL     1     152.967 167.051 188.750  0.00  0.00    +0.052 HD
ATOM     49  H   UNL     1     153.796 167.064 190.318  0.00  0.00    +0.052 HD
ENDBRANCH  45  46
ENDBRANCH  13  45
ENDBRANCH   7  13
ENDBRANCH   4   7
ENDBRANCH   1   4
BRANCH   1  50
ATOM     50  C   UNL     1     147.151 170.226 190.453  0.00  0.00    +0.108 C 
ATOM     51  H   UNL     1     146.735 169.922 191.424  0.00  0.00    +0.074 HD
BRANCH  50  52
ATOM     52  C   UNL     1     146.373 169.431 189.368  0.00  0.00    +0.020 C 
ATOM     53  H   UNL     1     147.179 168.975 188.774  0.00  0.00    +0.036 HD
BRANCH  52  54
ATOM     54  C   UNL     1     145.673 170.347 188.356  0.00  0.00    -0.057 C 
ATOM     55  H   UNL     1     144.601 170.423 188.560  0.00  0.00    +0.023 HD
ATOM     56  H   UNL     1     145.780 169.941 187.344  0.00  0.00    +0.023 HD
ATOM     57  H   UNL     1     146.086 171.358 188.345  0.00  0.00    +0.023 HD
ENDBRANCH  52  54
BRANCH  52  58
ATOM     58  C   UNL     1     145.533 168.197 189.828  0.00  0.00    +0.070 C 
ATOM     59  H   UNL     1     144.724 168.060 189.097  0.00  0.00    +0.061 HD
BRANCH  58  60
ATOM     60  C   UNL     1     146.188 166.789 190.011  0.00  0.00    +0.002 C 
ATOM     61  H   UNL     1     145.529 166.102 189.457  0.00  0.00    +0.037 HD
BRANCH  60  62
ATOM     62  C   UNL     1     146.137 166.261 191.448  0.00  0.00    -0.057 C 
ATOM     63  H   UNL     1     145.212 165.698 191.618  0.00  0.00    +0.024 HD
ATOM     64  H   UNL     1     146.149 167.078 192.176  0.00  0.00    +0.024 HD
ATOM     65  H   UNL     1     146.965 165.587 191.675  0.00  0.00    +0.024 HD
ENDBRANCH  60  62
BRANCH  60  66
ATOM     66  C   UNL     1     147.523 166.643 189.302  0.00  0.00    -0.065 C 
ATOM     67  C   UNL     1     147.788 165.919 188.203  0.00  0.00    -0.005 C 
ATOM     68  H   UNL     1     148.320 167.230 189.753  0.00  0.00    +0.059 HD
ATOM     69  H   UNL     1     146.990 165.352 187.727  0.00  0.00    +0.078 HD
BRANCH  67  70
ATOM     70  N   UNL     1     149.032 165.796 187.599  0.00  0.00    -0.284 N 
ATOM     71  C   UNL     1     149.836 166.915 187.400  0.00  0.00    +0.206 C 
ATOM     72  O   UNL     1     150.940 166.937 186.872  0.00  0.00    -0.279 OA
ATOM     73  H   UNL     1     149.378 167.845 187.777  0.00  0.00    +0.126 HD
BRANCH  70  74
ATOM     74  C   UNL     1     149.531 164.510 187.135  0.00  0.00    +0.007 C 
ATOM     75  H   UNL     1     148.884 164.075 186.366  0.00  0.00    +0.043 HD
ATOM     76  H   UNL     1     149.573 163.812 187.977  0.00  0.00    +0.043 HD
ATOM     77  H   UNL     1     150.529 164.643 186.703  0.00  0.00    +0.043 HD
ENDBRANCH  70  74
ENDBRANCH  67  70
ENDBRANCH  60  66
ENDBRANCH  58  60
BRANCH  58  78
ATOM     78  O   UNL     1     144.899 168.491 191.099  0.00  0.00    -0.379 OA
BRANCH  78  79
ATOM     79  C   UNL     1     143.512 168.796 191.001  0.00  0.00    +0.037 C 
ATOM     80  H   UNL     1     143.299 169.802 191.371  0.00  0.00    +0.052 HD
ATOM     81  H   UNL     1     142.963 168.084 191.624  0.00  0.00    +0.052 HD
ATOM     82  H   UNL     1     143.160 168.690 189.969  0.00  0.00    +0.052 HD
ENDBRANCH  78  79
ENDBRANCH  58  78
ENDBRANCH  52  58
ENDBRANCH  50  52
BRANCH  50  83
ATOM     83  O   UNL     1     146.956 171.645 190.288  0.00  0.00    -0.459 OA
BRANCH  83  85
ATOM     84  O   UNL     1     145.088 171.918 191.593  0.00  0.00    -0.248 OA
ATOM     85  C   UNL     1     146.207 172.271 191.247  0.00  0.00    +0.337 C 
BRANCH  85  86
ATOM     86  C   UNL     1     146.980 173.471 191.808  0.00  0.00    +0.155 C 
ATOM     87  O   UNL     1     148.353 173.474 191.389  0.00  0.00    -0.365 OA
ATOM     88  C   UNL     1     149.186 173.154 192.510  0.00  0.00    +0.049 C 
ATOM     89  C   UNL     1     148.272 172.681 193.618  0.00  0.00    -0.027 C 
ATOM     90  C   UNL     1     147.002 173.443 193.327  0.00  0.00    -0.014 C 
ATOM     91  H   UNL     1     146.509 174.380 191.420  0.00  0.00    +0.071 HD
ATOM     92  H   UNL     1     149.922 172.399 192.221  0.00  0.00    +0.056 HD
ATOM     93  H   UNL     1     149.718 174.066 192.803  0.00  0.00    +0.056 HD
ATOM     94  H   UNL     1     148.676 172.867 194.616  0.00  0.00    +0.029 HD
ATOM     95  H   UNL     1     148.091 171.604 193.520  0.00  0.00    +0.029 HD
ATOM     96  H   UNL     1     147.096 174.466 193.714  0.00  0.00    +0.030 HD
ATOM     97  H   UNL     1     146.124 172.985 193.790  0.00  0.00    +0.030 HD
ENDBRANCH  85  86
ENDBRANCH  83  85
ENDBRANCH  50  83
ENDBRANCH   1  50
TORSDOF 31
ENDMDL
MODEL 8
REMARK VINA RESULT:      -4.9      3.630      6.894
REMARK  Name = 2u_conf1
REMARK  31 active torsions:
REMARK  status: ('A' for Active; 'I' for Inactive)
REMARK    1  A    between atoms: C_2  and  C_3
REMARK    2  A    between atoms: C_2  and  O_8
REMARK    3  A    between atoms: O_8  and  C_9
REMARK    4  A    between atoms: C_9  and  C_10
REMARK    5  A    between atoms: C_9  and  C_29
REMARK    6  A    between atoms: C_10  and  C_11
REMARK    7  A    between atoms: C_11  and  C_12
REMARK    8  A    between atoms: C_12  and  C_13
REMARK    9  A    between atoms: C_12  and  C_14
REMARK   10  A    between atoms: C_14  and  O_15
REMARK   11  A    between atoms: C_14  and  C_17
REMARK   12  A    between atoms: O_15  and  C_16
REMARK   13  A    between atoms: C_17  and  C_18
REMARK   14  A    between atoms: C_18  and  O_19
REMARK   15  A    between atoms: C_18  and  C_26
REMARK   16  A    between atoms: O_19  and  C_20
REMARK   17  A    between atoms: C_20  and  C_21
REMARK   18  A    between atoms: C_21  and  C_22
REMARK   19  A    between atoms: C_22  and  C_23
REMARK   20  A    between atoms: C_23  and  N_24
REMARK   21  A    between atoms: C_26  and  C_27
REMARK   22  A    between atoms: C_26  and  C_28
REMARK   23  A    between atoms: C_29  and  C_30
REMARK   24  A    between atoms: C_29  and  C_31
REMARK   25  A    between atoms: C_31  and  O_32
REMARK   26  A    between atoms: C_31  and  C_34
REMARK   27  A    between atoms: O_32  and  C_33
REMARK   28  A    between atoms: C_34  and  C_35
REMARK   29  A    between atoms: C_34  and  C_36
REMARK   30  A    between atoms: C_37  and  N_38
REMARK   31  A    between atoms: N_38  and  C_39
REMARK                            x       y       z     vdW  Elec       q    Type
REMARK                         _______ _______ _______ _____ _____    ______ ____
ROOT
ATOM      1  C   UNL     1     146.601 169.586 188.585  0.00  0.00    -0.015 C 
ATOM      2  H   UNL     1     147.547 169.846 188.116  0.00  0.00    +0.030 HD
ATOM      3  H   UNL     1     145.875 169.540 187.765  0.00  0.00    +0.030 HD
ENDROOT
BRANCH   1   4
ATOM      4  C   UNL     1     146.777 168.187 189.202  0.00  0.00    -0.045 C 
ATOM      5  H   UNL     1     146.344 167.450 188.513  0.00  0.00    +0.027 HD
ATOM      6  H   UNL     1     146.169 168.129 190.112  0.00  0.00    +0.027 HD
BRANCH   4   7
ATOM      7  C   UNL     1     148.233 167.780 189.527  0.00  0.00    -0.017 C 
ATOM      8  H   UNL     1     148.803 168.693 189.739  0.00  0.00    +0.032 HD
BRANCH   7   9
ATOM      9  C   UNL     1     148.852 167.151 188.268  0.00  0.00    -0.060 C 
ATOM     10  H   UNL     1     149.425 166.254 188.531  0.00  0.00    +0.023 HD
ATOM     11  H   UNL     1     148.085 166.840 187.555  0.00  0.00    +0.023 HD
ATOM     12  H   UNL     1     149.533 167.844 187.763  0.00  0.00    +0.023 HD
ENDBRANCH   7   9
BRANCH   7  13
ATOM     13  C   UNL     1     148.330 166.849 190.767  0.00  0.00    +0.064 C 
ATOM     14  H   UNL     1     148.263 167.461 191.673  0.00  0.00    +0.060 HD
BRANCH  13  15
ATOM     15  C   UNL     1     149.670 166.087 190.795  0.00  0.00    +0.011 C 
ATOM     16  H   UNL     1     150.231 166.344 189.891  0.00  0.00    +0.033 HD
ATOM     17  H   UNL     1     149.483 165.008 190.798  0.00  0.00    +0.033 HD
BRANCH  15  18
ATOM     18  C   UNL     1     150.517 166.437 192.037  0.00  0.00    +0.108 C 
ATOM     19  H   UNL     1     151.049 165.533 192.355  0.00  0.00    +0.074 HD
BRANCH  18  20
ATOM     20  C   UNL     1     151.553 167.545 191.719  0.00  0.00    -0.009 C 
ATOM     21  H   UNL     1     151.052 168.518 191.823  0.00  0.00    +0.033 HD
BRANCH  20  22
ATOM     22  C   UNL     1     152.763 167.533 192.659  0.00  0.00    -0.059 C 
ATOM     23  H   UNL     1     153.707 167.482 192.104  0.00  0.00    +0.023 HD
ATOM     24  H   UNL     1     152.785 168.446 193.266  0.00  0.00    +0.023 HD
ATOM     25  H   UNL     1     152.725 166.685 193.348  0.00  0.00    +0.023 HD
ENDBRANCH  20  22
BRANCH  20  26
ATOM     26  C   UNL     1     152.037 167.456 190.270  0.00  0.00    -0.059 C 
ATOM     27  H   UNL     1     151.346 166.885 189.645  0.00  0.00    +0.023 HD
ATOM     28  H   UNL     1     152.148 168.456 189.834  0.00  0.00    +0.023 HD
ATOM     29  H   UNL     1     153.014 166.965 190.220  0.00  0.00    +0.023 HD
ENDBRANCH  20  26
ENDBRANCH  18  20
BRANCH  18  30
ATOM     30  O   UNL     1     149.592 166.883 193.056  0.00  0.00    -0.461 OA
BRANCH  30  31
ATOM     31  C   UNL     1     149.394 166.077 194.134  0.00  0.00    +0.307 C 
ATOM     32  O   UNL     1     148.394 165.407 194.349  0.00  0.00    -0.251 OA
BRANCH  31  33
ATOM     33  C   UNL     1     150.549 166.234 195.099  0.00  0.00    +0.046 C 
ATOM     34  H   UNL     1     151.242 166.999 194.734  0.00  0.00    +0.038 HD
ATOM     35  H   UNL     1     150.115 166.599 196.039  0.00  0.00    +0.038 HD
BRANCH  33  36
ATOM     36  C   UNL     1     151.296 164.925 195.359  0.00  0.00    -0.031 C 
ATOM     37  H   UNL     1     152.380 165.075 195.292  0.00  0.00    +0.028 HD
ATOM     38  H   UNL     1     151.029 164.212 194.569  0.00  0.00    +0.028 HD
BRANCH  36  39
ATOM     39  C   UNL     1     150.945 164.281 196.701  0.00  0.00    -0.006 C 
ATOM     40  H   UNL     1     149.956 164.630 197.023  0.00  0.00    +0.042 HD
ATOM     41  H   UNL     1     151.666 164.601 197.463  0.00  0.00    +0.042 HD
BRANCH  39  42
ATOM     42  N   UNL     1     150.944 162.829 196.633  0.00  0.00    -0.330 NA
ATOM     43  H   UNL     1     151.081 162.523 195.666  0.00  0.00    +0.118 HD
ATOM     44  H   UNL     1     150.034 162.471 196.920  0.00  0.00    +0.118 HD
ENDBRANCH  39  42
ENDBRANCH  36  39
ENDBRANCH  33  36
ENDBRANCH  31  33
ENDBRANCH  30  31
ENDBRANCH  18  30
ENDBRANCH  15  18
ENDBRANCH  13  15
BRANCH  13  45
ATOM     45  O   UNL     1     147.269 165.888 190.722  0.00  0.00    -0.379 OA
BRANCH  45  46
ATOM     46  C   UNL     1     147.718 164.543 190.664  0.00  0.00    +0.037 C 
ATOM     47  H   UNL     1     148.114 164.308 189.673  0.00  0.00    +0.052 HD
ATOM     48  H   UNL     1     148.478 164.355 191.427  0.00  0.00    +0.052 HD
ATOM     49  H   UNL     1     146.863 163.888 190.859  0.00  0.00    +0.052 HD
ENDBRANCH  45  46
ENDBRANCH  13  45
ENDBRANCH   7  13
ENDBRANCH   4   7
ENDBRANCH   1   4
BRANCH   1  50
ATOM     50  C   UNL     1     146.189 170.683 189.583  0.00  0.00    +0.108 C 
ATOM     51  H   UNL     1     145.825 170.140 190.467  0.00  0.00    +0.074 HD
BRANCH  50  52
ATOM     52  C   UNL     1     145.032 171.612 189.122  0.00  0.00    +0.020 C 
ATOM     53  H   UNL     1     144.472 170.975 188.421  0.00  0.00    +0.036 HD
BRANCH  52  54
ATOM     54  C   UNL     1     145.520 172.761 188.232  0.00  0.00    -0.057 C 
ATOM     55  H   UNL     1     145.511 172.481 187.175  0.00  0.00    +0.023 HD
ATOM     56  H   UNL     1     146.554 173.020 188.486  0.00  0.00    +0.023 HD
ATOM     57  H   UNL     1     144.922 173.667 188.346  0.00  0.00    +0.023 HD
ENDBRANCH  52  54
BRANCH  52  58
ATOM     58  C   UNL     1     143.950 172.010 190.177  0.00  0.00    +0.070 C 
ATOM     59  H   UNL     1     143.526 172.974 189.864  0.00  0.00    +0.061 HD
BRANCH  58  60
ATOM     60  C   UNL     1     142.729 171.082 190.482  0.00  0.00    +0.002 C 
ATOM     61  H   UNL     1     142.356 170.782 189.490  0.00  0.00    +0.037 HD
BRANCH  60  62
ATOM     62  C   UNL     1     141.539 171.807 191.115  0.00  0.00    -0.057 C 
ATOM     63  H   UNL     1     141.716 172.888 191.139  0.00  0.00    +0.024 HD
ATOM     64  H   UNL     1     141.380 171.489 192.150  0.00  0.00    +0.024 HD
ATOM     65  H   UNL     1     140.611 171.650 190.562  0.00  0.00    +0.024 HD
ENDBRANCH  60  62
BRANCH  60  66
ATOM     66  C   UNL     1     143.116 169.762 191.126  0.00  0.00    -0.065 C 
ATOM     67  C   UNL     1     142.940 168.528 190.627  0.00  0.00    -0.005 C 
ATOM     68  H   UNL     1     143.614 169.877 192.086  0.00  0.00    +0.059 HD
ATOM     69  H   UNL     1     142.470 168.404 189.653  0.00  0.00    +0.078 HD
BRANCH  67  70
ATOM     70  N   UNL     1     143.289 167.344 191.262  0.00  0.00    -0.284 N 
ATOM     71  C   UNL     1     143.210 167.233 192.647  0.00  0.00    +0.206 C 
ATOM     72  O   UNL     1     143.500 166.252 193.320  0.00  0.00    -0.279 OA
ATOM     73  H   UNL     1     142.844 168.155 193.131  0.00  0.00    +0.126 HD
BRANCH  70  74
ATOM     74  C   UNL     1     143.767 166.190 190.514  0.00  0.00    +0.007 C 
ATOM     75  H   UNL     1     143.423 165.249 190.954  0.00  0.00    +0.043 HD
ATOM     76  H   UNL     1     144.861 166.185 190.515  0.00  0.00    +0.043 HD
ATOM     77  H   UNL     1     143.389 166.242 189.487  0.00  0.00    +0.043 HD
ENDBRANCH  70  74
ENDBRANCH  67  70
ENDBRANCH  60  66
ENDBRANCH  58  60
BRANCH  58  78
ATOM     78  O   UNL     1     144.588 172.235 191.460  0.00  0.00    -0.379 OA
BRANCH  78  79
ATOM     79  C   UNL     1     144.739 173.609 191.803  0.00  0.00    +0.037 C 
ATOM     80  H   UNL     1     144.564 173.774 192.868  0.00  0.00    +0.052 HD
ATOM     81  H   UNL     1     143.993 174.182 191.245  0.00  0.00    +0.052 HD
ATOM     82  H   UNL     1     145.732 173.975 191.520  0.00  0.00    +0.052 HD
ENDBRANCH  78  79
ENDBRANCH  58  78
ENDBRANCH  52  58
ENDBRANCH  50  52
BRANCH  50  83
ATOM     83  O   UNL     1     147.349 171.454 189.955  0.00  0.00    -0.459 OA
BRANCH  83  85
ATOM     84  O   UNL     1     147.420 170.389 191.987  0.00  0.00    -0.248 OA
ATOM     85  C   UNL     1     147.852 171.227 191.207  0.00  0.00    +0.337 C 
BRANCH  85  86
ATOM     86  C   UNL     1     149.022 172.181 191.478  0.00  0.00    +0.155 C 
ATOM     87  O   UNL     1     149.695 171.876 192.709  0.00  0.00    -0.365 OA
ATOM     88  C   UNL     1     149.399 172.897 193.670  0.00  0.00    +0.049 C 
ATOM     89  C   UNL     1     148.288 173.742 193.089  0.00  0.00    -0.027 C 
ATOM     90  C   UNL     1     148.537 173.616 191.606  0.00  0.00    -0.014 C 
ATOM     91  H   UNL     1     149.743 172.062 190.663  0.00  0.00    +0.071 HD
ATOM     92  H   UNL     1     149.126 172.439 194.625  0.00  0.00    +0.056 HD
ATOM     93  H   UNL     1     150.309 173.491 193.817  0.00  0.00    +0.056 HD
ATOM     94  H   UNL     1     148.300 174.773 193.451  0.00  0.00    +0.029 HD
ATOM     95  H   UNL     1     147.314 173.305 193.342  0.00  0.00    +0.029 HD
ATOM     96  H   UNL     1     149.340 174.304 191.314  0.00  0.00    +0.030 HD
ATOM     97  H   UNL     1     147.652 173.856 191.012  0.00  0.00    +0.030 HD
ENDBRANCH  85  86
ENDBRANCH  83  85
ENDBRANCH  50  83
ENDBRANCH   1  50
TORSDOF 31
ENDMDL
MODEL 9
REMARK VINA RESULT:      -4.8      2.848      7.175
REMARK  Name = 2u_conf1
REMARK  31 active torsions:
REMARK  status: ('A' for Active; 'I' for Inactive)
REMARK    1  A    between atoms: C_2  and  C_3
REMARK    2  A    between atoms: C_2  and  O_8
REMARK    3  A    between atoms: O_8  and  C_9
REMARK    4  A    between atoms: C_9  and  C_10
REMARK    5  A    between atoms: C_9  and  C_29
REMARK    6  A    between atoms: C_10  and  C_11
REMARK    7  A    between atoms: C_11  and  C_12
REMARK    8  A    between atoms: C_12  and  C_13
REMARK    9  A    between atoms: C_12  and  C_14
REMARK   10  A    between atoms: C_14  and  O_15
REMARK   11  A    between atoms: C_14  and  C_17
REMARK   12  A    between atoms: O_15  and  C_16
REMARK   13  A    between atoms: C_17  and  C_18
REMARK   14  A    between atoms: C_18  and  O_19
REMARK   15  A    between atoms: C_18  and  C_26
REMARK   16  A    between atoms: O_19  and  C_20
REMARK   17  A    between atoms: C_20  and  C_21
REMARK   18  A    between atoms: C_21  and  C_22
REMARK   19  A    between atoms: C_22  and  C_23
REMARK   20  A    between atoms: C_23  and  N_24
REMARK   21  A    between atoms: C_26  and  C_27
REMARK   22  A    between atoms: C_26  and  C_28
REMARK   23  A    between atoms: C_29  and  C_30
REMARK   24  A    between atoms: C_29  and  C_31
REMARK   25  A    between atoms: C_31  and  O_32
REMARK   26  A    between atoms: C_31  and  C_34
REMARK   27  A    between atoms: O_32  and  C_33
REMARK   28  A    between atoms: C_34  and  C_35
REMARK   29  A    between atoms: C_34  and  C_36
REMARK   30  A    between atoms: C_37  and  N_38
REMARK   31  A    between atoms: N_38  and  C_39
REMARK                            x       y       z     vdW  Elec       q    Type
REMARK                         _______ _______ _______ _____ _____    ______ ____
ROOT
ATOM      1  C   UNL     1     148.727 169.363 190.785  0.00  0.00    -0.015 C 
ATOM      2  H   UNL     1     149.245 170.214 190.350  0.00  0.00    +0.030 HD
ATOM      3  H   UNL     1     148.973 168.513 190.139  0.00  0.00    +0.030 HD
ENDROOT
BRANCH   1   4
ATOM      4  C   UNL     1     149.328 169.142 192.185  0.00  0.00    -0.045 C 
ATOM      5  H   UNL     1     148.772 168.332 192.674  0.00  0.00    +0.027 HD
ATOM      6  H   UNL     1     149.135 170.036 192.790  0.00  0.00    +0.027 HD
BRANCH   4   7
ATOM      7  C   UNL     1     150.837 168.812 192.217  0.00  0.00    -0.017 C 
ATOM      8  H   UNL     1     151.098 168.510 193.239  0.00  0.00    +0.032 HD
BRANCH   7   9
ATOM      9  C   UNL     1     151.622 170.100 191.920  0.00  0.00    -0.060 C 
ATOM     10  H   UNL     1     150.959 170.973 191.973  0.00  0.00    +0.023 HD
ATOM     11  H   UNL     1     152.419 170.263 192.649  0.00  0.00    +0.023 HD
ATOM     12  H   UNL     1     152.067 170.081 190.920  0.00  0.00    +0.023 HD
ENDBRANCH   7   9
BRANCH   7  13
ATOM     13  C   UNL     1     151.216 167.650 191.258  0.00  0.00    +0.064 C 
ATOM     14  H   UNL     1     150.300 167.250 190.810  0.00  0.00    +0.060 HD
BRANCH  13  15
ATOM     15  C   UNL     1     151.927 166.508 192.010  0.00  0.00    +0.011 C 
ATOM     16  H   UNL     1     152.733 166.941 192.612  0.00  0.00    +0.033 HD
ATOM     17  H   UNL     1     152.366 165.807 191.292  0.00  0.00    +0.033 HD
BRANCH  15  18
ATOM     18  C   UNL     1     150.968 165.726 192.930  0.00  0.00    +0.108 C 
ATOM     19  H   UNL     1     150.021 166.277 192.987  0.00  0.00    +0.074 HD
BRANCH  18  20
ATOM     20  C   UNL     1     150.690 164.304 192.380  0.00  0.00    -0.009 C 
ATOM     21  H   UNL     1     151.067 163.577 193.113  0.00  0.00    +0.033 HD
BRANCH  20  22
ATOM     22  C   UNL     1     149.203 164.020 192.153  0.00  0.00    -0.059 C 
ATOM     23  H   UNL     1     148.792 163.364 192.929  0.00  0.00    +0.023 HD
ATOM     24  H   UNL     1     148.627 164.953 192.170  0.00  0.00    +0.023 HD
ATOM     25  H   UNL     1     149.029 163.549 191.181  0.00  0.00    +0.023 HD
ENDBRANCH  20  22
BRANCH  20  26
ATOM     26  C   UNL     1     151.458 164.050 191.080  0.00  0.00    -0.059 C 
ATOM     27  H   UNL     1     152.216 163.272 191.202  0.00  0.00    +0.023 HD
ATOM     28  H   UNL     1     150.776 163.743 190.279  0.00  0.00    +0.023 HD
ATOM     29  H   UNL     1     151.967 164.961 190.749  0.00  0.00    +0.023 HD
ENDBRANCH  20  26
ENDBRANCH  18  20
BRANCH  18  30
ATOM     30  O   UNL     1     151.605 165.654 194.226  0.00  0.00    -0.461 OA
BRANCH  30  31
ATOM     31  C   UNL     1     150.858 165.235 195.283  0.00  0.00    +0.307 C 
ATOM     32  O   UNL     1     150.766 164.081 195.678  0.00  0.00    -0.251 OA
BRANCH  31  33
ATOM     33  C   UNL     1     150.049 166.396 195.820  0.00  0.00    +0.046 C 
ATOM     34  H   UNL     1     150.532 166.808 196.713  0.00  0.00    +0.038 HD
ATOM     35  H   UNL     1     150.070 167.169 195.043  0.00  0.00    +0.038 HD
BRANCH  33  36
ATOM     36  C   UNL     1     148.599 166.024 196.130  0.00  0.00    -0.031 C 
ATOM     37  H   UNL     1     148.175 166.699 196.883  0.00  0.00    +0.028 HD
ATOM     38  H   UNL     1     148.586 165.018 196.569  0.00  0.00    +0.028 HD
BRANCH  36  39
ATOM     39  C   UNL     1     147.701 166.000 194.892  0.00  0.00    -0.006 C 
ATOM     40  H   UNL     1     146.745 165.527 195.147  0.00  0.00    +0.042 HD
ATOM     41  H   UNL     1     148.167 165.389 194.110  0.00  0.00    +0.042 HD
BRANCH  39  42
ATOM     42  N   UNL     1     147.453 167.332 194.365  0.00  0.00    -0.330 NA
ATOM     43  H   UNL     1     147.743 167.382 193.386  0.00  0.00    +0.118 HD
ATOM     44  H   UNL     1     148.023 168.013 194.868  0.00  0.00    +0.118 HD
ENDBRANCH  39  42
ENDBRANCH  36  39
ENDBRANCH  33  36
ENDBRANCH  31  33
ENDBRANCH  30  31
ENDBRANCH  18  30
ENDBRANCH  15  18
ENDBRANCH  13  15
BRANCH  13  45
ATOM     45  O   UNL     1     152.103 168.141 190.246  0.00  0.00    -0.379 OA
BRANCH  45  46
ATOM     46  C   UNL     1     152.663 167.122 189.432  0.00  0.00    +0.037 C 
ATOM     47  H   UNL     1     151.877 166.533 188.953  0.00  0.00    +0.052 HD
ATOM     48  H   UNL     1     153.325 167.551 188.675  0.00  0.00    +0.052 HD
ATOM     49  H   UNL     1     153.252 166.458 190.071  0.00  0.00    +0.052 HD
ENDBRANCH  45  46
ENDBRANCH  13  45
ENDBRANCH   7  13
ENDBRANCH   4   7
ENDBRANCH   1   4
BRANCH   1  50
ATOM     50  C   UNL     1     147.208 169.606 190.767  0.00  0.00    +0.108 C 
ATOM     51  H   UNL     1     146.899 169.558 191.821  0.00  0.00    +0.074 HD
BRANCH  50  52
ATOM     52  C   UNL     1     146.365 168.545 190.007  0.00  0.00    +0.020 C 
ATOM     53  H   UNL     1     145.740 169.159 189.342  0.00  0.00    +0.036 HD
BRANCH  52  54
ATOM     54  C   UNL     1     145.336 167.855 190.910  0.00  0.00    -0.057 C 
ATOM     55  H   UNL     1     144.488 168.512 191.126  0.00  0.00    +0.023 HD
ATOM     56  H   UNL     1     145.794 167.595 191.872  0.00  0.00    +0.023 HD
ATOM     57  H   UNL     1     144.945 166.931 190.478  0.00  0.00    +0.023 HD
ENDBRANCH  52  54
BRANCH  52  58
ATOM     58  C   UNL     1     147.109 167.595 189.014  0.00  0.00    +0.070 C 
ATOM     59  H   UNL     1     147.962 168.153 188.604  0.00  0.00    +0.061 HD
BRANCH  58  60
ATOM     60  C   UNL     1     147.681 166.216 189.480  0.00  0.00    +0.002 C 
ATOM     61  H   UNL     1     147.864 166.343 190.558  0.00  0.00    +0.037 HD
BRANCH  60  62
ATOM     62  C   UNL     1     149.066 165.892 188.912  0.00  0.00    -0.057 C 
ATOM     63  H   UNL     1     149.845 166.115 189.649  0.00  0.00    +0.024 HD
ATOM     64  H   UNL     1     149.287 166.496 188.026  0.00  0.00    +0.024 HD
ATOM     65  H   UNL     1     149.173 164.840 188.645  0.00  0.00    +0.024 HD
ENDBRANCH  60  62
BRANCH  60  66
ATOM     66  C   UNL     1     146.665 165.088 189.425  0.00  0.00    -0.065 C 
ATOM     67  C   UNL     1     146.903 163.787 189.198  0.00  0.00    -0.005 C 
ATOM     68  H   UNL     1     145.647 165.412 189.625  0.00  0.00    +0.059 HD
ATOM     69  H   UNL     1     147.923 163.448 189.026  0.00  0.00    +0.078 HD
BRANCH  67  70
ATOM     70  N   UNL     1     145.939 162.790 189.134  0.00  0.00    -0.284 N 
ATOM     71  C   UNL     1     144.633 163.092 188.759  0.00  0.00    +0.206 C 
ATOM     72  O   UNL     1     143.696 162.308 188.678  0.00  0.00    -0.279 OA
ATOM     73  H   UNL     1     144.489 164.161 188.526  0.00  0.00    +0.126 HD
BRANCH  70  74
ATOM     74  C   UNL     1     146.247 161.408 189.473  0.00  0.00    +0.007 C 
ATOM     75  H   UNL     1     145.461 160.954 190.085  0.00  0.00    +0.043 HD
ATOM     76  H   UNL     1     147.182 161.374 190.040  0.00  0.00    +0.043 HD
ATOM     77  H   UNL     1     146.341 160.822 188.552  0.00  0.00    +0.043 HD
ENDBRANCH  70  74
ENDBRANCH  67  70
ENDBRANCH  60  66
ENDBRANCH  58  60
BRANCH  58  78
ATOM     78  O   UNL     1     146.238 167.288 187.895  0.00  0.00    -0.379 OA
BRANCH  78  79
ATOM     79  C   UNL     1     145.725 168.435 187.225  0.00  0.00    +0.037 C 
ATOM     80  H   UNL     1     144.641 168.372 187.105  0.00  0.00    +0.052 HD
ATOM     81  H   UNL     1     146.173 168.474 186.229  0.00  0.00    +0.052 HD
ATOM     82  H   UNL     1     145.994 169.353 187.759  0.00  0.00    +0.052 HD
ENDBRANCH  78  79
ENDBRANCH  58  78
ENDBRANCH  52  58
ENDBRANCH  50  52
BRANCH  50  83
ATOM     83  O   UNL     1     146.939 170.931 190.264  0.00  0.00    -0.459 OA
BRANCH  83  85
ATOM     84  O   UNL     1     144.984 171.418 191.362  0.00  0.00    -0.248 OA
ATOM     85  C   UNL     1     146.123 171.717 191.031  0.00  0.00    +0.337 C 
BRANCH  85  86
ATOM     86  C   UNL     1     146.850 173.016 191.400  0.00  0.00    +0.155 C 
ATOM     87  O   UNL     1     148.221 173.009 190.972  0.00  0.00    -0.365 OA
ATOM     88  C   UNL     1     149.069 172.891 192.120  0.00  0.00    +0.049 C 
ATOM     89  C   UNL     1     148.179 172.555 193.294  0.00  0.00    -0.027 C 
ATOM     90  C   UNL     1     146.880 173.216 192.906  0.00  0.00    -0.014 C 
ATOM     91  H   UNL     1     146.342 173.839 190.885  0.00  0.00    +0.071 HD
ATOM     92  H   UNL     1     149.834 172.131 191.939  0.00  0.00    +0.056 HD
ATOM     93  H   UNL     1     149.567 173.857 192.268  0.00  0.00    +0.056 HD
ATOM     94  H   UNL     1     148.580 172.902 194.249  0.00  0.00    +0.029 HD
ATOM     95  H   UNL     1     148.040 171.469 193.360  0.00  0.00    +0.029 HD
ATOM     96  H   UNL     1     146.935 174.287 193.134  0.00  0.00    +0.030 HD
ATOM     97  H   UNL     1     146.022 172.799 193.440  0.00  0.00    +0.030 HD
ENDBRANCH  85  86
ENDBRANCH  83  85
ENDBRANCH  50  83
ENDBRANCH   1  50
TORSDOF 31
ENDMDL
MODEL 10
REMARK VINA RESULT:      -4.8      1.922      3.027
REMARK  Name = 2u_conf1
REMARK  31 active torsions:
REMARK  status: ('A' for Active; 'I' for Inactive)
REMARK    1  A    between atoms: C_2  and  C_3
REMARK    2  A    between atoms: C_2  and  O_8
REMARK    3  A    between atoms: O_8  and  C_9
REMARK    4  A    between atoms: C_9  and  C_10
REMARK    5  A    between atoms: C_9  and  C_29
REMARK    6  A    between atoms: C_10  and  C_11
REMARK    7  A    between atoms: C_11  and  C_12
REMARK    8  A    between atoms: C_12  and  C_13
REMARK    9  A    between atoms: C_12  and  C_14
REMARK   10  A    between atoms: C_14  and  O_15
REMARK   11  A    between atoms: C_14  and  C_17
REMARK   12  A    between atoms: O_15  and  C_16
REMARK   13  A    between atoms: C_17  and  C_18
REMARK   14  A    between atoms: C_18  and  O_19
REMARK   15  A    between atoms: C_18  and  C_26
REMARK   16  A    between atoms: O_19  and  C_20
REMARK   17  A    between atoms: C_20  and  C_21
REMARK   18  A    between atoms: C_21  and  C_22
REMARK   19  A    between atoms: C_22  and  C_23
REMARK   20  A    between atoms: C_23  and  N_24
REMARK   21  A    between atoms: C_26  and  C_27
REMARK   22  A    between atoms: C_26  and  C_28
REMARK   23  A    between atoms: C_29  and  C_30
REMARK   24  A    between atoms: C_29  and  C_31
REMARK   25  A    between atoms: C_31  and  O_32
REMARK   26  A    between atoms: C_31  and  C_34
REMARK   27  A    between atoms: O_32  and  C_33
REMARK   28  A    between atoms: C_34  and  C_35
REMARK   29  A    between atoms: C_34  and  C_36
REMARK   30  A    between atoms: C_37  and  N_38
REMARK   31  A    between atoms: N_38  and  C_39
REMARK                            x       y       z     vdW  Elec       q    Type
REMARK                         _______ _______ _______ _____ _____    ______ ____
ROOT
ATOM      1  C   UNL     1     150.867 165.567 189.818  0.00  0.00    -0.015 C 
ATOM      2  H   UNL     1     150.389 166.037 188.962  0.00  0.00    +0.030 HD
ATOM      3  H   UNL     1     151.004 164.518 189.532  0.00  0.00    +0.030 HD
ENDROOT
BRANCH   1   4
ATOM      4  C   UNL     1     152.240 166.241 189.990  0.00  0.00    -0.045 C 
ATOM      5  H   UNL     1     152.892 165.558 190.549  0.00  0.00    +0.027 HD
ATOM      6  H   UNL     1     152.117 167.121 190.634  0.00  0.00    +0.027 HD
BRANCH   4   7
ATOM      7  C   UNL     1     152.948 166.655 188.680  0.00  0.00    -0.017 C 
ATOM      8  H   UNL     1     153.283 167.694 188.786  0.00  0.00    +0.032 HD
BRANCH   7   9
ATOM      9  C   UNL     1     151.913 166.634 187.543  0.00  0.00    -0.060 C 
ATOM     10  H   UNL     1     151.075 165.976 187.800  0.00  0.00    +0.023 HD
ATOM     11  H   UNL     1     151.494 167.627 187.364  0.00  0.00    +0.023 HD
ATOM     12  H   UNL     1     152.348 166.269 186.606  0.00  0.00    +0.023 HD
ENDBRANCH   7   9
BRANCH   7  13
ATOM     13  C   UNL     1     154.192 165.777 188.369  0.00  0.00    +0.064 C 
ATOM     14  H   UNL     1     154.793 166.276 187.601  0.00  0.00    +0.060 HD
BRANCH  13  15
ATOM     15  C   UNL     1     153.782 164.389 187.839  0.00  0.00    +0.011 C 
ATOM     16  H   UNL     1     154.259 164.237 186.864  0.00  0.00    +0.033 HD
ATOM     17  H   UNL     1     152.696 164.346 187.707  0.00  0.00    +0.033 HD
BRANCH  15  18
ATOM     18  C   UNL     1     154.202 163.250 188.792  0.00  0.00    +0.108 C 
ATOM     19  H   UNL     1     154.539 163.699 189.735  0.00  0.00    +0.074 HD
BRANCH  18  20
ATOM     20  C   UNL     1     153.018 162.294 189.086  0.00  0.00    -0.009 C 
ATOM     21  H   UNL     1     153.364 161.265 188.917  0.00  0.00    +0.033 HD
BRANCH  20  22
ATOM     22  C   UNL     1     152.501 162.390 190.524  0.00  0.00    -0.059 C 
ATOM     23  H   UNL     1     151.503 161.947 190.626  0.00  0.00    +0.023 HD
ATOM     24  H   UNL     1     153.171 161.858 191.209  0.00  0.00    +0.023 HD
ATOM     25  H   UNL     1     152.449 163.429 190.861  0.00  0.00    +0.023 HD
ENDBRANCH  20  22
BRANCH  20  26
ATOM     26  C   UNL     1     151.859 162.528 188.114  0.00  0.00    -0.059 C 
ATOM     27  H   UNL     1     151.417 161.588 187.774  0.00  0.00    +0.023 HD
ATOM     28  H   UNL     1     151.071 163.127 188.585  0.00  0.00    +0.023 HD
ATOM     29  H   UNL     1     152.202 163.073 187.229  0.00  0.00    +0.023 HD
ENDBRANCH  20  26
ENDBRANCH  18  20
BRANCH  18  30
ATOM     30  O   UNL     1     155.280 162.541 188.140  0.00  0.00    -0.461 OA
BRANCH  30  31
ATOM     31  C   UNL     1     156.536 162.686 188.642  0.00  0.00    +0.307 C 
ATOM     32  O   UNL     1     157.549 162.873 187.984  0.00  0.00    -0.251 OA
BRANCH  31  33
ATOM     33  C   UNL     1     156.511 162.449 190.136  0.00  0.00    +0.046 C 
ATOM     34  H   UNL     1     156.327 163.391 190.663  0.00  0.00    +0.038 HD
ATOM     35  H   UNL     1     155.657 161.788 190.328  0.00  0.00    +0.038 HD
BRANCH  33  36
ATOM     36  C   UNL     1     157.790 161.793 190.661  0.00  0.00    -0.031 C 
ATOM     37  H   UNL     1     157.863 161.897 191.750  0.00  0.00    +0.028 HD
ATOM     38  H   UNL     1     158.650 162.326 190.237  0.00  0.00    +0.028 HD
BRANCH  36  39
ATOM     39  C   UNL     1     157.920 160.320 190.272  0.00  0.00    -0.006 C 
ATOM     40  H   UNL     1     158.830 160.181 189.677  0.00  0.00    +0.042 HD
ATOM     41  H   UNL     1     157.071 160.029 189.641  0.00  0.00    +0.042 HD
BRANCH  39  42
ATOM     42  N   UNL     1     157.966 159.446 191.432  0.00  0.00    -0.330 NA
ATOM     43  H   UNL     1     157.374 158.625 191.278  0.00  0.00    +0.118 HD
ATOM     44  H   UNL     1     157.579 159.929 192.243  0.00  0.00    +0.118 HD
ENDBRANCH  39  42
ENDBRANCH  36  39
ENDBRANCH  33  36
ENDBRANCH  31  33
ENDBRANCH  30  31
ENDBRANCH  18  30
ENDBRANCH  15  18
ENDBRANCH  13  15
BRANCH  13  45
ATOM     45  O   UNL     1     154.952 165.592 189.569  0.00  0.00    -0.379 OA
BRANCH  45  46
ATOM     46  C   UNL     1     156.218 166.233 189.548  0.00  0.00    +0.037 C 
ATOM     47  H   UNL     1     157.008 165.543 189.854  0.00  0.00    +0.052 HD
ATOM     48  H   UNL     1     156.434 166.633 188.553  0.00  0.00    +0.052 HD
ATOM     49  H   UNL     1     156.192 167.066 190.257  0.00  0.00    +0.052 HD
ENDBRANCH  45  46
ENDBRANCH  13  45
ENDBRANCH   7  13
ENDBRANCH   4   7
ENDBRANCH   1   4
BRANCH   1  50
ATOM     50  C   UNL     1     149.948 165.655 191.049  0.00  0.00    +0.108 C 
ATOM     51  H   UNL     1     149.277 164.787 190.965  0.00  0.00    +0.074 HD
BRANCH  50  52
ATOM     52  C   UNL     1     149.040 166.914 191.122  0.00  0.00    +0.020 C 
ATOM     53  H   UNL     1     148.092 166.509 191.507  0.00  0.00    +0.036 HD
BRANCH  52  54
ATOM     54  C   UNL     1     148.654 167.441 189.735  0.00  0.00    -0.057 C 
ATOM     55  H   UNL     1     149.409 167.186 188.985  0.00  0.00    +0.023 HD
ATOM     56  H   UNL     1     148.580 168.535 189.756  0.00  0.00    +0.023 HD
ATOM     57  H   UNL     1     147.692 167.058 189.389  0.00  0.00    +0.023 HD
ENDBRANCH  52  54
BRANCH  52  58
ATOM     58  C   UNL     1     149.403 168.017 192.167  0.00  0.00    +0.070 C 
ATOM     59  H   UNL     1     150.130 167.580 192.866  0.00  0.00    +0.061 HD
BRANCH  58  60
ATOM     60  C   UNL     1     150.004 169.391 191.725  0.00  0.00    +0.002 C 
ATOM     61  H   UNL     1     150.059 169.329 190.627  0.00  0.00    +0.037 HD
BRANCH  60  62
ATOM     62  C   UNL     1     151.460 169.601 192.150  0.00  0.00    -0.057 C 
ATOM     63  H   UNL     1     151.596 170.601 192.577  0.00  0.00    +0.024 HD
ATOM     64  H   UNL     1     152.141 169.526 191.297  0.00  0.00    +0.024 HD
ATOM     65  H   UNL     1     151.781 168.885 192.909  0.00  0.00    +0.024 HD
ENDBRANCH  60  62
BRANCH  60  66
ATOM     66  C   UNL     1     149.071 170.567 191.964  0.00  0.00    -0.065 C 
ATOM     67  C   UNL     1     149.404 171.801 192.371  0.00  0.00    -0.005 C 
ATOM     68  H   UNL     1     148.030 170.345 191.742  0.00  0.00    +0.059 HD
ATOM     69  H   UNL     1     150.447 172.041 192.567  0.00  0.00    +0.078 HD
BRANCH  67  70
ATOM     70  N   UNL     1     148.514 172.842 192.599  0.00  0.00    -0.284 N 
ATOM     71  C   UNL     1     148.099 173.148 193.892  0.00  0.00    +0.206 C 
ATOM     72  O   UNL     1     147.313 174.029 194.219  0.00  0.00    -0.279 OA
ATOM     73  H   UNL     1     148.557 172.497 194.656  0.00  0.00    +0.126 HD
BRANCH  70  74
ATOM     74  C   UNL     1     147.968 173.633 191.506  0.00  0.00    +0.007 C 
ATOM     75  H   UNL     1     148.021 173.100 190.551  0.00  0.00    +0.043 HD
ATOM     76  H   UNL     1     148.540 174.561 191.409  0.00  0.00    +0.043 HD
ATOM     77  H   UNL     1     146.915 173.857 191.711  0.00  0.00    +0.043 HD
ENDBRANCH  70  74
ENDBRANCH  67  70
ENDBRANCH  60  66
ENDBRANCH  58  60
BRANCH  58  78
ATOM     78  O   UNL     1     148.226 168.349 192.947  0.00  0.00    -0.379 OA
BRANCH  78  79
ATOM     79  C   UNL     1     147.710 167.265 193.713  0.00  0.00    +0.037 C 
ATOM     80  H   UNL     1     147.384 167.597 194.701  0.00  0.00    +0.052 HD
ATOM     81  H   UNL     1     148.512 166.534 193.850  0.00  0.00    +0.052 HD
ATOM     82  H   UNL     1     146.885 166.773 193.187  0.00  0.00    +0.052 HD
ENDBRANCH  78  79
ENDBRANCH  58  78
ENDBRANCH  52  58
ENDBRANCH  50  52
BRANCH  50  83
ATOM     83  O   UNL     1     150.736 165.519 192.249  0.00  0.00    -0.459 OA
BRANCH  83  85
ATOM     84  O   UNL     1     149.197 164.049 193.107  0.00  0.00    -0.248 OA
ATOM     85  C   UNL     1     150.254 164.659 193.197  0.00  0.00    +0.337 C 
BRANCH  85  86
ATOM     86  C   UNL     1     151.231 164.587 194.377  0.00  0.00    +0.155 C 
ATOM     87  O   UNL     1     150.665 163.904 195.507  0.00  0.00    -0.365 OA
ATOM     88  C   UNL     1     150.394 164.857 196.542  0.00  0.00    +0.049 C 
ATOM     89  C   UNL     1     150.564 166.230 195.934  0.00  0.00    -0.027 C 
ATOM     90  C   UNL     1     151.599 165.978 194.866  0.00  0.00    -0.014 C 
ATOM     91  H   UNL     1     152.108 164.020 194.048  0.00  0.00    +0.071 HD
ATOM     92  H   UNL     1     149.389 164.693 196.941  0.00  0.00    +0.056 HD
ATOM     93  H   UNL     1     151.120 164.691 197.347  0.00  0.00    +0.056 HD
ATOM     94  H   UNL     1     150.860 166.988 196.663  0.00  0.00    +0.029 HD
ATOM     95  H   UNL     1     149.623 166.554 195.472  0.00  0.00    +0.029 HD
ATOM     96  H   UNL     1     152.596 165.955 195.325  0.00  0.00    +0.030 HD
ATOM     97  H   UNL     1     151.600 166.750 194.093  0.00  0.00    +0.030 HD
ENDBRANCH  85  86
ENDBRANCH  83  85
ENDBRANCH  50  83
ENDBRANCH   1  50
TORSDOF 31
ENDMDL
