MODEL 1
REMARK VINA RESULT:      -5.4      0.000      0.000
REMARK  Name = 2u_conf3
REMARK  31 active torsions:
REMARK  status: ('A' for Active; 'I' for Inactive)
REMARK    1  A    between atoms: C_2  and  C_3
REMARK    2  A    between atoms: C_2  and  O_8
REMARK    3  A    between atoms: O_8  and  C_9
REMARK    4  A    between atoms: C_9  and  C_10
REMARK    5  A    between atoms: C_9  and  C_29
REMARK    6  A    between atoms: C_10  and  C_11
REMARK    7  A    between atoms: C_11  and  C_12
REMARK    8  A    between atoms: C_12  and  C_13
REMARK    9  A    between atoms: C_12  and  C_14
REMARK   10  A    between atoms: C_14  and  O_15
REMARK   11  A    between atoms: C_14  and  C_17
REMARK   12  A    between atoms: O_15  and  C_16
REMARK   13  A    between atoms: C_17  and  C_18
REMARK   14  A    between atoms: C_18  and  O_19
REMARK   15  A    between atoms: C_18  and  C_26
REMARK   16  A    between atoms: O_19  and  C_20
REMARK   17  A    between atoms: C_20  and  C_21
REMARK   18  A    between atoms: C_21  and  C_22
REMARK   19  A    between atoms: C_22  and  C_23
REMARK   20  A    between atoms: C_23  and  N_24
REMARK   21  A    between atoms: C_26  and  C_27
REMARK   22  A    between atoms: C_26  and  C_28
REMARK   23  A    between atoms: C_29  and  C_30
REMARK   24  A    between atoms: C_29  and  C_31
REMARK   25  A    between atoms: C_31  and  O_32
REMARK   26  A    between atoms: C_31  and  C_34
REMARK   27  A    between atoms: O_32  and  C_33
REMARK   28  A    between atoms: C_34  and  C_35
REMARK   29  A    between atoms: C_34  and  C_36
REMARK   30  A    between atoms: C_37  and  N_38
REMARK   31  A    between atoms: N_38  and  C_39
REMARK                            x       y       z     vdW  Elec       q    Type
REMARK                         _______ _______ _______ _____ _____    ______ ____
ROOT
ATOM      1  C   UNL     1     148.161 169.768 192.106  0.00  0.00    -0.015 C 
ATOM      2  H   UNL     1     147.913 168.738 192.368  0.00  0.00    +0.030 HD
ATOM      3  H   UNL     1     148.233 170.352 193.027  0.00  0.00    +0.030 HD
ENDROOT
BRANCH   1   4
ATOM      4  C   UNL     1     149.531 169.789 191.406  0.00  0.00    -0.045 C 
ATOM      5  H   UNL     1     149.812 170.839 191.248  0.00  0.00    +0.027 HD
ATOM      6  H   UNL     1     149.459 169.358 190.403  0.00  0.00    +0.027 HD
BRANCH   4   7
ATOM      7  C   UNL     1     150.666 169.089 192.181  0.00  0.00    -0.017 C 
ATOM      8  H   UNL     1     150.353 169.023 193.231  0.00  0.00    +0.032 HD
BRANCH   7   9
ATOM      9  C   UNL     1     151.903 170.002 192.120  0.00  0.00    -0.060 C 
ATOM     10  H   UNL     1     151.624 171.056 192.224  0.00  0.00    +0.023 HD
ATOM     11  H   UNL     1     152.606 169.758 192.923  0.00  0.00    +0.023 HD
ATOM     12  H   UNL     1     152.446 169.882 191.178  0.00  0.00    +0.023 HD
ENDBRANCH   7   9
BRANCH   7  13
ATOM     13  C   UNL     1     150.988 167.650 191.687  0.00  0.00    +0.064 C 
ATOM     14  H   UNL     1     150.406 167.442 190.781  0.00  0.00    +0.060 HD
BRANCH  13  15
ATOM     15  C   UNL     1     150.609 166.602 192.764  0.00  0.00    +0.011 C 
ATOM     16  H   UNL     1     150.677 167.073 193.753  0.00  0.00    +0.033 HD
ATOM     17  H   UNL     1     151.343 165.789 192.744  0.00  0.00    +0.033 HD
BRANCH  15  18
ATOM     18  C   UNL     1     149.194 166.015 192.576  0.00  0.00    +0.108 C 
ATOM     19  H   UNL     1     148.494 166.789 192.239  0.00  0.00    +0.074 HD
BRANCH  18  20
ATOM     20  C   UNL     1     149.068 164.814 191.604  0.00  0.00    -0.009 C 
ATOM     21  H   UNL     1     148.195 164.234 191.944  0.00  0.00    +0.033 HD
BRANCH  20  22
ATOM     22  C   UNL     1     148.792 165.231 190.156  0.00  0.00    -0.059 C 
ATOM     23  H   UNL     1     147.993 164.633 189.705  0.00  0.00    +0.023 HD
ATOM     24  H   UNL     1     149.696 165.136 189.544  0.00  0.00    +0.023 HD
ATOM     25  H   UNL     1     148.482 166.282 190.116  0.00  0.00    +0.023 HD
ENDBRANCH  20  22
BRANCH  20  26
ATOM     26  C   UNL     1     150.265 163.853 191.658  0.00  0.00    -0.059 C 
ATOM     27  H   UNL     1     150.206 163.130 190.835  0.00  0.00    +0.023 HD
ATOM     28  H   UNL     1     150.283 163.281 192.595  0.00  0.00    +0.023 HD
ATOM     29  H   UNL     1     151.221 164.381 191.562  0.00  0.00    +0.023 HD
ENDBRANCH  20  26
ENDBRANCH  18  20
BRANCH  18  30
ATOM     30  O   UNL     1     148.761 165.512 193.867  0.00  0.00    -0.461 OA
BRANCH  30  31
ATOM     31  C   UNL     1     148.234 166.413 194.744  0.00  0.00    +0.307 C 
ATOM     32  O   UNL     1     147.506 167.349 194.449  0.00  0.00    -0.251 OA
BRANCH  31  33
ATOM     33  C   UNL     1     148.730 166.108 196.140  0.00  0.00    +0.046 C 
ATOM     34  H   UNL     1     148.378 166.880 196.839  0.00  0.00    +0.038 HD
ATOM     35  H   UNL     1     148.283 165.153 196.440  0.00  0.00    +0.038 HD
BRANCH  33  36
ATOM     36  C   UNL     1     150.255 166.017 196.205  0.00  0.00    -0.031 C 
ATOM     37  H   UNL     1     150.646 166.688 196.983  0.00  0.00    +0.028 HD
ATOM     38  H   UNL     1     150.661 166.367 195.241  0.00  0.00    +0.028 HD
BRANCH  36  39
ATOM     39  C   UNL     1     150.726 164.587 196.460  0.00  0.00    -0.006 C 
ATOM     40  H   UNL     1     149.985 164.047 197.062  0.00  0.00    +0.042 HD
ATOM     41  H   UNL     1     151.670 164.576 197.013  0.00  0.00    +0.042 HD
BRANCH  39  42
ATOM     42  N   UNL     1     150.901 163.884 195.195  0.00  0.00    -0.330 NA
ATOM     43  H   UNL     1     151.206 164.542 194.484  0.00  0.00    +0.118 HD
ATOM     44  H   UNL     1     150.009 163.497 194.881  0.00  0.00    +0.118 HD
ENDBRANCH  39  42
ENDBRANCH  36  39
ENDBRANCH  33  36
ENDBRANCH  31  33
ENDBRANCH  30  31
ENDBRANCH  18  30
ENDBRANCH  15  18
ENDBRANCH  13  15
BRANCH  13  45
ATOM     45  O   UNL     1     152.392 167.517 191.447  0.00  0.00    -0.379 OA
BRANCH  45  46
ATOM     46  C   UNL     1     152.736 166.461 190.563  0.00  0.00    +0.037 C 
ATOM     47  H   UNL     1     152.839 166.881 189.559  0.00  0.00    +0.052 HD
ATOM     48  H   UNL     1     151.949 165.703 190.538  0.00  0.00    +0.052 HD
ATOM     49  H   UNL     1     153.698 166.011 190.844  0.00  0.00    +0.052 HD
ENDBRANCH  45  46
ENDBRANCH  13  45
ENDBRANCH   7  13
ENDBRANCH   4   7
ENDBRANCH   1   4
BRANCH   1  50
ATOM     50  C   UNL     1     147.061 170.339 191.186  0.00  0.00    +0.108 C 
ATOM     51  H   UNL     1     146.254 170.713 191.835  0.00  0.00    +0.074 HD
BRANCH  50  52
ATOM     52  C   UNL     1     146.445 169.313 190.182  0.00  0.00    +0.020 C 
ATOM     53  H   UNL     1     146.895 168.346 190.437  0.00  0.00    +0.036 HD
BRANCH  52  54
ATOM     54  C   UNL     1     146.889 169.665 188.753  0.00  0.00    -0.057 C 
ATOM     55  H   UNL     1     147.527 170.558 188.743  0.00  0.00    +0.023 HD
ATOM     56  H   UNL     1     146.027 169.882 188.113  0.00  0.00    +0.023 HD
ATOM     57  H   UNL     1     147.456 168.849 188.297  0.00  0.00    +0.023 HD
ENDBRANCH  52  54
BRANCH  52  58
ATOM     58  C   UNL     1     144.899 169.129 190.300  0.00  0.00    +0.070 C 
ATOM     59  H   UNL     1     144.469 169.238 189.295  0.00  0.00    +0.061 HD
BRANCH  58  60
ATOM     60  C   UNL     1     144.470 167.718 190.832  0.00  0.00    +0.002 C 
ATOM     61  H   UNL     1     143.844 167.895 191.716  0.00  0.00    +0.037 HD
BRANCH  60  62
ATOM     62  C   UNL     1     145.662 166.894 191.333  0.00  0.00    -0.057 C 
ATOM     63  H   UNL     1     145.630 165.864 190.964  0.00  0.00    +0.024 HD
ATOM     64  H   UNL     1     146.607 167.346 191.014  0.00  0.00    +0.024 HD
ATOM     65  H   UNL     1     145.664 166.844 192.429  0.00  0.00    +0.024 HD
ENDBRANCH  60  62
BRANCH  60  66
ATOM     66  C   UNL     1     143.635 166.864 189.889  0.00  0.00    -0.065 C 
ATOM     67  C   UNL     1     143.615 165.522 189.882  0.00  0.00    -0.005 C 
ATOM     68  H   UNL     1     143.012 167.442 189.208  0.00  0.00    +0.059 HD
ATOM     69  H   UNL     1     144.249 164.985 190.592  0.00  0.00    +0.078 HD
BRANCH  67  70
ATOM     70  N   UNL     1     142.840 164.699 189.086  0.00  0.00    -0.284 N 
ATOM     71  C   UNL     1     143.138 163.381 188.757  0.00  0.00    +0.206 C 
ATOM     72  O   UNL     1     142.488 162.661 188.004  0.00  0.00    -0.279 OA
ATOM     73  H   UNL     1     144.053 162.992 189.234  0.00  0.00    +0.126 HD
BRANCH  70  74
ATOM     74  C   UNL     1     141.628 165.286 188.520  0.00  0.00    +0.007 C 
ATOM     75  H   UNL     1     141.539 166.322 188.874  0.00  0.00    +0.043 HD
ATOM     76  H   UNL     1     140.760 164.708 188.862  0.00  0.00    +0.043 HD
ATOM     77  H   UNL     1     141.634 165.280 187.426  0.00  0.00    +0.043 HD
ENDBRANCH  70  74
ENDBRANCH  67  70
ENDBRANCH  60  66
ENDBRANCH  58  60
BRANCH  58  78
ATOM     78  O   UNL     1     144.366 170.141 191.170  0.00  0.00    -0.379 OA
BRANCH  78  79
ATOM     79  C   UNL     1     143.251 170.840 190.628  0.00  0.00    +0.037 C 
ATOM     80  H   UNL     1     143.354 171.916 190.796  0.00  0.00    +0.052 HD
ATOM     81  H   UNL     1     143.143 170.637 189.559  0.00  0.00    +0.052 HD
ATOM     82  H   UNL     1     142.350 170.490 191.137  0.00  0.00    +0.052 HD
ENDBRANCH  78  79
ENDBRANCH  58  78
ENDBRANCH  52  58
ENDBRANCH  50  52
BRANCH  50  83
ATOM     83  O   UNL     1     147.654 171.459 190.505  0.00  0.00    -0.459 OA
BRANCH  83  85
ATOM     84  O   UNL     1     146.006 172.942 189.896  0.00  0.00    -0.248 OA
ATOM     85  C   UNL     1     146.990 172.649 190.564  0.00  0.00    +0.337 C 
BRANCH  85  86
ATOM     86  C   UNL     1     147.600 173.564 191.634  0.00  0.00    +0.155 C 
ATOM     87  O   UNL     1     149.015 173.401 191.863  0.00  0.00    -0.365 OA
ATOM     88  C   UNL     1     149.214 172.971 193.217  0.00  0.00    +0.049 C 
ATOM     89  C   UNL     1     148.014 173.497 193.979  0.00  0.00    -0.027 C 
ATOM     90  C   UNL     1     146.907 173.305 192.973  0.00  0.00    -0.014 C 
ATOM     91  H   UNL     1     147.457 174.599 191.298  0.00  0.00    +0.071 HD
ATOM     92  H   UNL     1     150.160 173.372 193.589  0.00  0.00    +0.056 HD
ATOM     93  H   UNL     1     149.259 171.877 193.237  0.00  0.00    +0.056 HD
ATOM     94  H   UNL     1     148.136 174.564 194.190  0.00  0.00    +0.029 HD
ATOM     95  H   UNL     1     147.849 172.965 194.922  0.00  0.00    +0.029 HD
ATOM     96  H   UNL     1     146.521 172.275 193.034  0.00  0.00    +0.030 HD
ATOM     97  H   UNL     1     146.058 173.982 193.138  0.00  0.00    +0.030 HD
ENDBRANCH  85  86
ENDBRANCH  83  85
ENDBRANCH  50  83
ENDBRANCH   1  50
TORSDOF 31
ENDMDL
MODEL 2
REMARK VINA RESULT:      -5.3      2.410      4.490
REMARK  Name = 2u_conf3
REMARK  31 active torsions:
REMARK  status: ('A' for Active; 'I' for Inactive)
REMARK    1  A    between atoms: C_2  and  C_3
REMARK    2  A    between atoms: C_2  and  O_8
REMARK    3  A    between atoms: O_8  and  C_9
REMARK    4  A    between atoms: C_9  and  C_10
REMARK    5  A    between atoms: C_9  and  C_29
REMARK    6  A    between atoms: C_10  and  C_11
REMARK    7  A    between atoms: C_11  and  C_12
REMARK    8  A    between atoms: C_12  and  C_13
REMARK    9  A    between atoms: C_12  and  C_14
REMARK   10  A    between atoms: C_14  and  O_15
REMARK   11  A    between atoms: C_14  and  C_17
REMARK   12  A    between atoms: O_15  and  C_16
REMARK   13  A    between atoms: C_17  and  C_18
REMARK   14  A    between atoms: C_18  and  O_19
REMARK   15  A    between atoms: C_18  and  C_26
REMARK   16  A    between atoms: O_19  and  C_20
REMARK   17  A    between atoms: C_20  and  C_21
REMARK   18  A    between atoms: C_21  and  C_22
REMARK   19  A    between atoms: C_22  and  C_23
REMARK   20  A    between atoms: C_23  and  N_24
REMARK   21  A    between atoms: C_26  and  C_27
REMARK   22  A    between atoms: C_26  and  C_28
REMARK   23  A    between atoms: C_29  and  C_30
REMARK   24  A    between atoms: C_29  and  C_31
REMARK   25  A    between atoms: C_31  and  O_32
REMARK   26  A    between atoms: C_31  and  C_34
REMARK   27  A    between atoms: O_32  and  C_33
REMARK   28  A    between atoms: C_34  and  C_35
REMARK   29  A    between atoms: C_34  and  C_36
REMARK   30  A    between atoms: C_37  and  N_38
REMARK   31  A    between atoms: N_38  and  C_39
REMARK                            x       y       z     vdW  Elec       q    Type
REMARK                         _______ _______ _______ _____ _____    ______ ____
ROOT
ATOM      1  C   UNL     1     148.291 169.742 192.237  0.00  0.00    -0.015 C 
ATOM      2  H   UNL     1     147.795 169.156 193.013  0.00  0.00    +0.030 HD
ATOM      3  H   UNL     1     148.767 170.605 192.708  0.00  0.00    +0.030 HD
ENDROOT
BRANCH   1   4
ATOM      4  C   UNL     1     149.382 168.880 191.579  0.00  0.00    -0.045 C 
ATOM      5  H   UNL     1     149.374 169.092 190.502  0.00  0.00    +0.027 HD
ATOM      6  H   UNL     1     149.138 167.817 191.664  0.00  0.00    +0.027 HD
BRANCH   4   7
ATOM      7  C   UNL     1     150.808 169.119 192.116  0.00  0.00    -0.017 C 
ATOM      8  H   UNL     1     150.741 169.173 193.210  0.00  0.00    +0.032 HD
BRANCH   7   9
ATOM      9  C   UNL     1     151.270 170.497 191.609  0.00  0.00    -0.060 C 
ATOM     10  H   UNL     1     151.327 171.223 192.427  0.00  0.00    +0.023 HD
ATOM     11  H   UNL     1     152.261 170.428 191.148  0.00  0.00    +0.023 HD
ATOM     12  H   UNL     1     150.594 170.893 190.845  0.00  0.00    +0.023 HD
ENDBRANCH   7   9
BRANCH   7  13
ATOM     13  C   UNL     1     151.826 168.002 191.753  0.00  0.00    +0.064 C 
ATOM     14  H   UNL     1     152.817 168.279 192.132  0.00  0.00    +0.060 HD
BRANCH  13  15
ATOM     15  C   UNL     1     151.923 167.826 190.216  0.00  0.00    +0.011 C 
ATOM     16  H   UNL     1     152.981 167.760 189.934  0.00  0.00    +0.033 HD
ATOM     17  H   UNL     1     151.516 168.720 189.729  0.00  0.00    +0.033 HD
BRANCH  15  18
ATOM     18  C   UNL     1     151.179 166.580 189.694  0.00  0.00    +0.108 C 
ATOM     19  H   UNL     1     150.767 165.996 190.525  0.00  0.00    +0.074 HD
BRANCH  18  20
ATOM     20  C   UNL     1     150.028 166.833 188.686  0.00  0.00    -0.009 C 
ATOM     21  H   UNL     1     149.560 167.784 188.986  0.00  0.00    +0.033 HD
BRANCH  20  22
ATOM     22  C   UNL     1     150.511 167.008 187.243  0.00  0.00    -0.059 C 
ATOM     23  H   UNL     1     151.418 166.428 187.044  0.00  0.00    +0.023 HD
ATOM     24  H   UNL     1     150.708 168.064 187.023  0.00  0.00    +0.023 HD
ATOM     25  H   UNL     1     149.740 166.668 186.541  0.00  0.00    +0.023 HD
ENDBRANCH  20  22
BRANCH  20  26
ATOM     26  C   UNL     1     148.916 165.773 188.746  0.00  0.00    -0.059 C 
ATOM     27  H   UNL     1     148.641 165.458 187.733  0.00  0.00    +0.023 HD
ATOM     28  H   UNL     1     148.009 166.165 189.225  0.00  0.00    +0.023 HD
ATOM     29  H   UNL     1     149.232 164.877 189.295  0.00  0.00    +0.023 HD
ENDBRANCH  20  26
ENDBRANCH  18  20
BRANCH  18  30
ATOM     30  O   UNL     1     152.147 165.769 188.977  0.00  0.00    -0.461 OA
BRANCH  30  31
ATOM     31  C   UNL     1     152.717 164.733 189.654  0.00  0.00    +0.307 C 
ATOM     32  O   UNL     1     152.183 164.083 190.541  0.00  0.00    -0.251 OA
BRANCH  31  33
ATOM     33  C   UNL     1     154.139 164.539 189.174  0.00  0.00    +0.046 C 
ATOM     34  H   UNL     1     154.650 163.801 189.809  0.00  0.00    +0.038 HD
ATOM     35  H   UNL     1     154.084 164.130 188.159  0.00  0.00    +0.038 HD
BRANCH  33  36
ATOM     36  C   UNL     1     154.931 165.847 189.171  0.00  0.00    -0.031 C 
ATOM     37  H   UNL     1     155.882 165.719 189.708  0.00  0.00    +0.028 HD
ATOM     38  H   UNL     1     154.347 166.604 189.721  0.00  0.00    +0.028 HD
BRANCH  36  39
ATOM     39  C   UNL     1     155.192 166.346 187.752  0.00  0.00    -0.006 C 
ATOM     40  H   UNL     1     154.985 165.551 187.028  0.00  0.00    +0.042 HD
ATOM     41  H   UNL     1     156.239 166.642 187.625  0.00  0.00    +0.042 HD
BRANCH  39  42
ATOM     42  N   UNL     1     154.332 167.485 187.456  0.00  0.00    -0.330 NA
ATOM     43  H   UNL     1     153.564 167.181 186.866  0.00  0.00    +0.118 HD
ATOM     44  H   UNL     1     154.852 168.191 186.930  0.00  0.00    +0.118 HD
ENDBRANCH  39  42
ENDBRANCH  36  39
ENDBRANCH  33  36
ENDBRANCH  31  33
ENDBRANCH  30  31
ENDBRANCH  18  30
ENDBRANCH  15  18
ENDBRANCH  13  15
BRANCH  13  45
ATOM     45  O   UNL     1     151.394 166.750 192.292  0.00  0.00    -0.379 OA
BRANCH  45  46
ATOM     46  C   UNL     1     151.825 166.506 193.622  0.00  0.00    +0.037 C 
ATOM     47  H   UNL     1     152.900 166.700 193.670  0.00  0.00    +0.052 HD
ATOM     48  H   UNL     1     151.652 165.463 193.901  0.00  0.00    +0.052 HD
ATOM     49  H   UNL     1     151.326 167.183 194.328  0.00  0.00    +0.052 HD
ENDBRANCH  45  46
ENDBRANCH  13  45
ENDBRANCH   7  13
ENDBRANCH   4   7
ENDBRANCH   1   4
BRANCH   1  50
ATOM     50  C   UNL     1     147.244 170.199 191.198  0.00  0.00    +0.108 C 
ATOM     51  H   UNL     1     146.349 170.516 191.754  0.00  0.00    +0.074 HD
BRANCH  50  52
ATOM     52  C   UNL     1     146.819 169.105 190.168  0.00  0.00    +0.020 C 
ATOM     53  H   UNL     1     147.444 168.231 190.391  0.00  0.00    +0.036 HD
BRANCH  52  54
ATOM     54  C   UNL     1     147.174 169.573 188.747  0.00  0.00    -0.057 C 
ATOM     55  H   UNL     1     146.777 168.884 187.990  0.00  0.00    +0.023 HD
ATOM     56  H   UNL     1     148.258 169.614 188.604  0.00  0.00    +0.023 HD
ATOM     57  H   UNL     1     146.764 170.565 188.539  0.00  0.00    +0.023 HD
ENDBRANCH  52  54
BRANCH  52  58
ATOM     58  C   UNL     1     145.335 168.633 190.289  0.00  0.00    +0.070 C 
ATOM     59  H   UNL     1     144.886 168.672 189.287  0.00  0.00    +0.061 HD
BRANCH  58  60
ATOM     60  C   UNL     1     145.182 167.160 190.804  0.00  0.00    +0.002 C 
ATOM     61  H   UNL     1     144.874 166.558 189.939  0.00  0.00    +0.037 HD
BRANCH  60  62
ATOM     62  C   UNL     1     144.050 167.013 191.829  0.00  0.00    -0.057 C 
ATOM     63  H   UNL     1     143.885 167.939 192.390  0.00  0.00    +0.024 HD
ATOM     64  H   UNL     1     143.113 166.737 191.334  0.00  0.00    +0.024 HD
ATOM     65  H   UNL     1     144.290 166.232 192.560  0.00  0.00    +0.024 HD
ENDBRANCH  60  62
BRANCH  60  66
ATOM     66  C   UNL     1     146.438 166.500 191.350  0.00  0.00    -0.065 C 
ATOM     67  C   UNL     1     146.723 166.349 192.653  0.00  0.00    -0.005 C 
ATOM     68  H   UNL     1     147.108 166.123 190.579  0.00  0.00    +0.059 HD
ATOM     69  H   UNL     1     146.015 166.734 193.392  0.00  0.00    +0.078 HD
BRANCH  67  70
ATOM     70  N   UNL     1     147.820 165.713 193.205  0.00  0.00    -0.284 N 
ATOM     71  C   UNL     1     148.545 164.688 192.606  0.00  0.00    +0.206 C 
ATOM     72  O   UNL     1     149.483 164.077 193.113  0.00  0.00    -0.279 OA
ATOM     73  H   UNL     1     148.206 164.429 191.589  0.00  0.00    +0.126 HD
BRANCH  70  74
ATOM     74  C   UNL     1     148.220 166.140 194.543  0.00  0.00    +0.007 C 
ATOM     75  H   UNL     1     147.353 166.591 195.044  0.00  0.00    +0.043 HD
ATOM     76  H   UNL     1     149.019 166.888 194.454  0.00  0.00    +0.043 HD
ATOM     77  H   UNL     1     148.594 165.311 195.150  0.00  0.00    +0.043 HD
ENDBRANCH  70  74
ENDBRANCH  67  70
ENDBRANCH  60  66
ENDBRANCH  58  60
BRANCH  58  78
ATOM     78  O   UNL     1     144.629 169.516 191.175  0.00  0.00    -0.379 OA
BRANCH  78  79
ATOM     79  C   UNL     1     143.650 170.322 190.527  0.00  0.00    +0.037 C 
ATOM     80  H   UNL     1     143.083 170.902 191.260  0.00  0.00    +0.052 HD
ATOM     81  H   UNL     1     144.114 170.992 189.797  0.00  0.00    +0.052 HD
ATOM     82  H   UNL     1     142.962 169.659 189.995  0.00  0.00    +0.052 HD
ENDBRANCH  78  79
ENDBRANCH  58  78
ENDBRANCH  52  58
ENDBRANCH  50  52
BRANCH  50  83
ATOM     83  O   UNL     1     147.809 171.352 190.547  0.00  0.00    -0.459 OA
BRANCH  83  85
ATOM     84  O   UNL     1     146.080 172.713 189.878  0.00  0.00    -0.248 OA
ATOM     85  C   UNL     1     147.073 172.500 190.563  0.00  0.00    +0.337 C 
BRANCH  85  86
ATOM     86  C   UNL     1     147.616 173.482 191.610  0.00  0.00    +0.155 C 
ATOM     87  O   UNL     1     149.017 173.349 191.925  0.00  0.00    -0.365 OA
ATOM     88  C   UNL     1     149.144 173.000 193.312  0.00  0.00    +0.049 C 
ATOM     89  C   UNL     1     147.900 173.556 193.974  0.00  0.00    -0.027 C 
ATOM     90  C   UNL     1     146.851 173.295 192.921  0.00  0.00    -0.014 C 
ATOM     91  H   UNL     1     147.483 174.495 191.207  0.00  0.00    +0.071 HD
ATOM     92  H   UNL     1     150.065 173.433 193.711  0.00  0.00    +0.056 HD
ATOM     93  H   UNL     1     149.196 171.910 193.398  0.00  0.00    +0.056 HD
ATOM     94  H   UNL     1     148.002 174.635 194.129  0.00  0.00    +0.029 HD
ATOM     95  H   UNL     1     147.687 173.079 194.936  0.00  0.00    +0.029 HD
ATOM     96  H   UNL     1     146.470 172.266 193.022  0.00  0.00    +0.030 HD
ATOM     97  H   UNL     1     145.990 173.970 192.999  0.00  0.00    +0.030 HD
ENDBRANCH  85  86
ENDBRANCH  83  85
ENDBRANCH  50  83
ENDBRANCH   1  50
TORSDOF 31
ENDMDL
MODEL 3
REMARK VINA RESULT:      -5.2      2.426      7.630
REMARK  Name = 2u_conf3
REMARK  31 active torsions:
REMARK  status: ('A' for Active; 'I' for Inactive)
REMARK    1  A    between atoms: C_2  and  C_3
REMARK    2  A    between atoms: C_2  and  O_8
REMARK    3  A    between atoms: O_8  and  C_9
REMARK    4  A    between atoms: C_9  and  C_10
REMARK    5  A    between atoms: C_9  and  C_29
REMARK    6  A    between atoms: C_10  and  C_11
REMARK    7  A    between atoms: C_11  and  C_12
REMARK    8  A    between atoms: C_12  and  C_13
REMARK    9  A    between atoms: C_12  and  C_14
REMARK   10  A    between atoms: C_14  and  O_15
REMARK   11  A    between atoms: C_14  and  C_17
REMARK   12  A    between atoms: O_15  and  C_16
REMARK   13  A    between atoms: C_17  and  C_18
REMARK   14  A    between atoms: C_18  and  O_19
REMARK   15  A    between atoms: C_18  and  C_26
REMARK   16  A    between atoms: O_19  and  C_20
REMARK   17  A    between atoms: C_20  and  C_21
REMARK   18  A    between atoms: C_21  and  C_22
REMARK   19  A    between atoms: C_22  and  C_23
REMARK   20  A    between atoms: C_23  and  N_24
REMARK   21  A    between atoms: C_26  and  C_27
REMARK   22  A    between atoms: C_26  and  C_28
REMARK   23  A    between atoms: C_29  and  C_30
REMARK   24  A    between atoms: C_29  and  C_31
REMARK   25  A    between atoms: C_31  and  O_32
REMARK   26  A    between atoms: C_31  and  C_34
REMARK   27  A    between atoms: O_32  and  C_33
REMARK   28  A    between atoms: C_34  and  C_35
REMARK   29  A    between atoms: C_34  and  C_36
REMARK   30  A    between atoms: C_37  and  N_38
REMARK   31  A    between atoms: N_38  and  C_39
REMARK                            x       y       z     vdW  Elec       q    Type
REMARK                         _______ _______ _______ _____ _____    ______ ____
ROOT
ATOM      1  C   UNL     1     151.013 168.539 192.480  0.00  0.00    -0.015 C 
ATOM      2  H   UNL     1     152.077 168.777 192.460  0.00  0.00    +0.030 HD
ATOM      3  H   UNL     1     150.583 168.948 193.396  0.00  0.00    +0.030 HD
ENDROOT
BRANCH   1   4
ATOM      4  C   UNL     1     150.328 169.209 191.276  0.00  0.00    -0.045 C 
ATOM      5  H   UNL     1     150.922 168.980 190.381  0.00  0.00    +0.027 HD
ATOM      6  H   UNL     1     150.360 170.298 191.371  0.00  0.00    +0.027 HD
BRANCH   4   7
ATOM      7  C   UNL     1     148.873 168.761 191.026  0.00  0.00    -0.017 C 
ATOM      8  H   UNL     1     148.509 168.299 191.953  0.00  0.00    +0.032 HD
BRANCH   7   9
ATOM      9  C   UNL     1     148.902 167.671 189.941  0.00  0.00    -0.060 C 
ATOM     10  H   UNL     1     149.519 167.975 189.088  0.00  0.00    +0.023 HD
ATOM     11  H   UNL     1     149.313 166.738 190.340  0.00  0.00    +0.023 HD
ATOM     12  H   UNL     1     147.898 167.441 189.573  0.00  0.00    +0.023 HD
ENDBRANCH   7   9
BRANCH   7  13
ATOM     13  C   UNL     1     147.901 169.917 190.654  0.00  0.00    +0.064 C 
ATOM     14  H   UNL     1     147.799 169.965 189.563  0.00  0.00    +0.060 HD
BRANCH  13  15
ATOM     15  C   UNL     1     148.449 171.277 191.155  0.00  0.00    +0.011 C 
ATOM     16  H   UNL     1     148.664 171.912 190.286  0.00  0.00    +0.033 HD
ATOM     17  H   UNL     1     149.400 171.109 191.673  0.00  0.00    +0.033 HD
BRANCH  15  18
ATOM     18  C   UNL     1     147.479 172.018 192.098  0.00  0.00    +0.108 C 
ATOM     19  H   UNL     1     146.620 171.385 192.348  0.00  0.00    +0.074 HD
BRANCH  18  20
ATOM     20  C   UNL     1     148.076 172.543 193.429  0.00  0.00    -0.009 C 
ATOM     21  H   UNL     1     147.876 171.766 194.184  0.00  0.00    +0.033 HD
BRANCH  20  22
ATOM     22  C   UNL     1     149.594 172.739 193.380  0.00  0.00    -0.059 C 
ATOM     23  H   UNL     1     149.903 173.661 193.883  0.00  0.00    +0.023 HD
ATOM     24  H   UNL     1     149.951 172.762 192.343  0.00  0.00    +0.023 HD
ATOM     25  H   UNL     1     150.100 171.904 193.878  0.00  0.00    +0.023 HD
ENDBRANCH  20  22
BRANCH  20  26
ATOM     26  C   UNL     1     147.395 173.821 193.944  0.00  0.00    -0.059 C 
ATOM     27  H   UNL     1     146.341 173.835 193.643  0.00  0.00    +0.023 HD
ATOM     28  H   UNL     1     147.865 174.724 193.532  0.00  0.00    +0.023 HD
ATOM     29  H   UNL     1     147.424 173.890 195.039  0.00  0.00    +0.023 HD
ENDBRANCH  20  26
ENDBRANCH  18  20
BRANCH  18  30
ATOM     30  O   UNL     1     147.011 173.199 191.394  0.00  0.00    -0.461 OA
BRANCH  30  31
ATOM     31  C   UNL     1     145.951 173.044 190.552  0.00  0.00    +0.307 C 
ATOM     32  O   UNL     1     146.004 173.070 189.331  0.00  0.00    -0.251 OA
BRANCH  31  33
ATOM     33  C   UNL     1     144.683 172.885 191.361  0.00  0.00    +0.046 C 
ATOM     34  H   UNL     1     143.977 172.234 190.826  0.00  0.00    +0.038 HD
ATOM     35  H   UNL     1     144.958 172.386 192.297  0.00  0.00    +0.038 HD
BRANCH  33  36
ATOM     36  C   UNL     1     144.015 174.228 191.658  0.00  0.00    -0.031 C 
ATOM     37  H   UNL     1     144.709 175.056 191.448  0.00  0.00    +0.028 HD
ATOM     38  H   UNL     1     143.782 174.265 192.735  0.00  0.00    +0.028 HD
BRANCH  36  39
ATOM     39  C   UNL     1     142.726 174.408 190.858  0.00  0.00    -0.006 C 
ATOM     40  H   UNL     1     142.381 175.446 190.928  0.00  0.00    +0.042 HD
ATOM     41  H   UNL     1     141.928 173.769 191.249  0.00  0.00    +0.042 HD
BRANCH  39  42
ATOM     42  N   UNL     1     142.958 174.085 189.456  0.00  0.00    -0.330 NA
ATOM     43  H   UNL     1     143.933 174.253 189.229  0.00  0.00    +0.118 HD
ATOM     44  H   UNL     1     142.402 174.699 188.857  0.00  0.00    +0.118 HD
ENDBRANCH  39  42
ENDBRANCH  36  39
ENDBRANCH  33  36
ENDBRANCH  31  33
ENDBRANCH  30  31
ENDBRANCH  18  30
ENDBRANCH  15  18
ENDBRANCH  13  15
BRANCH  13  45
ATOM     45  O   UNL     1     146.635 169.716 191.287  0.00  0.00    -0.379 OA
BRANCH  45  46
ATOM     46  C   UNL     1     145.579 169.394 190.394  0.00  0.00    +0.037 C 
ATOM     47  H   UNL     1     144.803 170.156 190.500  0.00  0.00    +0.052 HD
ATOM     48  H   UNL     1     145.142 168.423 190.643  0.00  0.00    +0.052 HD
ATOM     49  H   UNL     1     145.927 169.406 189.352  0.00  0.00    +0.052 HD
ENDBRANCH  45  46
ENDBRANCH  13  45
ENDBRANCH   7  13
ENDBRANCH   4   7
ENDBRANCH   1   4
BRANCH   1  50
ATOM     50  C   UNL     1     150.835 167.006 192.434  0.00  0.00    +0.108 C 
ATOM     51  H   UNL     1     150.142 166.782 191.609  0.00  0.00    +0.074 HD
BRANCH  50  52
ATOM     52  C   UNL     1     150.261 166.371 193.741  0.00  0.00    +0.020 C 
ATOM     53  H   UNL     1     149.960 167.216 194.371  0.00  0.00    +0.036 HD
BRANCH  52  54
ATOM     54  C   UNL     1     151.381 165.621 194.480  0.00  0.00    -0.057 C 
ATOM     55  H   UNL     1     151.607 164.663 193.995  0.00  0.00    +0.023 HD
ATOM     56  H   UNL     1     151.091 165.394 195.512  0.00  0.00    +0.023 HD
ATOM     57  H   UNL     1     152.305 166.205 194.506  0.00  0.00    +0.023 HD
ENDBRANCH  52  54
BRANCH  52  58
ATOM     58  C   UNL     1     148.986 165.492 193.537  0.00  0.00    +0.070 C 
ATOM     59  H   UNL     1     149.038 164.654 194.245  0.00  0.00    +0.061 HD
BRANCH  58  60
ATOM     60  C   UNL     1     147.645 166.251 193.820  0.00  0.00    +0.002 C 
ATOM     61  H   UNL     1     147.913 167.298 194.013  0.00  0.00    +0.037 HD
BRANCH  60  62
ATOM     62  C   UNL     1     146.955 165.763 195.100  0.00  0.00    -0.057 C 
ATOM     63  H   UNL     1     145.924 165.444 194.912  0.00  0.00    +0.024 HD
ATOM     64  H   UNL     1     147.502 164.922 195.539  0.00  0.00    +0.024 HD
ATOM     65  H   UNL     1     146.912 166.566 195.847  0.00  0.00    +0.024 HD
ENDBRANCH  60  62
BRANCH  60  66
ATOM     66  C   UNL     1     146.630 166.279 192.687  0.00  0.00    -0.065 C 
ATOM     67  C   UNL     1     145.298 166.296 192.848  0.00  0.00    -0.005 C 
ATOM     68  H   UNL     1     147.079 166.307 191.696  0.00  0.00    +0.059 HD
ATOM     69  H   UNL     1     144.893 166.277 193.863  0.00  0.00    +0.078 HD
BRANCH  67  70
ATOM     70  N   UNL     1     144.334 166.373 191.859  0.00  0.00    -0.284 N 
ATOM     71  C   UNL     1     143.034 166.837 192.033  0.00  0.00    +0.206 C 
ATOM     72  O   UNL     1     142.154 166.854 191.177  0.00  0.00    -0.279 OA
ATOM     73  H   UNL     1     142.819 167.208 193.049  0.00  0.00    +0.126 HD
BRANCH  70  74
ATOM     74  C   UNL     1     144.714 165.889 190.534  0.00  0.00    +0.007 C 
ATOM     75  H   UNL     1     144.407 166.633 189.786  0.00  0.00    +0.043 HD
ATOM     76  H   UNL     1     144.196 164.941 190.339  0.00  0.00    +0.043 HD
ATOM     77  H   UNL     1     145.790 165.716 190.448  0.00  0.00    +0.043 HD
ENDBRANCH  70  74
ENDBRANCH  67  70
ENDBRANCH  60  66
ENDBRANCH  58  60
BRANCH  58  78
ATOM     78  O   UNL     1     148.967 164.991 192.190  0.00  0.00    -0.379 OA
BRANCH  78  79
ATOM     79  C   UNL     1     149.130 163.580 192.097  0.00  0.00    +0.037 C 
ATOM     80  H   UNL     1     148.523 163.176 191.281  0.00  0.00    +0.052 HD
ATOM     81  H   UNL     1     150.180 163.315 191.949  0.00  0.00    +0.052 HD
ATOM     82  H   UNL     1     148.793 163.136 193.038  0.00  0.00    +0.052 HD
ENDBRANCH  78  79
ENDBRANCH  58  78
ENDBRANCH  52  58
ENDBRANCH  50  52
BRANCH  50  83
ATOM     83  O   UNL     1     152.127 166.466 192.103  0.00  0.00    -0.459 OA
BRANCH  83  85
ATOM     84  O   UNL     1     151.771 164.911 190.447  0.00  0.00    -0.248 OA
ATOM     85  C   UNL     1     152.285 165.947 190.852  0.00  0.00    +0.337 C 
BRANCH  85  86
ATOM     86  C   UNL     1     153.147 166.870 189.981  0.00  0.00    +0.155 C 
ATOM     87  O   UNL     1     152.440 167.612 188.967  0.00  0.00    -0.365 OA
ATOM     88  C   UNL     1     152.932 167.214 187.679  0.00  0.00    +0.049 C 
ATOM     89  C   UNL     1     154.349 166.737 187.928  0.00  0.00    -0.027 C 
ATOM     90  C   UNL     1     154.205 166.036 189.257  0.00  0.00    -0.014 C 
ATOM     91  H   UNL     1     153.605 167.613 190.647  0.00  0.00    +0.071 HD
ATOM     92  H   UNL     1     152.887 168.064 186.994  0.00  0.00    +0.056 HD
ATOM     93  H   UNL     1     152.297 166.410 187.291  0.00  0.00    +0.056 HD
ATOM     94  H   UNL     1     155.023 167.592 188.037  0.00  0.00    +0.029 HD
ATOM     95  H   UNL     1     154.723 166.090 187.127  0.00  0.00    +0.029 HD
ATOM     96  H   UNL     1     153.863 165.001 189.097  0.00  0.00    +0.030 HD
ATOM     97  H   UNL     1     155.148 165.986 189.817  0.00  0.00    +0.030 HD
ENDBRANCH  85  86
ENDBRANCH  83  85
ENDBRANCH  50  83
ENDBRANCH   1  50
TORSDOF 31
ENDMDL
MODEL 4
REMARK VINA RESULT:      -5.2      2.994      8.321
REMARK  Name = 2u_conf3
REMARK  31 active torsions:
REMARK  status: ('A' for Active; 'I' for Inactive)
REMARK    1  A    between atoms: C_2  and  C_3
REMARK    2  A    between atoms: C_2  and  O_8
REMARK    3  A    between atoms: O_8  and  C_9
REMARK    4  A    between atoms: C_9  and  C_10
REMARK    5  A    between atoms: C_9  and  C_29
REMARK    6  A    between atoms: C_10  and  C_11
REMARK    7  A    between atoms: C_11  and  C_12
REMARK    8  A    between atoms: C_12  and  C_13
REMARK    9  A    between atoms: C_12  and  C_14
REMARK   10  A    between atoms: C_14  and  O_15
REMARK   11  A    between atoms: C_14  and  C_17
REMARK   12  A    between atoms: O_15  and  C_16
REMARK   13  A    between atoms: C_17  and  C_18
REMARK   14  A    between atoms: C_18  and  O_19
REMARK   15  A    between atoms: C_18  and  C_26
REMARK   16  A    between atoms: O_19  and  C_20
REMARK   17  A    between atoms: C_20  and  C_21
REMARK   18  A    between atoms: C_21  and  C_22
REMARK   19  A    between atoms: C_22  and  C_23
REMARK   20  A    between atoms: C_23  and  N_24
REMARK   21  A    between atoms: C_26  and  C_27
REMARK   22  A    between atoms: C_26  and  C_28
REMARK   23  A    between atoms: C_29  and  C_30
REMARK   24  A    between atoms: C_29  and  C_31
REMARK   25  A    between atoms: C_31  and  O_32
REMARK   26  A    between atoms: C_31  and  C_34
REMARK   27  A    between atoms: O_32  and  C_33
REMARK   28  A    between atoms: C_34  and  C_35
REMARK   29  A    between atoms: C_34  and  C_36
REMARK   30  A    between atoms: C_37  and  N_38
REMARK   31  A    between atoms: N_38  and  C_39
REMARK                            x       y       z     vdW  Elec       q    Type
REMARK                         _______ _______ _______ _____ _____    ______ ____
ROOT
ATOM      1  C   UNL     1     152.045 167.243 192.103  0.00  0.00    -0.015 C 
ATOM      2  H   UNL     1     152.885 167.929 191.980  0.00  0.00    +0.030 HD
ATOM      3  H   UNL     1     152.244 166.605 192.967  0.00  0.00    +0.030 HD
ENDROOT
BRANCH   1   4
ATOM      4  C   UNL     1     150.770 168.059 192.381  0.00  0.00    -0.045 C 
ATOM      5  H   UNL     1     150.797 168.378 193.431  0.00  0.00    +0.027 HD
ATOM      6  H   UNL     1     149.881 167.429 192.294  0.00  0.00    +0.027 HD
BRANCH   4   7
ATOM      7  C   UNL     1     150.597 169.309 191.494  0.00  0.00    -0.017 C 
ATOM      8  H   UNL     1     151.029 169.077 190.512  0.00  0.00    +0.032 HD
BRANCH   7   9
ATOM      9  C   UNL     1     151.434 170.441 192.116  0.00  0.00    -0.060 C 
ATOM     10  H   UNL     1     152.445 170.464 191.695  0.00  0.00    +0.023 HD
ATOM     11  H   UNL     1     150.969 171.414 191.932  0.00  0.00    +0.023 HD
ATOM     12  H   UNL     1     151.517 170.331 193.201  0.00  0.00    +0.023 HD
ENDBRANCH   7   9
BRANCH   7  13
ATOM     13  C   UNL     1     149.119 169.741 191.276  0.00  0.00    +0.064 C 
ATOM     14  H   UNL     1     149.083 170.532 190.517  0.00  0.00    +0.060 HD
BRANCH  13  15
ATOM     15  C   UNL     1     148.510 170.295 192.589  0.00  0.00    +0.011 C 
ATOM     16  H   UNL     1     149.313 170.408 193.329  0.00  0.00    +0.033 HD
ATOM     17  H   UNL     1     147.803 169.561 192.991  0.00  0.00    +0.033 HD
BRANCH  15  18
ATOM     18  C   UNL     1     147.791 171.648 192.408  0.00  0.00    +0.108 C 
ATOM     19  H   UNL     1     146.741 171.574 192.712  0.00  0.00    +0.074 HD
BRANCH  18  20
ATOM     20  C   UNL     1     148.408 172.863 193.148  0.00  0.00    -0.009 C 
ATOM     21  H   UNL     1     149.108 172.448 193.890  0.00  0.00    +0.033 HD
BRANCH  20  22
ATOM     22  C   UNL     1     149.220 173.784 192.232  0.00  0.00    -0.059 C 
ATOM     23  H   UNL     1     149.343 174.782 192.663  0.00  0.00    +0.023 HD
ATOM     24  H   UNL     1     148.744 173.876 191.249  0.00  0.00    +0.023 HD
ATOM     25  H   UNL     1     150.222 173.368 192.069  0.00  0.00    +0.023 HD
ENDBRANCH  20  22
BRANCH  20  26
ATOM     26  C   UNL     1     147.379 173.683 193.943  0.00  0.00    -0.059 C 
ATOM     27  H   UNL     1     146.402 173.647 193.446  0.00  0.00    +0.023 HD
ATOM     28  H   UNL     1     147.671 174.739 194.014  0.00  0.00    +0.023 HD
ATOM     29  H   UNL     1     147.244 173.297 194.961  0.00  0.00    +0.023 HD
ENDBRANCH  20  26
ENDBRANCH  18  20
BRANCH  18  30
ATOM     30  O   UNL     1     147.855 171.984 190.997  0.00  0.00    -0.461 OA
BRANCH  30  31
ATOM     31  C   UNL     1     146.708 172.427 190.408  0.00  0.00    +0.307 C 
ATOM     32  O   UNL     1     146.646 173.188 189.454  0.00  0.00    -0.251 OA
BRANCH  31  33
ATOM     33  C   UNL     1     145.513 171.871 191.151  0.00  0.00    +0.046 C 
ATOM     34  H   UNL     1     145.073 171.039 190.582  0.00  0.00    +0.038 HD
ATOM     35  H   UNL     1     145.882 171.471 192.102  0.00  0.00    +0.038 HD
BRANCH  33  36
ATOM     36  C   UNL     1     144.446 172.935 191.407  0.00  0.00    -0.031 C 
ATOM     37  H   UNL     1     144.874 173.942 191.294  0.00  0.00    +0.028 HD
ATOM     38  H   UNL     1     144.111 172.841 192.454  0.00  0.00    +0.028 HD
BRANCH  36  39
ATOM     39  C   UNL     1     143.245 172.768 190.478  0.00  0.00    -0.006 C 
ATOM     40  H   UNL     1     142.361 173.247 190.914  0.00  0.00    +0.042 HD
ATOM     41  H   UNL     1     143.006 171.710 190.330  0.00  0.00    +0.042 HD
BRANCH  39  42
ATOM     42  N   UNL     1     143.522 173.384 189.187  0.00  0.00    -0.330 NA
ATOM     43  H   UNL     1     144.326 172.931 188.764  0.00  0.00    +0.118 HD
ATOM     44  H   UNL     1     143.765 174.369 189.312  0.00  0.00    +0.118 HD
ENDBRANCH  39  42
ENDBRANCH  36  39
ENDBRANCH  33  36
ENDBRANCH  31  33
ENDBRANCH  30  31
ENDBRANCH  18  30
ENDBRANCH  15  18
ENDBRANCH  13  15
BRANCH  13  45
ATOM     45  O   UNL     1     148.330 168.612 190.891  0.00  0.00    -0.379 OA
BRANCH  45  46
ATOM     46  C   UNL     1     147.557 168.812 189.716  0.00  0.00    +0.037 C 
ATOM     47  H   UNL     1     147.514 167.864 189.175  0.00  0.00    +0.052 HD
ATOM     48  H   UNL     1     148.024 169.557 189.066  0.00  0.00    +0.052 HD
ATOM     49  H   UNL     1     146.529 169.107 189.968  0.00  0.00    +0.052 HD
ENDBRANCH  45  46
ENDBRANCH  13  45
ENDBRANCH   7  13
ENDBRANCH   4   7
ENDBRANCH   1   4
BRANCH   1  50
ATOM     50  C   UNL     1     151.890 166.393 190.824  0.00  0.00    +0.108 C 
ATOM     51  H   UNL     1     151.210 166.936 190.151  0.00  0.00    +0.074 HD
BRANCH  50  52
ATOM     52  C   UNL     1     151.313 164.959 191.052  0.00  0.00    +0.020 C 
ATOM     53  H   UNL     1     151.273 164.828 192.140  0.00  0.00    +0.036 HD
BRANCH  52  54
ATOM     54  C   UNL     1     152.297 163.916 190.497  0.00  0.00    -0.057 C 
ATOM     55  H   UNL     1     153.297 164.347 190.360  0.00  0.00    +0.023 HD
ATOM     56  H   UNL     1     151.972 163.546 189.520  0.00  0.00    +0.023 HD
ATOM     57  H   UNL     1     152.395 163.061 191.171  0.00  0.00    +0.023 HD
ENDBRANCH  52  54
BRANCH  52  58
ATOM     58  C   UNL     1     149.858 164.748 190.525  0.00  0.00    +0.070 C 
ATOM     59  H   UNL     1     149.848 163.830 189.922  0.00  0.00    +0.061 HD
BRANCH  58  60
ATOM     60  C   UNL     1     148.795 164.563 191.662  0.00  0.00    +0.002 C 
ATOM     61  H   UNL     1     148.476 163.514 191.623  0.00  0.00    +0.037 HD
BRANCH  60  62
ATOM     62  C   UNL     1     147.525 165.387 191.416  0.00  0.00    -0.057 C 
ATOM     63  H   UNL     1     147.628 166.048 190.549  0.00  0.00    +0.024 HD
ATOM     64  H   UNL     1     146.665 164.730 191.248  0.00  0.00    +0.024 HD
ATOM     65  H   UNL     1     147.302 166.022 192.281  0.00  0.00    +0.024 HD
ENDBRANCH  60  62
BRANCH  60  66
ATOM     66  C   UNL     1     149.277 164.805 193.084  0.00  0.00    -0.065 C 
ATOM     67  C   UNL     1     148.838 165.784 193.890  0.00  0.00    -0.005 C 
ATOM     68  H   UNL     1     150.019 164.084 193.425  0.00  0.00    +0.059 HD
ATOM     69  H   UNL     1     148.085 166.478 193.507  0.00  0.00    +0.078 HD
BRANCH  67  70
ATOM     70  N   UNL     1     149.202 166.018 195.203  0.00  0.00    -0.284 N 
ATOM     71  C   UNL     1     150.506 166.129 195.672  0.00  0.00    +0.206 C 
ATOM     72  O   UNL     1     150.840 166.277 196.845  0.00  0.00    -0.279 OA
ATOM     73  H   UNL     1     151.276 166.066 194.885  0.00  0.00    +0.126 HD
BRANCH  70  74
ATOM     74  C   UNL     1     148.116 166.119 196.175  0.00  0.00    +0.007 C 
ATOM     75  H   UNL     1     147.883 165.113 196.550  0.00  0.00    +0.043 HD
ATOM     76  H   UNL     1     147.231 166.538 195.678  0.00  0.00    +0.043 HD
ATOM     77  H   UNL     1     148.372 166.766 197.019  0.00  0.00    +0.043 HD
ENDBRANCH  70  74
ENDBRANCH  67  70
ENDBRANCH  60  66
ENDBRANCH  58  60
BRANCH  58  78
ATOM     78  O   UNL     1     149.483 165.871 189.709  0.00  0.00    -0.379 OA
BRANCH  78  79
ATOM     79  C   UNL     1     149.459 165.588 188.314  0.00  0.00    +0.037 C 
ATOM     80  H   UNL     1     148.500 165.147 188.027  0.00  0.00    +0.052 HD
ATOM     81  H   UNL     1     149.646 166.491 187.727  0.00  0.00    +0.052 HD
ATOM     82  H   UNL     1     150.255 164.869 188.099  0.00  0.00    +0.052 HD
ENDBRANCH  78  79
ENDBRANCH  58  78
ENDBRANCH  52  58
ENDBRANCH  50  52
BRANCH  50  83
ATOM     83  O   UNL     1     153.194 166.350 190.215  0.00  0.00    -0.459 OA
BRANCH  83  85
ATOM     84  O   UNL     1     152.550 167.758 188.515  0.00  0.00    -0.248 OA
ATOM     85  C   UNL     1     153.335 166.952 189.000  0.00  0.00    +0.337 C 
BRANCH  85  86
ATOM     86  C   UNL     1     154.653 166.536 188.333  0.00  0.00    +0.155 C 
ATOM     87  O   UNL     1     154.575 165.396 187.453  0.00  0.00    -0.365 OA
ATOM     88  C   UNL     1     155.406 164.351 187.981  0.00  0.00    +0.049 C 
ATOM     89  C   UNL     1     156.470 165.064 188.792  0.00  0.00    -0.027 C 
ATOM     90  C   UNL     1     155.677 166.186 189.415  0.00  0.00    -0.014 C 
ATOM     91  H   UNL     1     154.989 167.381 187.718  0.00  0.00    +0.071 HD
ATOM     92  H   UNL     1     155.823 163.768 187.156  0.00  0.00    +0.056 HD
ATOM     93  H   UNL     1     154.792 163.694 188.607  0.00  0.00    +0.056 HD
ATOM     94  H   UNL     1     157.235 165.481 188.130  0.00  0.00    +0.029 HD
ATOM     95  H   UNL     1     156.952 164.407 189.523  0.00  0.00    +0.029 HD
ATOM     96  H   UNL     1     155.185 165.829 190.334  0.00  0.00    +0.030 HD
ATOM     97  H   UNL     1     156.299 167.047 189.691  0.00  0.00    +0.030 HD
ENDBRANCH  85  86
ENDBRANCH  83  85
ENDBRANCH  50  83
ENDBRANCH   1  50
TORSDOF 31
ENDMDL
MODEL 5
REMARK VINA RESULT:      -5.2      3.247      7.188
REMARK  Name = 2u_conf3
REMARK  31 active torsions:
REMARK  status: ('A' for Active; 'I' for Inactive)
REMARK    1  A    between atoms: C_2  and  C_3
REMARK    2  A    between atoms: C_2  and  O_8
REMARK    3  A    between atoms: O_8  and  C_9
REMARK    4  A    between atoms: C_9  and  C_10
REMARK    5  A    between atoms: C_9  and  C_29
REMARK    6  A    between atoms: C_10  and  C_11
REMARK    7  A    between atoms: C_11  and  C_12
REMARK    8  A    between atoms: C_12  and  C_13
REMARK    9  A    between atoms: C_12  and  C_14
REMARK   10  A    between atoms: C_14  and  O_15
REMARK   11  A    between atoms: C_14  and  C_17
REMARK   12  A    between atoms: O_15  and  C_16
REMARK   13  A    between atoms: C_17  and  C_18
REMARK   14  A    between atoms: C_18  and  O_19
REMARK   15  A    between atoms: C_18  and  C_26
REMARK   16  A    between atoms: O_19  and  C_20
REMARK   17  A    between atoms: C_20  and  C_21
REMARK   18  A    between atoms: C_21  and  C_22
REMARK   19  A    between atoms: C_22  and  C_23
REMARK   20  A    between atoms: C_23  and  N_24
REMARK   21  A    between atoms: C_26  and  C_27
REMARK   22  A    between atoms: C_26  and  C_28
REMARK   23  A    between atoms: C_29  and  C_30
REMARK   24  A    between atoms: C_29  and  C_31
REMARK   25  A    between atoms: C_31  and  O_32
REMARK   26  A    between atoms: C_31  and  C_34
REMARK   27  A    between atoms: O_32  and  C_33
REMARK   28  A    between atoms: C_34  and  C_35
REMARK   29  A    between atoms: C_34  and  C_36
REMARK   30  A    between atoms: C_37  and  N_38
REMARK   31  A    between atoms: N_38  and  C_39
REMARK                            x       y       z     vdW  Elec       q    Type
REMARK                         _______ _______ _______ _____ _____    ______ ____
ROOT
ATOM      1  C   UNL     1     149.811 165.893 189.656  0.00  0.00    -0.015 C 
ATOM      2  H   UNL     1     149.236 166.546 188.997  0.00  0.00    +0.030 HD
ATOM      3  H   UNL     1     149.935 164.926 189.164  0.00  0.00    +0.030 HD
ENDROOT
BRANCH   1   4
ATOM      4  C   UNL     1     151.203 166.509 189.880  0.00  0.00    -0.045 C 
ATOM      5  H   UNL     1     151.856 165.726 190.286  0.00  0.00    +0.027 HD
ATOM      6  H   UNL     1     151.164 167.280 190.655  0.00  0.00    +0.027 HD
BRANCH   4   7
ATOM      7  C   UNL     1     151.864 167.092 188.615  0.00  0.00    -0.017 C 
ATOM      8  H   UNL     1     152.102 168.143 188.824  0.00  0.00    +0.032 HD
BRANCH   7   9
ATOM      9  C   UNL     1     150.815 167.068 187.489  0.00  0.00    -0.060 C 
ATOM     10  H   UNL     1     149.823 167.342 187.864  0.00  0.00    +0.023 HD
ATOM     11  H   UNL     1     151.082 167.771 186.694  0.00  0.00    +0.023 HD
ATOM     12  H   UNL     1     150.745 166.080 187.025  0.00  0.00    +0.023 HD
ENDBRANCH   7   9
BRANCH   7  13
ATOM     13  C   UNL     1     153.179 166.378 188.190  0.00  0.00    +0.064 C 
ATOM     14  H   UNL     1     152.965 165.691 187.363  0.00  0.00    +0.060 HD
BRANCH  13  15
ATOM     15  C   UNL     1     153.762 165.558 189.369  0.00  0.00    +0.011 C 
ATOM     16  H   UNL     1     152.987 165.446 190.138  0.00  0.00    +0.033 HD
ATOM     17  H   UNL     1     154.585 166.122 189.823  0.00  0.00    +0.033 HD
BRANCH  15  18
ATOM     18  C   UNL     1     154.271 164.163 188.952  0.00  0.00    +0.108 C 
ATOM     19  H   UNL     1     153.910 163.901 187.950  0.00  0.00    +0.074 HD
BRANCH  18  20
ATOM     20  C   UNL     1     155.807 163.954 188.965  0.00  0.00    -0.009 C 
ATOM     21  H   UNL     1     156.090 163.686 187.934  0.00  0.00    +0.033 HD
BRANCH  20  22
ATOM     22  C   UNL     1     156.589 165.220 189.329  0.00  0.00    -0.059 C 
ATOM     23  H   UNL     1     156.319 165.595 190.322  0.00  0.00    +0.023 HD
ATOM     24  H   UNL     1     156.416 166.012 188.590  0.00  0.00    +0.023 HD
ATOM     25  H   UNL     1     157.666 165.012 189.334  0.00  0.00    +0.023 HD
ENDBRANCH  20  22
BRANCH  20  26
ATOM     26  C   UNL     1     156.259 162.782 189.849  0.00  0.00    -0.059 C 
ATOM     27  H   UNL     1     155.388 162.216 190.200  0.00  0.00    +0.023 HD
ATOM     28  H   UNL     1     156.802 163.130 190.738  0.00  0.00    +0.023 HD
ATOM     29  H   UNL     1     156.907 162.083 189.305  0.00  0.00    +0.023 HD
ENDBRANCH  20  26
ENDBRANCH  18  20
BRANCH  18  30
ATOM     30  O   UNL     1     153.745 163.208 189.911  0.00  0.00    -0.461 OA
BRANCH  30  31
ATOM     31  C   UNL     1     152.763 162.366 189.480  0.00  0.00    +0.307 C 
ATOM     32  O   UNL     1     152.806 161.683 188.468  0.00  0.00    -0.251 OA
BRANCH  31  33
ATOM     33  C   UNL     1     151.583 162.444 190.423  0.00  0.00    +0.046 C 
ATOM     34  H   UNL     1     151.674 161.672 191.201  0.00  0.00    +0.038 HD
ATOM     35  H   UNL     1     151.626 163.423 190.914  0.00  0.00    +0.038 HD
BRANCH  33  36
ATOM     36  C   UNL     1     150.249 162.280 189.695  0.00  0.00    -0.031 C 
ATOM     37  H   UNL     1     150.398 162.335 188.606  0.00  0.00    +0.028 HD
ATOM     38  H   UNL     1     149.598 163.125 189.976  0.00  0.00    +0.028 HD
BRANCH  36  39
ATOM     39  C   UNL     1     149.560 160.969 190.064  0.00  0.00    -0.006 C 
ATOM     40  H   UNL     1     150.069 160.126 189.582  0.00  0.00    +0.042 HD
ATOM     41  H   UNL     1     148.519 160.962 189.725  0.00  0.00    +0.042 HD
BRANCH  39  42
ATOM     42  N   UNL     1     149.597 160.773 191.508  0.00  0.00    -0.330 NA
ATOM     43  H   UNL     1     149.159 161.566 191.966  0.00  0.00    +0.118 HD
ATOM     44  H   UNL     1     150.566 160.738 191.833  0.00  0.00    +0.118 HD
ENDBRANCH  39  42
ENDBRANCH  36  39
ENDBRANCH  33  36
ENDBRANCH  31  33
ENDBRANCH  30  31
ENDBRANCH  18  30
ENDBRANCH  15  18
ENDBRANCH  13  15
BRANCH  13  45
ATOM     45  O   UNL     1     154.166 167.346 187.823  0.00  0.00    -0.379 OA
BRANCH  45  46
ATOM     46  C   UNL     1     154.605 167.250 186.476  0.00  0.00    +0.037 C 
ATOM     47  H   UNL     1     155.503 166.627 186.457  0.00  0.00    +0.052 HD
ATOM     48  H   UNL     1     154.863 168.236 186.081  0.00  0.00    +0.052 HD
ATOM     49  H   UNL     1     153.843 166.768 185.847  0.00  0.00    +0.052 HD
ENDBRANCH  45  46
ENDBRANCH  13  45
ENDBRANCH   7  13
ENDBRANCH   4   7
ENDBRANCH   1   4
BRANCH   1  50
ATOM     50  C   UNL     1     149.057 165.729 190.993  0.00  0.00    +0.108 C 
ATOM     51  H   UNL     1     148.456 164.809 190.919  0.00  0.00    +0.074 HD
BRANCH  50  52
ATOM     52  C   UNL     1     148.102 166.909 191.359  0.00  0.00    +0.020 C 
ATOM     53  H   UNL     1     147.224 166.444 191.825  0.00  0.00    +0.036 HD
BRANCH  52  54
ATOM     54  C   UNL     1     147.627 167.603 190.072  0.00  0.00    -0.057 C 
ATOM     55  H   UNL     1     146.700 168.166 190.242  0.00  0.00    +0.023 HD
ATOM     56  H   UNL     1     147.417 166.872 189.284  0.00  0.00    +0.023 HD
ATOM     57  H   UNL     1     148.376 168.304 189.696  0.00  0.00    +0.023 HD
ENDBRANCH  52  54
BRANCH  52  58
ATOM     58  C   UNL     1     148.677 167.917 192.404  0.00  0.00    +0.070 C 
ATOM     59  H   UNL     1     149.607 167.493 192.806  0.00  0.00    +0.061 HD
BRANCH  58  60
ATOM     60  C   UNL     1     149.035 169.318 191.799  0.00  0.00    +0.002 C 
ATOM     61  H   UNL     1     148.807 169.262 190.727  0.00  0.00    +0.037 HD
BRANCH  60  62
ATOM     62  C   UNL     1     150.535 169.626 191.883  0.00  0.00    -0.057 C 
ATOM     63  H   UNL     1     151.050 168.960 192.585  0.00  0.00    +0.024 HD
ATOM     64  H   UNL     1     151.007 169.523 190.900  0.00  0.00    +0.024 HD
ATOM     65  H   UNL     1     150.701 170.652 192.232  0.00  0.00    +0.024 HD
ENDBRANCH  60  62
BRANCH  60  66
ATOM     66  C   UNL     1     148.252 170.507 192.335  0.00  0.00    -0.065 C 
ATOM     67  C   UNL     1     147.499 171.331 191.589  0.00  0.00    -0.005 C 
ATOM     68  H   UNL     1     148.330 170.635 193.413  0.00  0.00    +0.059 HD
ATOM     69  H   UNL     1     147.442 171.156 190.512  0.00  0.00    +0.078 HD
BRANCH  67  70
ATOM     70  N   UNL     1     146.728 172.391 192.028  0.00  0.00    -0.284 N 
ATOM     71  C   UNL     1     145.491 172.760 191.510  0.00  0.00    +0.206 C 
ATOM     72  O   UNL     1     144.827 173.735 191.853  0.00  0.00    -0.279 OA
ATOM     73  H   UNL     1     145.117 172.091 190.717  0.00  0.00    +0.126 HD
BRANCH  70  74
ATOM     74  C   UNL     1     147.287 173.207 193.104  0.00  0.00    +0.007 C 
ATOM     75  H   UNL     1     146.568 173.998 193.357  0.00  0.00    +0.043 HD
ATOM     76  H   UNL     1     148.223 173.663 192.755  0.00  0.00    +0.043 HD
ATOM     77  H   UNL     1     147.506 172.620 194.000  0.00  0.00    +0.043 HD
ENDBRANCH  70  74
ENDBRANCH  67  70
ENDBRANCH  60  66
ENDBRANCH  58  60
BRANCH  58  78
ATOM     78  O   UNL     1     147.724 168.094 193.466  0.00  0.00    -0.379 OA
BRANCH  78  79
ATOM     79  C   UNL     1     147.569 166.949 194.298  0.00  0.00    +0.037 C 
ATOM     80  H   UNL     1     146.836 166.259 193.870  0.00  0.00    +0.052 HD
ATOM     81  H   UNL     1     148.524 166.437 194.443  0.00  0.00    +0.052 HD
ATOM     82  H   UNL     1     147.208 167.285 195.274  0.00  0.00    +0.052 HD
ENDBRANCH  78  79
ENDBRANCH  58  78
ENDBRANCH  52  58
ENDBRANCH  50  52
BRANCH  50  83
ATOM     83  O   UNL     1     150.069 165.532 191.998  0.00  0.00    -0.459 OA
BRANCH  83  85
ATOM     84  O   UNL     1     149.067 163.606 192.756  0.00  0.00    -0.248 OA
ATOM     85  C   UNL     1     149.875 164.517 192.888  0.00  0.00    +0.337 C 
BRANCH  85  86
ATOM     86  C   UNL     1     150.856 164.625 194.063  0.00  0.00    +0.155 C 
ATOM     87  O   UNL     1     150.380 164.111 195.324  0.00  0.00    -0.365 OA
ATOM     88  C   UNL     1     150.330 165.189 196.270  0.00  0.00    +0.049 C 
ATOM     89  C   UNL     1     151.368 166.183 195.791  0.00  0.00    -0.027 C 
ATOM     90  C   UNL     1     151.206 166.096 194.293  0.00  0.00    -0.014 C 
ATOM     91  H   UNL     1     151.744 164.035 193.802  0.00  0.00    +0.071 HD
ATOM     92  H   UNL     1     150.542 164.804 197.270  0.00  0.00    +0.056 HD
ATOM     93  H   UNL     1     149.322 165.620 196.260  0.00  0.00    +0.056 HD
ATOM     94  H   UNL     1     152.372 165.848 196.070  0.00  0.00    +0.029 HD
ATOM     95  H   UNL     1     151.206 167.188 196.194  0.00  0.00    +0.029 HD
ATOM     96  H   UNL     1     150.390 166.760 193.967  0.00  0.00    +0.030 HD
ATOM     97  H   UNL     1     152.110 166.398 193.748  0.00  0.00    +0.030 HD
ENDBRANCH  85  86
ENDBRANCH  83  85
ENDBRANCH  50  83
ENDBRANCH   1  50
TORSDOF 31
ENDMDL
MODEL 6
REMARK VINA RESULT:      -5.2      1.490      2.238
REMARK  Name = 2u_conf3
REMARK  31 active torsions:
REMARK  status: ('A' for Active; 'I' for Inactive)
REMARK    1  A    between atoms: C_2  and  C_3
REMARK    2  A    between atoms: C_2  and  O_8
REMARK    3  A    between atoms: O_8  and  C_9
REMARK    4  A    between atoms: C_9  and  C_10
REMARK    5  A    between atoms: C_9  and  C_29
REMARK    6  A    between atoms: C_10  and  C_11
REMARK    7  A    between atoms: C_11  and  C_12
REMARK    8  A    between atoms: C_12  and  C_13
REMARK    9  A    between atoms: C_12  and  C_14
REMARK   10  A    between atoms: C_14  and  O_15
REMARK   11  A    between atoms: C_14  and  C_17
REMARK   12  A    between atoms: O_15  and  C_16
REMARK   13  A    between atoms: C_17  and  C_18
REMARK   14  A    between atoms: C_18  and  O_19
REMARK   15  A    between atoms: C_18  and  C_26
REMARK   16  A    between atoms: O_19  and  C_20
REMARK   17  A    between atoms: C_20  and  C_21
REMARK   18  A    between atoms: C_21  and  C_22
REMARK   19  A    between atoms: C_22  and  C_23
REMARK   20  A    between atoms: C_23  and  N_24
REMARK   21  A    between atoms: C_26  and  C_27
REMARK   22  A    between atoms: C_26  and  C_28
REMARK   23  A    between atoms: C_29  and  C_30
REMARK   24  A    between atoms: C_29  and  C_31
REMARK   25  A    between atoms: C_31  and  O_32
REMARK   26  A    between atoms: C_31  and  C_34
REMARK   27  A    between atoms: O_32  and  C_33
REMARK   28  A    between atoms: C_34  and  C_35
REMARK   29  A    between atoms: C_34  and  C_36
REMARK   30  A    between atoms: C_37  and  N_38
REMARK   31  A    between atoms: N_38  and  C_39
REMARK                            x       y       z     vdW  Elec       q    Type
REMARK                         _______ _______ _______ _____ _____    ______ ____
ROOT
ATOM      1  C   UNL     1     148.157 169.852 192.334  0.00  0.00    -0.015 C 
ATOM      2  H   UNL     1     147.793 168.880 192.671  0.00  0.00    +0.030 HD
ATOM      3  H   UNL     1     148.284 170.495 193.207  0.00  0.00    +0.030 HD
ENDROOT
BRANCH   1   4
ATOM      4  C   UNL     1     149.528 169.665 191.660  0.00  0.00    -0.045 C 
ATOM      5  H   UNL     1     150.226 170.380 192.115  0.00  0.00    +0.027 HD
ATOM      6  H   UNL     1     149.479 169.943 190.603  0.00  0.00    +0.027 HD
BRANCH   4   7
ATOM      7  C   UNL     1     150.124 168.248 191.787  0.00  0.00    -0.017 C 
ATOM      8  H   UNL     1     150.006 167.935 192.832  0.00  0.00    +0.032 HD
BRANCH   7   9
ATOM      9  C   UNL     1     151.632 168.350 191.499  0.00  0.00    -0.060 C 
ATOM     10  H   UNL     1     151.953 169.396 191.428  0.00  0.00    +0.023 HD
ATOM     11  H   UNL     1     152.212 167.872 192.294  0.00  0.00    +0.023 HD
ATOM     12  H   UNL     1     151.899 167.846 190.566  0.00  0.00    +0.023 HD
ENDBRANCH   7   9
BRANCH   7  13
ATOM     13  C   UNL     1     149.438 167.180 190.888  0.00  0.00    +0.064 C 
ATOM     14  H   UNL     1     148.818 167.686 190.137  0.00  0.00    +0.060 HD
BRANCH  13  15
ATOM     15  C   UNL     1     148.527 166.255 191.733  0.00  0.00    +0.011 C 
ATOM     16  H   UNL     1     148.684 165.217 191.413  0.00  0.00    +0.033 HD
ATOM     17  H   UNL     1     147.479 166.501 191.525  0.00  0.00    +0.033 HD
BRANCH  15  18
ATOM     18  C   UNL     1     148.783 166.363 193.251  0.00  0.00    +0.108 C 
ATOM     19  H   UNL     1     149.562 167.105 193.461  0.00  0.00    +0.074 HD
BRANCH  18  20
ATOM     20  C   UNL     1     147.558 166.707 194.136  0.00  0.00    -0.009 C 
ATOM     21  H   UNL     1     147.043 167.543 193.637  0.00  0.00    +0.033 HD
BRANCH  20  22
ATOM     22  C   UNL     1     146.547 165.561 194.247  0.00  0.00    -0.059 C 
ATOM     23  H   UNL     1     146.044 165.368 193.294  0.00  0.00    +0.023 HD
ATOM     24  H   UNL     1     145.792 165.780 195.011  0.00  0.00    +0.023 HD
ATOM     25  H   UNL     1     147.054 164.637 194.547  0.00  0.00    +0.023 HD
ENDBRANCH  20  22
BRANCH  20  26
ATOM     26  C   UNL     1     147.937 167.214 195.536  0.00  0.00    -0.059 C 
ATOM     27  H   UNL     1     147.796 168.301 195.595  0.00  0.00    +0.023 HD
ATOM     28  H   UNL     1     148.989 167.008 195.771  0.00  0.00    +0.023 HD
ATOM     29  H   UNL     1     147.317 166.761 196.320  0.00  0.00    +0.023 HD
ENDBRANCH  20  26
ENDBRANCH  18  20
BRANCH  18  30
ATOM     30  O   UNL     1     149.233 165.060 193.706  0.00  0.00    -0.461 OA
BRANCH  30  31
ATOM     31  C   UNL     1     150.561 164.778 193.578  0.00  0.00    +0.307 C 
ATOM     32  O   UNL     1     151.044 163.973 192.796  0.00  0.00    -0.251 OA
BRANCH  31  33
ATOM     33  C   UNL     1     151.346 165.580 194.592  0.00  0.00    +0.046 C 
ATOM     34  H   UNL     1     152.421 165.386 194.471  0.00  0.00    +0.038 HD
ATOM     35  H   UNL     1     151.168 166.639 194.374  0.00  0.00    +0.038 HD
BRANCH  33  36
ATOM     36  C   UNL     1     150.929 165.262 196.028  0.00  0.00    -0.031 C 
ATOM     37  H   UNL     1     149.837 165.148 196.093  0.00  0.00    +0.028 HD
ATOM     38  H   UNL     1     151.203 166.121 196.663  0.00  0.00    +0.028 HD
BRANCH  36  39
ATOM     39  C   UNL     1     151.620 164.007 196.554  0.00  0.00    -0.006 C 
ATOM     40  H   UNL     1     152.027 164.191 197.555  0.00  0.00    +0.042 HD
ATOM     41  H   UNL     1     152.455 163.717 195.908  0.00  0.00    +0.042 HD
BRANCH  39  42
ATOM     42  N   UNL     1     150.668 162.906 196.631  0.00  0.00    -0.330 NA
ATOM     43  H   UNL     1     150.298 162.715 195.706  0.00  0.00    +0.118 HD
ATOM     44  H   UNL     1     149.875 163.168 197.221  0.00  0.00    +0.118 HD
ENDBRANCH  39  42
ENDBRANCH  36  39
ENDBRANCH  33  36
ENDBRANCH  31  33
ENDBRANCH  30  31
ENDBRANCH  18  30
ENDBRANCH  15  18
ENDBRANCH  13  15
BRANCH  13  45
ATOM     45  O   UNL     1     150.426 166.349 190.273  0.00  0.00    -0.379 OA
BRANCH  45  46
ATOM     46  C   UNL     1     149.910 165.163 189.688  0.00  0.00    +0.037 C 
ATOM     47  H   UNL     1     149.056 165.438 189.063  0.00  0.00    +0.052 HD
ATOM     48  H   UNL     1     149.562 164.469 190.458  0.00  0.00    +0.052 HD
ATOM     49  H   UNL     1     150.661 164.683 189.044  0.00  0.00    +0.052 HD
ENDBRANCH  45  46
ENDBRANCH  13  45
ENDBRANCH   7  13
ENDBRANCH   4   7
ENDBRANCH   1   4
BRANCH   1  50
ATOM     50  C   UNL     1     147.136 170.465 191.352  0.00  0.00    +0.108 C 
ATOM     51  H   UNL     1     146.359 170.958 191.955  0.00  0.00    +0.074 HD
BRANCH  50  52
ATOM     52  C   UNL     1     146.441 169.440 190.400  0.00  0.00    +0.020 C 
ATOM     53  H   UNL     1     146.650 168.452 190.828  0.00  0.00    +0.036 HD
BRANCH  52  54
ATOM     54  C   UNL     1     147.110 169.492 189.016  0.00  0.00    -0.057 C 
ATOM     55  H   UNL     1     148.178 169.250 189.081  0.00  0.00    +0.023 HD
ATOM     56  H   UNL     1     147.035 170.492 188.578  0.00  0.00    +0.023 HD
ATOM     57  H   UNL     1     146.651 168.781 188.323  0.00  0.00    +0.023 HD
ENDBRANCH  52  54
BRANCH  52  58
ATOM     58  C   UNL     1     144.887 169.571 190.319  0.00  0.00    +0.070 C 
ATOM     59  H   UNL     1     144.625 169.835 189.285  0.00  0.00    +0.061 HD
BRANCH  58  60
ATOM     60  C   UNL     1     144.124 168.246 190.663  0.00  0.00    +0.002 C 
ATOM     61  H   UNL     1     143.392 168.501 191.440  0.00  0.00    +0.037 HD
BRANCH  60  62
ATOM     62  C   UNL     1     145.039 167.189 191.293  0.00  0.00    -0.057 C 
ATOM     63  H   UNL     1     145.459 167.529 192.245  0.00  0.00    +0.024 HD
ATOM     64  H   UNL     1     144.491 166.258 191.469  0.00  0.00    +0.024 HD
ATOM     65  H   UNL     1     145.884 166.964 190.630  0.00  0.00    +0.024 HD
ENDBRANCH  60  62
BRANCH  60  66
ATOM     66  C   UNL     1     143.331 167.609 189.532  0.00  0.00    -0.065 C 
ATOM     67  C   UNL     1     142.033 167.836 189.279  0.00  0.00    -0.005 C 
ATOM     68  H   UNL     1     143.921 166.944 188.902  0.00  0.00    +0.059 HD
ATOM     69  H   UNL     1     141.484 168.520 189.932  0.00  0.00    +0.078 HD
BRANCH  67  70
ATOM     70  N   UNL     1     141.278 167.326 188.238  0.00  0.00    -0.284 N 
ATOM     71  C   UNL     1     141.346 166.024 187.754  0.00  0.00    +0.206 C 
ATOM     72  O   UNL     1     140.724 165.579 186.793  0.00  0.00    -0.279 OA
ATOM     73  H   UNL     1     142.039 165.371 188.310  0.00  0.00    +0.126 HD
BRANCH  70  74
ATOM     74  C   UNL     1     140.362 168.252 187.578  0.00  0.00    +0.007 C 
ATOM     75  H   UNL     1     140.605 169.275 187.896  0.00  0.00    +0.043 HD
ATOM     76  H   UNL     1     139.334 168.011 187.878  0.00  0.00    +0.043 HD
ATOM     77  H   UNL     1     140.423 168.192 186.488  0.00  0.00    +0.043 HD
ENDBRANCH  70  74
ENDBRANCH  67  70
ENDBRANCH  60  66
ENDBRANCH  58  60
BRANCH  58  78
ATOM     78  O   UNL     1     144.453 170.609 191.212  0.00  0.00    -0.379 OA
BRANCH  78  79
ATOM     79  C   UNL     1     143.065 170.913 191.112  0.00  0.00    +0.037 C 
ATOM     80  H   UNL     1     142.582 170.829 192.090  0.00  0.00    +0.052 HD
ATOM     81  H   UNL     1     142.912 171.916 190.703  0.00  0.00    +0.052 HD
ATOM     82  H   UNL     1     142.607 170.191 190.431  0.00  0.00    +0.052 HD
ENDBRANCH  78  79
ENDBRANCH  58  78
ENDBRANCH  52  58
ENDBRANCH  50  52
BRANCH  50  83
ATOM     83  O   UNL     1     147.851 171.475 190.616  0.00  0.00    -0.459 OA
BRANCH  83  85
ATOM     84  O   UNL     1     146.443 173.032 189.678  0.00  0.00    -0.248 OA
ATOM     85  C   UNL     1     147.271 172.705 190.520  0.00  0.00    +0.337 C 
BRANCH  85  86
ATOM     86  C   UNL     1     147.743 173.623 191.655  0.00  0.00    +0.155 C 
ATOM     87  O   UNL     1     149.111 173.441 192.077  0.00  0.00    -0.365 OA
ATOM     88  C   UNL     1     149.115 173.024 193.451  0.00  0.00    +0.049 C 
ATOM     89  C   UNL     1     147.832 173.577 194.036  0.00  0.00    -0.027 C 
ATOM     90  C   UNL     1     146.869 173.391 192.889  0.00  0.00    -0.014 C 
ATOM     91  H   UNL     1     147.665 174.656 191.294  0.00  0.00    +0.071 HD
ATOM     92  H   UNL     1     150.008 173.415 193.945  0.00  0.00    +0.056 HD
ATOM     93  H   UNL     1     149.138 171.929 193.487  0.00  0.00    +0.056 HD
ATOM     94  H   UNL     1     147.941 174.644 194.251  0.00  0.00    +0.029 HD
ATOM     95  H   UNL     1     147.530 173.059 194.952  0.00  0.00    +0.029 HD
ATOM     96  H   UNL     1     146.461 172.368 192.907  0.00  0.00    +0.030 HD
ATOM     97  H   UNL     1     146.018 174.082 192.929  0.00  0.00    +0.030 HD
ENDBRANCH  85  86
ENDBRANCH  83  85
ENDBRANCH  50  83
ENDBRANCH   1  50
TORSDOF 31
ENDMDL
MODEL 7
REMARK VINA RESULT:      -5.1      3.848      9.051
REMARK  Name = 2u_conf3
REMARK  31 active torsions:
REMARK  status: ('A' for Active; 'I' for Inactive)
REMARK    1  A    between atoms: C_2  and  C_3
REMARK    2  A    between atoms: C_2  and  O_8
REMARK    3  A    between atoms: O_8  and  C_9
REMARK    4  A    between atoms: C_9  and  C_10
REMARK    5  A    between atoms: C_9  and  C_29
REMARK    6  A    between atoms: C_10  and  C_11
REMARK    7  A    between atoms: C_11  and  C_12
REMARK    8  A    between atoms: C_12  and  C_13
REMARK    9  A    between atoms: C_12  and  C_14
REMARK   10  A    between atoms: C_14  and  O_15
REMARK   11  A    between atoms: C_14  and  C_17
REMARK   12  A    between atoms: O_15  and  C_16
REMARK   13  A    between atoms: C_17  and  C_18
REMARK   14  A    between atoms: C_18  and  O_19
REMARK   15  A    between atoms: C_18  and  C_26
REMARK   16  A    between atoms: O_19  and  C_20
REMARK   17  A    between atoms: C_20  and  C_21
REMARK   18  A    between atoms: C_21  and  C_22
REMARK   19  A    between atoms: C_22  and  C_23
REMARK   20  A    between atoms: C_23  and  N_24
REMARK   21  A    between atoms: C_26  and  C_27
REMARK   22  A    between atoms: C_26  and  C_28
REMARK   23  A    between atoms: C_29  and  C_30
REMARK   24  A    between atoms: C_29  and  C_31
REMARK   25  A    between atoms: C_31  and  O_32
REMARK   26  A    between atoms: C_31  and  C_34
REMARK   27  A    between atoms: O_32  and  C_33
REMARK   28  A    between atoms: C_34  and  C_35
REMARK   29  A    between atoms: C_34  and  C_36
REMARK   30  A    between atoms: C_37  and  N_38
REMARK   31  A    between atoms: N_38  and  C_39
REMARK                            x       y       z     vdW  Elec       q    Type
REMARK                         _______ _______ _______ _____ _____    ______ ____
ROOT
ATOM      1  C   UNL     1     152.345 167.304 192.249  0.00  0.00    -0.015 C 
ATOM      2  H   UNL     1     152.966 167.824 191.517  0.00  0.00    +0.030 HD
ATOM      3  H   UNL     1     152.917 167.194 193.172  0.00  0.00    +0.030 HD
ENDROOT
BRANCH   1   4
ATOM      4  C   UNL     1     151.099 168.157 192.544  0.00  0.00    -0.045 C 
ATOM      5  H   UNL     1     151.239 168.628 193.526  0.00  0.00    +0.027 HD
ATOM      6  H   UNL     1     150.214 167.524 192.653  0.00  0.00    +0.027 HD
BRANCH   4   7
ATOM      7  C   UNL     1     150.811 169.262 191.507  0.00  0.00    -0.017 C 
ATOM      8  H   UNL     1     151.114 168.877 190.525  0.00  0.00    +0.032 HD
BRANCH   7   9
ATOM      9  C   UNL     1     151.720 170.459 191.839  0.00  0.00    -0.060 C 
ATOM     10  H   UNL     1     152.313 170.761 190.969  0.00  0.00    +0.023 HD
ATOM     11  H   UNL     1     151.126 171.321 192.158  0.00  0.00    +0.023 HD
ATOM     12  H   UNL     1     152.407 170.229 192.659  0.00  0.00    +0.023 HD
ENDBRANCH   7   9
BRANCH   7  13
ATOM     13  C   UNL     1     149.317 169.684 191.417  0.00  0.00    +0.064 C 
ATOM     14  H   UNL     1     148.913 169.374 190.446  0.00  0.00    +0.060 HD
BRANCH  13  15
ATOM     15  C   UNL     1     149.172 171.222 191.539  0.00  0.00    +0.011 C 
ATOM     16  H   UNL     1     149.050 171.645 190.534  0.00  0.00    +0.033 HD
ATOM     17  H   UNL     1     150.100 171.635 191.951  0.00  0.00    +0.033 HD
BRANCH  15  18
ATOM     18  C   UNL     1     147.985 171.657 192.422  0.00  0.00    +0.108 C 
ATOM     19  H   UNL     1     147.408 170.787 192.755  0.00  0.00    +0.074 HD
BRANCH  18  20
ATOM     20  C   UNL     1     148.329 172.498 193.678  0.00  0.00    -0.009 C 
ATOM     21  H   UNL     1     148.158 171.840 194.545  0.00  0.00    +0.033 HD
BRANCH  20  22
ATOM     22  C   UNL     1     149.796 172.937 193.733  0.00  0.00    -0.059 C 
ATOM     23  H   UNL     1     149.910 173.923 194.196  0.00  0.00    +0.023 HD
ATOM     24  H   UNL     1     150.233 172.963 192.727  0.00  0.00    +0.023 HD
ATOM     25  H   UNL     1     150.383 172.224 194.323  0.00  0.00    +0.023 HD
ENDBRANCH  20  22
BRANCH  20  26
ATOM     26  C   UNL     1     147.407 173.712 193.876  0.00  0.00    -0.059 C 
ATOM     27  H   UNL     1     147.870 174.429 194.564  0.00  0.00    +0.023 HD
ATOM     28  H   UNL     1     146.441 173.420 194.308  0.00  0.00    +0.023 HD
ATOM     29  H   UNL     1     147.214 174.239 192.933  0.00  0.00    +0.023 HD
ENDBRANCH  20  26
ENDBRANCH  18  20
BRANCH  18  30
ATOM     30  O   UNL     1     147.133 172.509 191.611  0.00  0.00    -0.461 OA
BRANCH  30  31
ATOM     31  C   UNL     1     145.897 172.033 191.291  0.00  0.00    +0.307 C 
ATOM     32  O   UNL     1     145.583 170.853 191.233  0.00  0.00    -0.251 OA
BRANCH  31  33
ATOM     33  C   UNL     1     144.980 173.190 190.966  0.00  0.00    +0.046 C 
ATOM     34  H   UNL     1     145.300 174.087 191.516  0.00  0.00    +0.038 HD
ATOM     35  H   UNL     1     145.086 173.396 189.895  0.00  0.00    +0.038 HD
BRANCH  33  36
ATOM     36  C   UNL     1     143.520 172.882 191.299  0.00  0.00    -0.031 C 
ATOM     37  H   UNL     1     143.440 171.910 191.807  0.00  0.00    +0.028 HD
ATOM     38  H   UNL     1     142.962 172.799 190.352  0.00  0.00    +0.028 HD
BRANCH  36  39
ATOM     39  C   UNL     1     142.892 173.976 192.159  0.00  0.00    -0.006 C 
ATOM     40  H   UNL     1     142.309 173.529 192.973  0.00  0.00    +0.042 HD
ATOM     41  H   UNL     1     142.210 174.598 191.570  0.00  0.00    +0.042 HD
BRANCH  39  42
ATOM     42  N   UNL     1     143.933 174.817 192.737  0.00  0.00    -0.330 NA
ATOM     43  H   UNL     1     144.833 174.363 192.625  0.00  0.00    +0.118 HD
ATOM     44  H   UNL     1     143.777 174.929 193.741  0.00  0.00    +0.118 HD
ENDBRANCH  39  42
ENDBRANCH  36  39
ENDBRANCH  33  36
ENDBRANCH  31  33
ENDBRANCH  30  31
ENDBRANCH  18  30
ENDBRANCH  15  18
ENDBRANCH  13  15
BRANCH  13  45
ATOM     45  O   UNL     1     148.578 169.106 192.497  0.00  0.00    -0.379 OA
BRANCH  45  46
ATOM     46  C   UNL     1     147.742 168.022 192.119  0.00  0.00    +0.037 C 
ATOM     47  H   UNL     1     146.712 168.285 192.374  0.00  0.00    +0.052 HD
ATOM     48  H   UNL     1     148.010 167.115 192.669  0.00  0.00    +0.052 HD
ATOM     49  H   UNL     1     147.791 167.846 191.036  0.00  0.00    +0.052 HD
ENDBRANCH  45  46
ENDBRANCH  13  45
ENDBRANCH   7  13
ENDBRANCH   4   7
ENDBRANCH   1   4
BRANCH   1  50
ATOM     50  C   UNL     1     151.948 165.922 191.688  0.00  0.00    +0.108 C 
ATOM     51  H   UNL     1     152.539 165.167 192.229  0.00  0.00    +0.074 HD
BRANCH  50  52
ATOM     52  C   UNL     1     152.200 165.735 190.157  0.00  0.00    +0.020 C 
ATOM     53  H   UNL     1     151.210 165.784 189.688  0.00  0.00    +0.036 HD
BRANCH  52  54
ATOM     54  C   UNL     1     152.764 164.329 189.898  0.00  0.00    -0.057 C 
ATOM     55  H   UNL     1     153.620 164.117 190.551  0.00  0.00    +0.023 HD
ATOM     56  H   UNL     1     153.117 164.228 188.867  0.00  0.00    +0.023 HD
ATOM     57  H   UNL     1     152.011 163.557 190.078  0.00  0.00    +0.023 HD
ENDBRANCH  52  54
BRANCH  52  58
ATOM     58  C   UNL     1     153.061 166.857 189.494  0.00  0.00    +0.070 C 
ATOM     59  H   UNL     1     153.525 167.445 190.297  0.00  0.00    +0.061 HD
BRANCH  58  60
ATOM     60  C   UNL     1     154.223 166.311 188.595  0.00  0.00    +0.002 C 
ATOM     61  H   UNL     1     153.988 165.260 188.384  0.00  0.00    +0.037 HD
BRANCH  60  62
ATOM     62  C   UNL     1     155.570 166.289 189.329  0.00  0.00    -0.057 C 
ATOM     63  H   UNL     1     155.924 165.267 189.501  0.00  0.00    +0.024 HD
ATOM     64  H   UNL     1     156.333 166.826 188.755  0.00  0.00    +0.024 HD
ATOM     65  H   UNL     1     155.484 166.770 190.310  0.00  0.00    +0.024 HD
ENDBRANCH  60  62
BRANCH  60  66
ATOM     66  C   UNL     1     154.404 166.982 187.242  0.00  0.00    -0.065 C 
ATOM     67  C   UNL     1     155.248 166.566 186.284  0.00  0.00    -0.005 C 
ATOM     68  H   UNL     1     153.759 167.846 187.090  0.00  0.00    +0.059 HD
ATOM     69  H   UNL     1     155.868 165.687 186.478  0.00  0.00    +0.078 HD
BRANCH  67  70
ATOM     70  N   UNL     1     155.415 167.105 185.021  0.00  0.00    -0.284 N 
ATOM     71  C   UNL     1     155.890 168.382 184.745  0.00  0.00    +0.206 C 
ATOM     72  O   UNL     1     155.986 168.890 183.630  0.00  0.00    -0.279 OA
ATOM     73  H   UNL     1     156.189 168.956 185.638  0.00  0.00    +0.126 HD
BRANCH  70  74
ATOM     74  C   UNL     1     155.024 166.263 183.893  0.00  0.00    +0.007 C 
ATOM     75  H   UNL     1     155.645 165.358 183.896  0.00  0.00    +0.043 HD
ATOM     76  H   UNL     1     155.192 166.818 182.960  0.00  0.00    +0.043 HD
ATOM     77  H   UNL     1     153.970 165.976 183.935  0.00  0.00    +0.043 HD
ENDBRANCH  70  74
ENDBRANCH  67  70
ENDBRANCH  60  66
ENDBRANCH  58  60
BRANCH  58  78
ATOM     78  O   UNL     1     152.210 167.700 188.701  0.00  0.00    -0.379 OA
BRANCH  78  79
ATOM     79  C   UNL     1     150.949 167.116 188.387  0.00  0.00    +0.037 C 
ATOM     80  H   UNL     1     151.018 166.024 188.401  0.00  0.00    +0.052 HD
ATOM     81  H   UNL     1     150.178 167.452 189.085  0.00  0.00    +0.052 HD
ATOM     82  H   UNL     1     150.667 167.438 187.382  0.00  0.00    +0.052 HD
ENDBRANCH  78  79
ENDBRANCH  58  78
ENDBRANCH  52  58
ENDBRANCH  50  52
BRANCH  50  83
ATOM     83  O   UNL     1     150.561 165.740 192.024  0.00  0.00    -0.459 OA
BRANCH  83  85
ATOM     84  O   UNL     1     150.125 163.496 191.777  0.00  0.00    -0.248 OA
ATOM     85  C   UNL     1     150.182 164.507 192.467  0.00  0.00    +0.337 C 
BRANCH  85  86
ATOM     86  C   UNL     1     149.893 164.531 193.974  0.00  0.00    +0.155 C 
ATOM     87  O   UNL     1     148.858 165.441 194.397  0.00  0.00    -0.365 OA
ATOM     88  C   UNL     1     149.436 166.419 195.274  0.00  0.00    +0.049 C 
ATOM     89  C   UNL     1     150.640 165.734 195.890  0.00  0.00    -0.027 C 
ATOM     90  C   UNL     1     151.165 164.933 194.724  0.00  0.00    -0.014 C 
ATOM     91  H   UNL     1     149.558 163.525 194.258  0.00  0.00    +0.071 HD
ATOM     92  H   UNL     1     148.696 166.722 196.018  0.00  0.00    +0.056 HD
ATOM     93  H   UNL     1     149.727 167.295 194.683  0.00  0.00    +0.056 HD
ATOM     94  H   UNL     1     150.323 165.055 196.687  0.00  0.00    +0.029 HD
ATOM     95  H   UNL     1     151.366 166.445 196.298  0.00  0.00    +0.029 HD
ATOM     96  H   UNL     1     151.817 165.565 194.101  0.00  0.00    +0.030 HD
ATOM     97  H   UNL     1     151.755 164.062 195.035  0.00  0.00    +0.030 HD
ENDBRANCH  85  86
ENDBRANCH  83  85
ENDBRANCH  50  83
ENDBRANCH   1  50
TORSDOF 31
ENDMDL
MODEL 8
REMARK VINA RESULT:      -5.1      2.171      2.758
REMARK  Name = 2u_conf3
REMARK  31 active torsions:
REMARK  status: ('A' for Active; 'I' for Inactive)
REMARK    1  A    between atoms: C_2  and  C_3
REMARK    2  A    between atoms: C_2  and  O_8
REMARK    3  A    between atoms: O_8  and  C_9
REMARK    4  A    between atoms: C_9  and  C_10
REMARK    5  A    between atoms: C_9  and  C_29
REMARK    6  A    between atoms: C_10  and  C_11
REMARK    7  A    between atoms: C_11  and  C_12
REMARK    8  A    between atoms: C_12  and  C_13
REMARK    9  A    between atoms: C_12  and  C_14
REMARK   10  A    between atoms: C_14  and  O_15
REMARK   11  A    between atoms: C_14  and  C_17
REMARK   12  A    between atoms: O_15  and  C_16
REMARK   13  A    between atoms: C_17  and  C_18
REMARK   14  A    between atoms: C_18  and  O_19
REMARK   15  A    between atoms: C_18  and  C_26
REMARK   16  A    between atoms: O_19  and  C_20
REMARK   17  A    between atoms: C_20  and  C_21
REMARK   18  A    between atoms: C_21  and  C_22
REMARK   19  A    between atoms: C_22  and  C_23
REMARK   20  A    between atoms: C_23  and  N_24
REMARK   21  A    between atoms: C_26  and  C_27
REMARK   22  A    between atoms: C_26  and  C_28
REMARK   23  A    between atoms: C_29  and  C_30
REMARK   24  A    between atoms: C_29  and  C_31
REMARK   25  A    between atoms: C_31  and  O_32
REMARK   26  A    between atoms: C_31  and  C_34
REMARK   27  A    between atoms: O_32  and  C_33
REMARK   28  A    between atoms: C_34  and  C_35
REMARK   29  A    between atoms: C_34  and  C_36
REMARK   30  A    between atoms: C_37  and  N_38
REMARK   31  A    between atoms: N_38  and  C_39
REMARK                            x       y       z     vdW  Elec       q    Type
REMARK                         _______ _______ _______ _____ _____    ______ ____
ROOT
ATOM      1  C   UNL     1     148.636 169.513 192.308  0.00  0.00    -0.015 C 
ATOM      2  H   UNL     1     148.235 169.617 193.318  0.00  0.00    +0.030 HD
ATOM      3  H   UNL     1     149.372 170.302 192.145  0.00  0.00    +0.030 HD
ENDROOT
BRANCH   1   4
ATOM      4  C   UNL     1     149.345 168.151 192.191  0.00  0.00    -0.045 C 
ATOM      5  H   UNL     1     148.847 167.581 191.396  0.00  0.00    +0.027 HD
ATOM      6  H   UNL     1     149.201 167.561 193.100  0.00  0.00    +0.027 HD
BRANCH   4   7
ATOM      7  C   UNL     1     150.851 168.231 191.869  0.00  0.00    -0.017 C 
ATOM      8  H   UNL     1     151.396 167.916 192.768  0.00  0.00    +0.032 HD
BRANCH   7   9
ATOM      9  C   UNL     1     151.193 169.710 191.611  0.00  0.00    -0.060 C 
ATOM     10  H   UNL     1     150.682 170.366 192.323  0.00  0.00    +0.023 HD
ATOM     11  H   UNL     1     152.270 169.881 191.706  0.00  0.00    +0.023 HD
ATOM     12  H   UNL     1     150.913 170.017 190.599  0.00  0.00    +0.023 HD
ENDBRANCH   7   9
BRANCH   7  13
ATOM     13  C   UNL     1     151.304 167.323 190.691  0.00  0.00    +0.064 C 
ATOM     14  H   UNL     1     150.419 166.917 190.187  0.00  0.00    +0.060 HD
BRANCH  13  15
ATOM     15  C   UNL     1     152.158 166.138 191.210  0.00  0.00    +0.011 C 
ATOM     16  H   UNL     1     152.477 166.357 192.236  0.00  0.00    +0.033 HD
ATOM     17  H   UNL     1     153.065 166.059 190.601  0.00  0.00    +0.033 HD
BRANCH  15  18
ATOM     18  C   UNL     1     151.411 164.788 191.186  0.00  0.00    +0.108 C 
ATOM     19  H   UNL     1     150.374 164.924 190.856  0.00  0.00    +0.074 HD
BRANCH  18  20
ATOM     20  C   UNL     1     152.035 163.667 190.317  0.00  0.00    -0.009 C 
ATOM     21  H   UNL     1     153.115 163.881 190.268  0.00  0.00    +0.033 HD
BRANCH  20  22
ATOM     22  C   UNL     1     151.883 162.270 190.926  0.00  0.00    -0.059 C 
ATOM     23  H   UNL     1     152.850 161.844 191.215  0.00  0.00    +0.023 HD
ATOM     24  H   UNL     1     151.391 161.589 190.222  0.00  0.00    +0.023 HD
ATOM     25  H   UNL     1     151.258 162.314 191.825  0.00  0.00    +0.023 HD
ENDBRANCH  20  22
BRANCH  20  26
ATOM     26  C   UNL     1     151.535 163.667 188.864  0.00  0.00    -0.059 C 
ATOM     27  H   UNL     1     151.111 162.688 188.611  0.00  0.00    +0.023 HD
ATOM     28  H   UNL     1     152.350 163.864 188.155  0.00  0.00    +0.023 HD
ATOM     29  H   UNL     1     150.751 164.416 188.699  0.00  0.00    +0.023 HD
ENDBRANCH  20  26
ENDBRANCH  18  20
BRANCH  18  30
ATOM     30  O   UNL     1     151.414 164.270 192.543  0.00  0.00    -0.461 OA
BRANCH  30  31
ATOM     31  C   UNL     1     150.448 164.727 193.388  0.00  0.00    +0.307 C 
ATOM     32  O   UNL     1     149.248 164.521 193.275  0.00  0.00    -0.251 OA
BRANCH  31  33
ATOM     33  C   UNL     1     151.082 165.577 194.467  0.00  0.00    +0.046 C 
ATOM     34  H   UNL     1     152.178 165.530 194.384  0.00  0.00    +0.038 HD
ATOM     35  H   UNL     1     150.775 166.613 194.284  0.00  0.00    +0.038 HD
BRANCH  33  36
ATOM     36  C   UNL     1     150.657 165.143 195.870  0.00  0.00    -0.031 C 
ATOM     37  H   UNL     1     151.534 165.069 196.530  0.00  0.00    +0.028 HD
ATOM     38  H   UNL     1     150.219 164.133 195.799  0.00  0.00    +0.028 HD
BRANCH  36  39
ATOM     39  C   UNL     1     149.628 166.098 196.469  0.00  0.00    -0.006 C 
ATOM     40  H   UNL     1     149.886 167.134 196.224  0.00  0.00    +0.042 HD
ATOM     41  H   UNL     1     149.602 166.014 197.561  0.00  0.00    +0.042 HD
BRANCH  39  42
ATOM     42  N   UNL     1     148.303 165.808 195.934  0.00  0.00    -0.330 NA
ATOM     43  H   UNL     1     147.762 166.665 195.893  0.00  0.00    +0.118 HD
ATOM     44  H   UNL     1     147.805 165.168 196.556  0.00  0.00    +0.118 HD
ENDBRANCH  39  42
ENDBRANCH  36  39
ENDBRANCH  33  36
ENDBRANCH  31  33
ENDBRANCH  30  31
ENDBRANCH  18  30
ENDBRANCH  15  18
ENDBRANCH  13  15
BRANCH  13  45
ATOM     45  O   UNL     1     152.124 168.066 189.785  0.00  0.00    -0.379 OA
BRANCH  45  46
ATOM     46  C   UNL     1     152.482 167.360 188.607  0.00  0.00    +0.037 C 
ATOM     47  H   UNL     1     153.325 166.707 188.847  0.00  0.00    +0.052 HD
ATOM     48  H   UNL     1     152.798 168.051 187.821  0.00  0.00    +0.052 HD
ATOM     49  H   UNL     1     151.653 166.730 188.258  0.00  0.00    +0.052 HD
ENDBRANCH  45  46
ENDBRANCH  13  45
ENDBRANCH   7  13
ENDBRANCH   4   7
ENDBRANCH   1   4
BRANCH   1  50
ATOM     50  C   UNL     1     147.483 169.626 191.288  0.00  0.00    +0.108 C 
ATOM     51  H   UNL     1     146.557 169.793 191.859  0.00  0.00    +0.074 HD
BRANCH  50  52
ATOM     52  C   UNL     1     147.280 168.370 190.382  0.00  0.00    +0.020 C 
ATOM     53  H   UNL     1     148.033 167.644 190.712  0.00  0.00    +0.036 HD
BRANCH  52  54
ATOM     54  C   UNL     1     147.599 168.733 188.923  0.00  0.00    -0.057 C 
ATOM     55  H   UNL     1     148.471 168.178 188.555  0.00  0.00    +0.023 HD
ATOM     56  H   UNL     1     147.833 169.798 188.823  0.00  0.00    +0.023 HD
ATOM     57  H   UNL     1     146.759 168.506 188.261  0.00  0.00    +0.023 HD
ENDBRANCH  52  54
BRANCH  52  58
ATOM     58  C   UNL     1     145.892 167.670 190.535  0.00  0.00    +0.070 C 
ATOM     59  H   UNL     1     145.470 167.535 189.530  0.00  0.00    +0.061 HD
BRANCH  58  60
ATOM     60  C   UNL     1     145.971 166.250 191.194  0.00  0.00    +0.002 C 
ATOM     61  H   UNL     1     144.983 165.790 191.062  0.00  0.00    +0.037 HD
BRANCH  60  62
ATOM     62  C   UNL     1     146.191 166.319 192.710  0.00  0.00    -0.057 C 
ATOM     63  H   UNL     1     147.031 165.694 193.030  0.00  0.00    +0.024 HD
ATOM     64  H   UNL     1     146.387 167.349 193.026  0.00  0.00    +0.024 HD
ATOM     65  H   UNL     1     145.303 165.964 193.247  0.00  0.00    +0.024 HD
ENDBRANCH  60  62
BRANCH  60  66
ATOM     66  C   UNL     1     146.972 165.277 190.589  0.00  0.00    -0.065 C 
ATOM     67  C   UNL     1     146.651 164.193 189.867  0.00  0.00    -0.005 C 
ATOM     68  H   UNL     1     148.011 165.546 190.773  0.00  0.00    +0.059 HD
ATOM     69  H   UNL     1     145.594 163.969 189.700  0.00  0.00    +0.078 HD
BRANCH  67  70
ATOM     70  N   UNL     1     147.517 163.307 189.253  0.00  0.00    -0.284 N 
ATOM     71  C   UNL     1     148.036 162.153 189.830  0.00  0.00    +0.206 C 
ATOM     72  O   UNL     1     148.851 161.392 189.315  0.00  0.00    -0.279 OA
ATOM     73  H   UNL     1     147.657 161.947 190.845  0.00  0.00    +0.126 HD
BRANCH  70  74
ATOM     74  C   UNL     1     147.943 163.641 187.896  0.00  0.00    +0.007 C 
ATOM     75  H   UNL     1     147.837 162.749 187.263  0.00  0.00    +0.043 HD
ATOM     76  H   UNL     1     148.997 163.947 187.919  0.00  0.00    +0.043 HD
ATOM     77  H   UNL     1     147.358 164.458 187.466  0.00  0.00    +0.043 HD
ENDBRANCH  70  74
ENDBRANCH  67  70
ENDBRANCH  60  66
ENDBRANCH  58  60
BRANCH  58  78
ATOM     78  O   UNL     1     145.025 168.505 191.320  0.00  0.00    -0.379 OA
BRANCH  78  79
ATOM     79  C   UNL     1     143.802 168.837 190.671  0.00  0.00    +0.037 C 
ATOM     80  H   UNL     1     143.919 169.742 190.069  0.00  0.00    +0.052 HD
ATOM     81  H   UNL     1     143.455 168.012 190.043  0.00  0.00    +0.052 HD
ATOM     82  H   UNL     1     143.048 169.022 191.441  0.00  0.00    +0.052 HD
ENDBRANCH  78  79
ENDBRANCH  58  78
ENDBRANCH  52  58
ENDBRANCH  50  52
BRANCH  50  83
ATOM     83  O   UNL     1     147.757 170.805 190.509  0.00  0.00    -0.459 OA
BRANCH  83  85
ATOM     84  O   UNL     1     145.714 171.810 190.190  0.00  0.00    -0.248 OA
ATOM     85  C   UNL     1     146.867 171.834 190.602  0.00  0.00    +0.337 C 
BRANCH  85  86
ATOM     86  C   UNL     1     147.481 173.022 191.354  0.00  0.00    +0.155 C 
ATOM     87  O   UNL     1     148.912 172.977 191.531  0.00  0.00    -0.365 OA
ATOM     88  C   UNL     1     149.200 172.930 192.936  0.00  0.00    +0.049 C 
ATOM     89  C   UNL     1     148.014 173.594 193.605  0.00  0.00    -0.027 C 
ATOM     90  C   UNL     1     146.869 173.103 192.754  0.00  0.00    -0.014 C 
ATOM     91  H   UNL     1     147.269 173.925 190.768  0.00  0.00    +0.071 HD
ATOM     92  H   UNL     1     150.141 173.449 193.132  0.00  0.00    +0.056 HD
ATOM     93  H   UNL     1     149.302 171.882 193.241  0.00  0.00    +0.056 HD
ATOM     94  H   UNL     1     148.091 174.683 193.520  0.00  0.00    +0.029 HD
ATOM     95  H   UNL     1     147.923 173.327 194.663  0.00  0.00    +0.029 HD
ATOM     96  H   UNL     1     146.540 172.112 193.107  0.00  0.00    +0.030 HD
ATOM     97  H   UNL     1     145.996 173.767 192.786  0.00  0.00    +0.030 HD
ENDBRANCH  85  86
ENDBRANCH  83  85
ENDBRANCH  50  83
ENDBRANCH   1  50
TORSDOF 31
ENDMDL
MODEL 9
REMARK VINA RESULT:      -5.1      1.814      2.746
REMARK  Name = 2u_conf3
REMARK  31 active torsions:
REMARK  status: ('A' for Active; 'I' for Inactive)
REMARK    1  A    between atoms: C_2  and  C_3
REMARK    2  A    between atoms: C_2  and  O_8
REMARK    3  A    between atoms: O_8  and  C_9
REMARK    4  A    between atoms: C_9  and  C_10
REMARK    5  A    between atoms: C_9  and  C_29
REMARK    6  A    between atoms: C_10  and  C_11
REMARK    7  A    between atoms: C_11  and  C_12
REMARK    8  A    between atoms: C_12  and  C_13
REMARK    9  A    between atoms: C_12  and  C_14
REMARK   10  A    between atoms: C_14  and  O_15
REMARK   11  A    between atoms: C_14  and  C_17
REMARK   12  A    between atoms: O_15  and  C_16
REMARK   13  A    between atoms: C_17  and  C_18
REMARK   14  A    between atoms: C_18  and  O_19
REMARK   15  A    between atoms: C_18  and  C_26
REMARK   16  A    between atoms: O_19  and  C_20
REMARK   17  A    between atoms: C_20  and  C_21
REMARK   18  A    between atoms: C_21  and  C_22
REMARK   19  A    between atoms: C_22  and  C_23
REMARK   20  A    between atoms: C_23  and  N_24
REMARK   21  A    between atoms: C_26  and  C_27
REMARK   22  A    between atoms: C_26  and  C_28
REMARK   23  A    between atoms: C_29  and  C_30
REMARK   24  A    between atoms: C_29  and  C_31
REMARK   25  A    between atoms: C_31  and  O_32
REMARK   26  A    between atoms: C_31  and  C_34
REMARK   27  A    between atoms: O_32  and  C_33
REMARK   28  A    between atoms: C_34  and  C_35
REMARK   29  A    between atoms: C_34  and  C_36
REMARK   30  A    between atoms: C_37  and  N_38
REMARK   31  A    between atoms: N_38  and  C_39
REMARK                            x       y       z     vdW  Elec       q    Type
REMARK                         _______ _______ _______ _____ _____    ______ ____
ROOT
ATOM      1  C   UNL     1     148.053 169.463 191.980  0.00  0.00    -0.015 C 
ATOM      2  H   UNL     1     147.757 168.438 192.208  0.00  0.00    +0.030 HD
ATOM      3  H   UNL     1     148.126 170.019 192.917  0.00  0.00    +0.030 HD
ENDROOT
BRANCH   1   4
ATOM      4  C   UNL     1     149.440 169.446 191.313  0.00  0.00    -0.045 C 
ATOM      5  H   UNL     1     149.634 170.451 190.916  0.00  0.00    +0.027 HD
ATOM      6  H   UNL     1     149.440 168.788 190.439  0.00  0.00    +0.027 HD
BRANCH   4   7
ATOM      7  C   UNL     1     150.603 169.054 192.246  0.00  0.00    -0.017 C 
ATOM      8  H   UNL     1     150.231 169.118 193.277  0.00  0.00    +0.032 HD
BRANCH   7   9
ATOM      9  C   UNL     1     151.708 170.113 192.083  0.00  0.00    -0.060 C 
ATOM     10  H   UNL     1     152.273 170.244 193.012  0.00  0.00    +0.023 HD
ATOM     11  H   UNL     1     152.411 169.821 191.297  0.00  0.00    +0.023 HD
ATOM     12  H   UNL     1     151.295 171.084 191.793  0.00  0.00    +0.023 HD
ENDBRANCH   7   9
BRANCH   7  13
ATOM     13  C   UNL     1     151.149 167.615 192.022  0.00  0.00    +0.064 C 
ATOM     14  H   UNL     1     150.320 166.956 191.737  0.00  0.00    +0.060 HD
BRANCH  13  15
ATOM     15  C   UNL     1     151.789 167.063 193.321  0.00  0.00    +0.011 C 
ATOM     16  H   UNL     1     151.878 167.882 194.046  0.00  0.00    +0.033 HD
ATOM     17  H   UNL     1     152.806 166.719 193.098  0.00  0.00    +0.033 HD
BRANCH  15  18
ATOM     18  C   UNL     1     150.988 165.907 193.955  0.00  0.00    +0.108 C 
ATOM     19  H   UNL     1     151.255 164.949 193.492  0.00  0.00    +0.074 HD
BRANCH  18  20
ATOM     20  C   UNL     1     151.118 165.736 195.491  0.00  0.00    -0.009 C 
ATOM     21  H   UNL     1     151.997 166.330 195.793  0.00  0.00    +0.033 HD
BRANCH  20  22
ATOM     22  C   UNL     1     149.918 166.287 196.267  0.00  0.00    -0.059 C 
ATOM     23  H   UNL     1     150.230 166.891 197.125  0.00  0.00    +0.023 HD
ATOM     24  H   UNL     1     149.276 165.472 196.621  0.00  0.00    +0.023 HD
ATOM     25  H   UNL     1     149.306 166.923 195.617  0.00  0.00    +0.023 HD
ENDBRANCH  20  22
BRANCH  20  26
ATOM     26  C   UNL     1     151.411 164.291 195.924  0.00  0.00    -0.059 C 
ATOM     27  H   UNL     1     151.773 163.707 195.070  0.00  0.00    +0.023 HD
ATOM     28  H   UNL     1     150.510 163.792 196.304  0.00  0.00    +0.023 HD
ATOM     29  H   UNL     1     152.182 164.244 196.704  0.00  0.00    +0.023 HD
ENDBRANCH  20  26
ENDBRANCH  18  20
BRANCH  18  30
ATOM     30  O   UNL     1     149.582 166.175 193.716  0.00  0.00    -0.461 OA
BRANCH  30  31
ATOM     31  C   UNL     1     148.854 165.196 193.108  0.00  0.00    +0.307 C 
ATOM     32  O   UNL     1     149.190 164.026 192.996  0.00  0.00    -0.251 OA
BRANCH  31  33
ATOM     33  C   UNL     1     147.581 165.789 192.546  0.00  0.00    +0.046 C 
ATOM     34  H   UNL     1     147.822 166.488 191.732  0.00  0.00    +0.038 HD
ATOM     35  H   UNL     1     147.002 164.962 192.118  0.00  0.00    +0.038 HD
BRANCH  33  36
ATOM     36  C   UNL     1     146.758 166.510 193.613  0.00  0.00    -0.031 C 
ATOM     37  H   UNL     1     146.763 167.595 193.432  0.00  0.00    +0.028 HD
ATOM     38  H   UNL     1     147.241 166.343 194.590  0.00  0.00    +0.028 HD
BRANCH  36  39
ATOM     39  C   UNL     1     145.322 165.994 193.666  0.00  0.00    -0.006 C 
ATOM     40  H   UNL     1     145.004 165.868 194.707  0.00  0.00    +0.042 HD
ATOM     41  H   UNL     1     145.236 165.019 193.175  0.00  0.00    +0.042 HD
BRANCH  39  42
ATOM     42  N   UNL     1     144.426 166.941 193.014  0.00  0.00    -0.330 NA
ATOM     43  H   UNL     1     143.749 167.282 193.688  0.00  0.00    +0.118 HD
ATOM     44  H   UNL     1     143.900 166.473 192.272  0.00  0.00    +0.118 HD
ENDBRANCH  39  42
ENDBRANCH  36  39
ENDBRANCH  33  36
ENDBRANCH  31  33
ENDBRANCH  30  31
ENDBRANCH  18  30
ENDBRANCH  15  18
ENDBRANCH  13  15
BRANCH  13  45
ATOM     45  O   UNL     1     152.171 167.628 191.022  0.00  0.00    -0.379 OA
BRANCH  45  46
ATOM     46  C   UNL     1     151.838 166.925 189.835  0.00  0.00    +0.037 C 
ATOM     47  H   UNL     1     151.147 166.121 190.102  0.00  0.00    +0.052 HD
ATOM     48  H   UNL     1     152.728 166.477 189.386  0.00  0.00    +0.052 HD
ATOM     49  H   UNL     1     151.331 167.584 189.117  0.00  0.00    +0.052 HD
ENDBRANCH  45  46
ENDBRANCH  13  45
ENDBRANCH   7  13
ENDBRANCH   4   7
ENDBRANCH   1   4
BRANCH   1  50
ATOM     50  C   UNL     1     147.000 170.102 191.050  0.00  0.00    +0.108 C 
ATOM     51  H   UNL     1     146.175 170.458 191.687  0.00  0.00    +0.074 HD
BRANCH  50  52
ATOM     52  C   UNL     1     146.405 169.142 189.971  0.00  0.00    +0.020 C 
ATOM     53  H   UNL     1     146.594 168.128 190.344  0.00  0.00    +0.036 HD
BRANCH  52  54
ATOM     54  C   UNL     1     147.186 169.303 188.657  0.00  0.00    -0.057 C 
ATOM     55  H   UNL     1     148.191 168.870 188.735  0.00  0.00    +0.023 HD
ATOM     56  H   UNL     1     147.312 170.359 188.399  0.00  0.00    +0.023 HD
ATOM     57  H   UNL     1     146.676 168.807 187.826  0.00  0.00    +0.023 HD
ENDBRANCH  52  54
BRANCH  52  58
ATOM     58  C   UNL     1     144.861 169.261 189.769  0.00  0.00    +0.070 C 
ATOM     59  H   UNL     1     144.643 170.281 189.426  0.00  0.00    +0.061 HD
BRANCH  58  60
ATOM     60  C   UNL     1     144.290 168.282 188.686  0.00  0.00    +0.002 C 
ATOM     61  H   UNL     1     144.970 168.336 187.826  0.00  0.00    +0.037 HD
BRANCH  60  62
ATOM     62  C   UNL     1     142.922 168.729 188.155  0.00  0.00    -0.057 C 
ATOM     63  H   UNL     1     142.716 168.317 187.162  0.00  0.00    +0.024 HD
ATOM     64  H   UNL     1     142.122 168.414 188.833  0.00  0.00    +0.024 HD
ATOM     65  H   UNL     1     142.880 169.821 188.066  0.00  0.00    +0.024 HD
ENDBRANCH  60  62
BRANCH  60  66
ATOM     66  C   UNL     1     144.217 166.812 189.073  0.00  0.00    -0.065 C 
ATOM     67  C   UNL     1     144.955 165.835 188.524  0.00  0.00    -0.005 C 
ATOM     68  H   UNL     1     143.511 166.603 189.875  0.00  0.00    +0.059 HD
ATOM     69  H   UNL     1     145.659 166.094 187.729  0.00  0.00    +0.078 HD
BRANCH  67  70
ATOM     70  N   UNL     1     144.968 164.496 188.871  0.00  0.00    -0.284 N 
ATOM     71  C   UNL     1     146.091 163.772 189.255  0.00  0.00    +0.206 C 
ATOM     72  O   UNL     1     146.123 162.570 189.507  0.00  0.00    -0.279 OA
ATOM     73  H   UNL     1     147.015 164.371 189.319  0.00  0.00    +0.126 HD
BRANCH  70  74
ATOM     74  C   UNL     1     143.694 163.786 188.789  0.00  0.00    +0.007 C 
ATOM     75  H   UNL     1     143.641 163.268 187.821  0.00  0.00    +0.043 HD
ATOM     76  H   UNL     1     142.875 164.515 188.857  0.00  0.00    +0.043 HD
ATOM     77  H   UNL     1     143.571 163.057 189.594  0.00  0.00    +0.043 HD
ENDBRANCH  70  74
ENDBRANCH  67  70
ENDBRANCH  60  66
ENDBRANCH  58  60
BRANCH  58  78
ATOM     78  O   UNL     1     144.199 169.015 191.020  0.00  0.00    -0.379 OA
BRANCH  78  79
ATOM     79  C   UNL     1     143.195 169.973 191.340  0.00  0.00    +0.037 C 
ATOM     80  H   UNL     1     142.202 169.515 191.303  0.00  0.00    +0.052 HD
ATOM     81  H   UNL     1     143.370 170.410 192.327  0.00  0.00    +0.052 HD
ATOM     82  H   UNL     1     143.240 170.773 190.597  0.00  0.00    +0.052 HD
ENDBRANCH  78  79
ENDBRANCH  58  78
ENDBRANCH  52  58
ENDBRANCH  50  52
BRANCH  50  83
ATOM     83  O   UNL     1     147.639 171.244 190.452  0.00  0.00    -0.459 OA
BRANCH  83  85
ATOM     84  O   UNL     1     145.967 172.743 189.955  0.00  0.00    -0.248 OA
ATOM     85  C   UNL     1     146.995 172.443 190.550  0.00  0.00    +0.337 C 
BRANCH  85  86
ATOM     86  C   UNL     1     147.695 173.358 191.563  0.00  0.00    +0.155 C 
ATOM     87  O   UNL     1     149.079 173.052 191.830  0.00  0.00    -0.365 OA
ATOM     88  C   UNL     1     149.214 172.702 193.215  0.00  0.00    +0.049 C 
ATOM     89  C   UNL     1     148.075 173.416 193.915  0.00  0.00    -0.027 C 
ATOM     90  C   UNL     1     146.963 173.279 192.904  0.00  0.00    -0.014 C 
ATOM     91  H   UNL     1     147.676 174.375 191.152  0.00  0.00    +0.071 HD
ATOM     92  H   UNL     1     150.196 173.019 193.575  0.00  0.00    +0.056 HD
ATOM     93  H   UNL     1     149.132 171.614 193.314  0.00  0.00    +0.056 HD
ATOM     94  H   UNL     1     148.317 174.474 194.052  0.00  0.00    +0.029 HD
ATOM     95  H   UNL     1     147.840 172.977 194.890  0.00  0.00    +0.029 HD
ATOM     96  H   UNL     1     146.460 172.307 193.032  0.00  0.00    +0.030 HD
ATOM     97  H   UNL     1     146.197 174.058 193.004  0.00  0.00    +0.030 HD
ENDBRANCH  85  86
ENDBRANCH  83  85
ENDBRANCH  50  83
ENDBRANCH   1  50
TORSDOF 31
ENDMDL
MODEL 10
REMARK VINA RESULT:      -5.1      3.493      7.318
REMARK  Name = 2u_conf3
REMARK  31 active torsions:
REMARK  status: ('A' for Active; 'I' for Inactive)
REMARK    1  A    between atoms: C_2  and  C_3
REMARK    2  A    between atoms: C_2  and  O_8
REMARK    3  A    between atoms: O_8  and  C_9
REMARK    4  A    between atoms: C_9  and  C_10
REMARK    5  A    between atoms: C_9  and  C_29
REMARK    6  A    between atoms: C_10  and  C_11
REMARK    7  A    between atoms: C_11  and  C_12
REMARK    8  A    between atoms: C_12  and  C_13
REMARK    9  A    between atoms: C_12  and  C_14
REMARK   10  A    between atoms: C_14  and  O_15
REMARK   11  A    between atoms: C_14  and  C_17
REMARK   12  A    between atoms: O_15  and  C_16
REMARK   13  A    between atoms: C_17  and  C_18
REMARK   14  A    between atoms: C_18  and  O_19
REMARK   15  A    between atoms: C_18  and  C_26
REMARK   16  A    between atoms: O_19  and  C_20
REMARK   17  A    between atoms: C_20  and  C_21
REMARK   18  A    between atoms: C_21  and  C_22
REMARK   19  A    between atoms: C_22  and  C_23
REMARK   20  A    between atoms: C_23  and  N_24
REMARK   21  A    between atoms: C_26  and  C_27
REMARK   22  A    between atoms: C_26  and  C_28
REMARK   23  A    between atoms: C_29  and  C_30
REMARK   24  A    between atoms: C_29  and  C_31
REMARK   25  A    between atoms: C_31  and  O_32
REMARK   26  A    between atoms: C_31  and  C_34
REMARK   27  A    between atoms: O_32  and  C_33
REMARK   28  A    between atoms: C_34  and  C_35
REMARK   29  A    between atoms: C_34  and  C_36
REMARK   30  A    between atoms: C_37  and  N_38
REMARK   31  A    between atoms: N_38  and  C_39
REMARK                            x       y       z     vdW  Elec       q    Type
REMARK                         _______ _______ _______ _____ _____    ______ ____
ROOT
ATOM      1  C   UNL     1     151.506 167.041 190.049  0.00  0.00    -0.015 C 
ATOM      2  H   UNL     1     151.437 168.089 190.346  0.00  0.00    +0.030 HD
ATOM      3  H   UNL     1     151.331 166.973 188.974  0.00  0.00    +0.030 HD
ENDROOT
BRANCH   1   4
ATOM      4  C   UNL     1     152.926 166.529 190.348  0.00  0.00    -0.045 C 
ATOM      5  H   UNL     1     152.835 165.613 190.946  0.00  0.00    +0.027 HD
ATOM      6  H   UNL     1     153.466 167.236 190.984  0.00  0.00    +0.027 HD
BRANCH   4   7
ATOM      7  C   UNL     1     153.777 166.216 189.099  0.00  0.00    -0.017 C 
ATOM      8  H   UNL     1     154.775 166.640 189.268  0.00  0.00    +0.032 HD
BRANCH   7   9
ATOM      9  C   UNL     1     153.148 166.964 187.910  0.00  0.00    -0.060 C 
ATOM     10  H   UNL     1     153.309 168.044 187.990  0.00  0.00    +0.023 HD
ATOM     11  H   UNL     1     153.585 166.626 186.965  0.00  0.00    +0.023 HD
ATOM     12  H   UNL     1     152.072 166.781 187.842  0.00  0.00    +0.023 HD
ENDBRANCH   7   9
BRANCH   7  13
ATOM     13  C   UNL     1     153.944 164.699 188.801  0.00  0.00    +0.064 C 
ATOM     14  H   UNL     1     153.571 164.487 187.792  0.00  0.00    +0.060 HD
BRANCH  13  15
ATOM     15  C   UNL     1     153.134 163.849 189.812  0.00  0.00    +0.011 C 
ATOM     16  H   UNL     1     152.804 164.498 190.633  0.00  0.00    +0.033 HD
ATOM     17  H   UNL     1     153.792 163.089 190.247  0.00  0.00    +0.033 HD
BRANCH  15  18
ATOM     18  C   UNL     1     151.905 163.158 189.184  0.00  0.00    +0.108 C 
ATOM     19  H   UNL     1     151.061 163.157 189.883  0.00  0.00    +0.074 HD
BRANCH  18  20
ATOM     20  C   UNL     1     151.398 163.738 187.839  0.00  0.00    -0.009 C 
ATOM     21  H   UNL     1     151.929 164.692 187.695  0.00  0.00    +0.033 HD
BRANCH  20  22
ATOM     22  C   UNL     1     151.731 162.854 186.633  0.00  0.00    -0.059 C 
ATOM     23  H   UNL     1     151.926 163.449 185.734  0.00  0.00    +0.023 HD
ATOM     24  H   UNL     1     150.915 162.153 186.426  0.00  0.00    +0.023 HD
ATOM     25  H   UNL     1     152.628 162.258 186.836  0.00  0.00    +0.023 HD
ENDBRANCH  20  22
BRANCH  20  26
ATOM     26  C   UNL     1     149.900 164.081 187.845  0.00  0.00    -0.059 C 
ATOM     27  H   UNL     1     149.749 165.106 188.204  0.00  0.00    +0.023 HD
ATOM     28  H   UNL     1     149.335 163.415 188.510  0.00  0.00    +0.023 HD
ATOM     29  H   UNL     1     149.459 164.016 186.842  0.00  0.00    +0.023 HD
ENDBRANCH  20  26
ENDBRANCH  18  20
BRANCH  18  30
ATOM     30  O   UNL     1     152.284 161.787 188.894  0.00  0.00    -0.461 OA
BRANCH  30  31
ATOM     31  C   UNL     1     151.749 160.811 189.682  0.00  0.00    +0.307 C 
ATOM     32  O   UNL     1     152.077 160.569 190.834  0.00  0.00    -0.251 OA
BRANCH  31  33
ATOM     33  C   UNL     1     150.718 160.035 188.894  0.00  0.00    +0.046 C 
ATOM     34  H   UNL     1     150.402 160.617 188.016  0.00  0.00    +0.038 HD
ATOM     35  H   UNL     1     151.206 159.122 188.535  0.00  0.00    +0.038 HD
BRANCH  33  36
ATOM     36  C   UNL     1     149.494 159.679 189.738  0.00  0.00    -0.031 C 
ATOM     37  H   UNL     1     149.773 158.986 190.544  0.00  0.00    +0.028 HD
ATOM     38  H   UNL     1     148.773 159.151 189.092  0.00  0.00    +0.028 HD
BRANCH  36  39
ATOM     39  C   UNL     1     148.828 160.923 190.322  0.00  0.00    -0.006 C 
ATOM     40  H   UNL     1     147.765 160.942 190.058  0.00  0.00    +0.042 HD
ATOM     41  H   UNL     1     149.282 161.836 189.925  0.00  0.00    +0.042 HD
BRANCH  39  42
ATOM     42  N   UNL     1     148.948 160.918 191.775  0.00  0.00    -0.330 NA
ATOM     43  H   UNL     1     148.259 160.285 192.168  0.00  0.00    +0.118 HD
ATOM     44  H   UNL     1     148.746 161.849 192.147  0.00  0.00    +0.118 HD
ENDBRANCH  39  42
ENDBRANCH  36  39
ENDBRANCH  33  36
ENDBRANCH  31  33
ENDBRANCH  30  31
ENDBRANCH  18  30
ENDBRANCH  15  18
ENDBRANCH  13  15
BRANCH  13  45
ATOM     45  O   UNL     1     155.317 164.321 188.940  0.00  0.00    -0.379 OA
BRANCH  45  46
ATOM     46  C   UNL     1     156.208 165.410 189.124  0.00  0.00    +0.037 C 
ATOM     47  H   UNL     1     157.204 165.089 188.809  0.00  0.00    +0.052 HD
ATOM     48  H   UNL     1     156.258 165.698 190.177  0.00  0.00    +0.052 HD
ATOM     49  H   UNL     1     155.915 166.267 188.502  0.00  0.00    +0.052 HD
ENDBRANCH  45  46
ENDBRANCH  13  45
ENDBRANCH   7  13
ENDBRANCH   4   7
ENDBRANCH   1   4
BRANCH   1  50
ATOM     50  C   UNL     1     150.450 166.223 190.824  0.00  0.00    +0.108 C 
ATOM     51  H   UNL     1     150.241 165.317 190.234  0.00  0.00    +0.074 HD
BRANCH  50  52
ATOM     52  C   UNL     1     149.098 166.964 191.077  0.00  0.00    +0.020 C 
ATOM     53  H   UNL     1     148.384 166.183 191.363  0.00  0.00    +0.036 HD
BRANCH  52  54
ATOM     54  C   UNL     1     148.600 167.585 189.761  0.00  0.00    -0.057 C 
ATOM     55  H   UNL     1     147.693 167.082 189.402  0.00  0.00    +0.023 HD
ATOM     56  H   UNL     1     149.351 167.490 188.970  0.00  0.00    +0.023 HD
ATOM     57  H   UNL     1     148.365 168.645 189.883  0.00  0.00    +0.023 HD
ENDBRANCH  52  54
BRANCH  52  58
ATOM     58  C   UNL     1     149.126 167.994 192.251  0.00  0.00    +0.070 C 
ATOM     59  H   UNL     1     149.987 167.755 192.888  0.00  0.00    +0.061 HD
BRANCH  58  60
ATOM     60  C   UNL     1     149.299 169.480 191.783  0.00  0.00    +0.002 C 
ATOM     61  H   UNL     1     149.190 169.478 190.691  0.00  0.00    +0.037 HD
BRANCH  60  62
ATOM     62  C   UNL     1     150.709 170.018 192.053  0.00  0.00    -0.057 C 
ATOM     63  H   UNL     1     151.446 169.598 191.361  0.00  0.00    +0.024 HD
ATOM     64  H   UNL     1     150.731 171.109 191.960  0.00  0.00    +0.024 HD
ATOM     65  H   UNL     1     151.035 169.759 193.068  0.00  0.00    +0.024 HD
ENDBRANCH  60  62
BRANCH  60  66
ATOM     66  C   UNL     1     148.276 170.477 192.306  0.00  0.00    -0.065 C 
ATOM     67  C   UNL     1     148.423 171.811 192.286  0.00  0.00    -0.005 C 
ATOM     68  H   UNL     1     147.369 170.015 192.694  0.00  0.00    +0.059 HD
ATOM     69  H   UNL     1     149.346 172.230 191.877  0.00  0.00    +0.078 HD
BRANCH  67  70
ATOM     70  N   UNL     1     147.508 172.762 192.699  0.00  0.00    -0.284 N 
ATOM     71  C   UNL     1     147.611 173.535 193.851  0.00  0.00    +0.206 C 
ATOM     72  O   UNL     1     146.776 174.340 194.256  0.00  0.00    -0.279 OA
ATOM     73  H   UNL     1     148.540 173.372 194.423  0.00  0.00    +0.126 HD
BRANCH  70  74
ATOM     74  C   UNL     1     146.321 172.936 191.865  0.00  0.00    +0.007 C 
ATOM     75  H   UNL     1     145.501 173.309 192.493  0.00  0.00    +0.043 HD
ATOM     76  H   UNL     1     146.041 171.964 191.439  0.00  0.00    +0.043 HD
ATOM     77  H   UNL     1     146.490 173.635 191.042  0.00  0.00    +0.043 HD
ENDBRANCH  70  74
ENDBRANCH  67  70
ENDBRANCH  60  66
ENDBRANCH  58  60
BRANCH  58  78
ATOM     78  O   UNL     1     147.911 167.878 193.009  0.00  0.00    -0.379 OA
BRANCH  78  79
ATOM     79  C   UNL     1     147.411 166.548 193.099  0.00  0.00    +0.037 C 
ATOM     80  H   UNL     1     147.335 166.098 192.105  0.00  0.00    +0.052 HD
ATOM     81  H   UNL     1     148.047 165.932 193.741  0.00  0.00    +0.052 HD
ATOM     82  H   UNL     1     146.413 166.590 193.543  0.00  0.00    +0.052 HD
ENDBRANCH  78  79
ENDBRANCH  58  78
ENDBRANCH  52  58
ENDBRANCH  50  52
BRANCH  50  83
ATOM     83  O   UNL     1     151.079 165.829 192.057  0.00  0.00    -0.459 OA
BRANCH  83  85
ATOM     84  O   UNL     1     150.048 163.774 192.091  0.00  0.00    -0.248 OA
ATOM     85  C   UNL     1     150.614 164.698 192.661  0.00  0.00    +0.337 C 
BRANCH  85  86
ATOM     86  C   UNL     1     150.949 164.701 194.159  0.00  0.00    +0.155 C 
ATOM     87  O   UNL     1     149.818 164.659 195.053  0.00  0.00    -0.365 OA
ATOM     88  C   UNL     1     149.810 165.860 195.839  0.00  0.00    +0.049 C 
ATOM     89  C   UNL     1     151.256 166.308 195.891  0.00  0.00    -0.027 C 
ATOM     90  C   UNL     1     151.730 165.973 194.498  0.00  0.00    -0.014 C 
ATOM     91  H   UNL     1     151.540 163.799 194.362  0.00  0.00    +0.071 HD
ATOM     92  H   UNL     1     149.399 165.643 196.828  0.00  0.00    +0.056 HD
ATOM     93  H   UNL     1     149.174 166.602 195.344  0.00  0.00    +0.056 HD
ATOM     94  H   UNL     1     151.813 165.711 196.620  0.00  0.00    +0.029 HD
ATOM     95  H   UNL     1     151.360 167.368 196.148  0.00  0.00    +0.029 HD
ATOM     96  H   UNL     1     151.477 166.796 193.810  0.00  0.00    +0.030 HD
ATOM     97  H   UNL     1     152.815 165.820 194.441  0.00  0.00    +0.030 HD
ENDBRANCH  85  86
ENDBRANCH  83  85
ENDBRANCH  50  83
ENDBRANCH   1  50
TORSDOF 31
ENDMDL
