MODEL 1
REMARK VINA RESULT:      -5.0      0.000      0.000
REMARK  Name = Aplyronine A_conf3
REMARK  45 active torsions:
REMARK  status: ('A' for Active; 'I' for Inactive)
REMARK    1  A    between atoms: C_1  and  C_2
REMARK    2  A    between atoms: C_5  and  O_75
REMARK    3  A    between atoms: C_6  and  C_74
REMARK    4  A    between atoms: C_9  and  C_73
REMARK    5  A    between atoms: C_11  and  O_71
REMARK    6  A    between atoms: C_15  and  C_39
REMARK    7  A    between atoms: C_24  and  O_29
REMARK    8  A    between atoms: C_25  and  C_28
REMARK    9  A    between atoms: C_26  and  O_27
REMARK   10  A    between atoms: O_29  and  C_30
REMARK   11  A    between atoms: C_30  and  C_32
REMARK   12  A    between atoms: C_32  and  C_33
REMARK   13  A    between atoms: C_32  and  N_36
REMARK   14  A    between atoms: C_33  and  O_34
REMARK   15  A    between atoms: O_34  and  C_35
REMARK   16  A    between atoms: N_36  and  C_37
REMARK   17  A    between atoms: N_36  and  C_38
REMARK   18  A    between atoms: C_39  and  C_40
REMARK   19  A    between atoms: C_39  and  C_41
REMARK   20  A    between atoms: C_41  and  C_42
REMARK   21  A    between atoms: C_41  and  O_70
REMARK   22  A    between atoms: C_42  and  C_43
REMARK   23  A    between atoms: C_42  and  C_44
REMARK   24  A    between atoms: C_44  and  C_45
REMARK   25  A    between atoms: C_45  and  C_46
REMARK   26  A    between atoms: C_46  and  C_47
REMARK   27  A    between atoms: C_46  and  O_62
REMARK   28  A    between atoms: C_47  and  C_48
REMARK   29  A    between atoms: C_47  and  C_49
REMARK   30  A    between atoms: C_49  and  C_50
REMARK   31  A    between atoms: C_49  and  O_58
REMARK   32  A    between atoms: C_50  and  C_51
REMARK   33  A    between atoms: C_50  and  C_52
REMARK   34  A    between atoms: C_53  and  N_54
REMARK   35  A    between atoms: N_54  and  C_55
REMARK   36  A    between atoms: O_58  and  C_59
REMARK   37  A    between atoms: C_59  and  C_61
REMARK   38  A    between atoms: O_62  and  C_63
REMARK   39  A    between atoms: C_63  and  C_65
REMARK   40  A    between atoms: C_65  and  C_66
REMARK   41  A    between atoms: C_65  and  N_67
REMARK   42  A    between atoms: N_67  and  C_68
REMARK   43  A    between atoms: N_67  and  C_69
REMARK   44  A    between atoms: O_71  and  C_72
REMARK   45  A    between atoms: O_75  and  C_76
REMARK                            x       y       z     vdW  Elec       q    Type
REMARK                         _______ _______ _______ _____ _____    ______ ____
ROOT
ATOM      1  C   UNL     1     154.918 166.081 188.557  0.00  0.00    -0.017 C 
ATOM      2  C   UNL     1     153.830 165.068 188.978  0.00  0.00    -0.045 C 
ATOM      3  C   UNL     1     152.415 165.401 188.468  0.00  0.00    -0.022 C 
ATOM      4  C   UNL     1     151.324 165.515 189.563  0.00  0.00    +0.079 C 
ATOM      5  C   UNL     1     150.799 164.192 190.131  0.00  0.00    -0.048 C 
ATOM      6  C   UNL     1     149.467 163.964 190.158  0.00  0.00    -0.082 C 
ATOM      7  C   UNL     1     148.730 162.783 190.725  0.00  0.00    -0.032 C 
ATOM      8  C   UNL     1     148.452 161.636 189.731  0.00  0.00    -0.038 C 
ATOM      9  C   UNL     1     147.637 162.083 188.491  0.00  0.00    -0.020 C 
ATOM     10  C   UNL     1     148.509 162.629 187.347  0.00  0.00    +0.077 C 
ATOM     11  C   UNL     1     147.653 163.096 186.201  0.00  0.00    -0.059 C 
ATOM     12  C   UNL     1     147.313 164.374 185.964  0.00  0.00    -0.082 C 
ATOM     13  C   UNL     1     146.576 164.798 184.717  0.00  0.00    +0.003 C 
ATOM     14  C   UNL     1     147.194 166.010 183.979  0.00  0.00    +0.112 C 
ATOM     15  O   UNL     1     148.641 165.926 184.018  0.00  0.00    -0.458 OA
ATOM     16  C   UNL     1     149.271 164.976 183.293  0.00  0.00    +0.332 C 
ATOM     17  O   UNL     1     148.772 164.166 182.534  0.00  0.00    -0.246 OA
ATOM     18  C   UNL     1     150.699 165.110 183.629  0.00  0.00    +0.022 C 
ATOM     19  C   UNL     1     151.608 164.162 183.365  0.00  0.00    -0.055 C 
ATOM     20  C   UNL     1     152.976 164.368 183.772  0.00  0.00    -0.065 C 
ATOM     21  C   UNL     1     154.015 163.569 183.488  0.00  0.00    -0.081 C 
ATOM     22  C   UNL     1     155.470 163.846 183.819  0.00  0.00    +0.003 C 
ATOM     23  C   UNL     1     155.835 165.038 184.753  0.00  0.00    +0.111 C 
ATOM     24  C   UNL     1     155.445 164.788 186.252  0.00  0.00    +0.020 C 
ATOM     25  C   UNL     1     155.247 166.122 187.035  0.00  0.00    +0.064 C 
ATOM     26  H   UNL     1     154.532 167.082 188.802  0.00  0.00    +0.032 HD
ATOM     27  H   UNL     1     153.827 165.014 190.070  0.00  0.00    +0.027 HD
ATOM     28  H   UNL     1     154.101 164.063 188.640  0.00  0.00    +0.027 HD
ATOM     29  H   UNL     1     152.446 166.366 187.948  0.00  0.00    +0.029 HD
ATOM     30  H   UNL     1     152.110 164.661 187.718  0.00  0.00    +0.029 HD
ATOM     31  H   UNL     1     150.492 166.050 189.084  0.00  0.00    +0.064 HD
ATOM     32  H   UNL     1     148.803 164.733 189.756  0.00  0.00    +0.057 HD
ATOM     33  H   UNL     1     147.779 163.154 191.129  0.00  0.00    +0.031 HD
ATOM     34  H   UNL     1     149.266 162.389 191.599  0.00  0.00    +0.031 HD
ATOM     35  H   UNL     1     149.411 161.213 189.406  0.00  0.00    +0.030 HD
ATOM     36  H   UNL     1     146.886 162.825 188.790  0.00  0.00    +0.030 HD
ATOM     37  H   UNL     1     147.086 161.214 188.104  0.00  0.00    +0.030 HD
ATOM     38  H   UNL     1     149.141 163.450 187.693  0.00  0.00    +0.064 HD
ATOM     39  H   UNL     1     147.349 162.320 185.500  0.00  0.00    +0.059 HD
ATOM     40  H   UNL     1     147.601 165.159 186.659  0.00  0.00    +0.057 HD
ATOM     41  H   UNL     1     145.519 164.959 184.944  0.00  0.00    +0.034 HD
ATOM     42  H   UNL     1     146.586 163.954 184.012  0.00  0.00    +0.034 HD
ATOM     43  H   UNL     1     146.874 165.967 182.929  0.00  0.00    +0.074 HD
ATOM     44  H   UNL     1     150.978 166.032 184.131  0.00  0.00    +0.069 HD
ATOM     45  H   UNL     1     151.333 163.246 182.853  0.00  0.00    +0.062 HD
ATOM     46  H   UNL     1     153.139 165.292 184.319  0.00  0.00    +0.061 HD
ATOM     47  H   UNL     1     153.839 162.658 182.919  0.00  0.00    +0.057 HD
ATOM     48  H   UNL     1     155.902 162.923 184.220  0.00  0.00    +0.034 HD
ATOM     49  H   UNL     1     155.965 164.014 182.854  0.00  0.00    +0.034 HD
ATOM     50  H   UNL     1     156.923 165.186 184.716  0.00  0.00    +0.074 HD
ATOM     51  H   UNL     1     154.483 164.263 186.277  0.00  0.00    +0.036 HD
ATOM     52  H   UNL     1     154.390 166.622 186.569  0.00  0.00    +0.060 HD
ENDROOT
BRANCH   1  53
ATOM     53  C   UNL     1     156.148 165.932 189.469  0.00  0.00    -0.060 C 
ATOM     54  H   UNL     1     157.055 165.821 188.863  0.00  0.00    +0.023 HD
ATOM     55  H   UNL     1     156.082 165.035 190.091  0.00  0.00    +0.023 HD
ATOM     56  H   UNL     1     156.299 166.793 190.120  0.00  0.00    +0.023 HD
ENDBRANCH   1  53
BRANCH   5  57
ATOM     57  C   UNL     1     151.808 163.220 190.677  0.00  0.00    -0.041 C 
ATOM     58  H   UNL     1     152.040 163.453 191.720  0.00  0.00    +0.028 HD
ATOM     59  H   UNL     1     151.425 162.195 190.616  0.00  0.00    +0.028 HD
ATOM     60  H   UNL     1     152.760 163.234 190.141  0.00  0.00    +0.028 HD
ENDBRANCH   5  57
BRANCH  24  61
ATOM     61  C   UNL     1     156.488 163.855 186.884  0.00  0.00    -0.057 C 
ATOM     62  H   UNL     1     157.460 163.938 186.388  0.00  0.00    +0.023 HD
ATOM     63  H   UNL     1     156.639 164.085 187.942  0.00  0.00    +0.023 HD
ATOM     64  H   UNL     1     156.192 162.808 186.793  0.00  0.00    +0.023 HD
ENDBRANCH  24  61
BRANCH   8  65
ATOM     65  C   UNL     1     147.692 160.524 190.465  0.00  0.00    -0.062 C 
ATOM     66  H   UNL     1     148.123 159.541 190.253  0.00  0.00    +0.023 HD
ATOM     67  H   UNL     1     146.638 160.506 190.164  0.00  0.00    +0.023 HD
ATOM     68  H   UNL     1     147.723 160.683 191.549  0.00  0.00    +0.023 HD
ENDBRANCH   8  65
BRANCH  14  69
ATOM     69  C   UNL     1     146.846 167.441 184.517  0.00  0.00    +0.020 C 
ATOM     70  H   UNL     1     146.897 168.140 183.670  0.00  0.00    +0.036 HD
BRANCH  69  71
ATOM     71  C   UNL     1     145.378 167.409 184.995  0.00  0.00    -0.057 C 
ATOM     72  H   UNL     1     144.716 166.946 184.258  0.00  0.00    +0.023 HD
ATOM     73  H   UNL     1     145.012 168.421 185.201  0.00  0.00    +0.023 HD
ATOM     74  H   UNL     1     145.258 166.821 185.912  0.00  0.00    +0.023 HD
ENDBRANCH  69  71
BRANCH  69  75
ATOM     75  C   UNL     1     147.826 167.919 185.623  0.00  0.00    +0.064 C 
ATOM     76  H   UNL     1     148.750 167.333 185.528  0.00  0.00    +0.060 HD
BRANCH  75  77
ATOM     77  C   UNL     1     147.333 167.801 187.089  0.00  0.00    -0.017 C 
ATOM     78  H   UNL     1     146.497 167.091 187.097  0.00  0.00    +0.032 HD
BRANCH  77  79
ATOM     79  C   UNL     1     148.398 167.138 187.981  0.00  0.00    -0.060 C 
ATOM     80  H   UNL     1     149.304 167.738 188.084  0.00  0.00    +0.023 HD
ATOM     81  H   UNL     1     148.698 166.171 187.558  0.00  0.00    +0.023 HD
ATOM     82  H   UNL     1     148.000 166.947 188.984  0.00  0.00    +0.023 HD
ENDBRANCH  77  79
BRANCH  77  83
ATOM     83  C   UNL     1     146.795 169.108 187.728  0.00  0.00    -0.045 C 
ATOM     84  H   UNL     1     145.728 168.940 187.927  0.00  0.00    +0.027 HD
ATOM     85  H   UNL     1     146.838 169.920 186.993  0.00  0.00    +0.027 HD
BRANCH  83  86
ATOM     86  C   UNL     1     147.477 169.587 189.015  0.00  0.00    -0.015 C 
ATOM     87  H   UNL     1     147.692 170.658 188.948  0.00  0.00    +0.030 HD
ATOM     88  H   UNL     1     148.462 169.122 189.115  0.00  0.00    +0.030 HD
BRANCH  86  89
ATOM     89  C   UNL     1     146.667 169.266 190.290  0.00  0.00    +0.109 C 
ATOM     90  H   UNL     1     147.105 168.382 190.777  0.00  0.00    +0.074 HD
BRANCH  89  91
ATOM     91  C   UNL     1     145.143 168.979 190.122  0.00  0.00    +0.031 C 
ATOM     92  H   UNL     1     144.980 169.029 189.036  0.00  0.00    +0.037 HD
BRANCH  91  93
ATOM     93  C   UNL     1     144.311 170.102 190.751  0.00  0.00    -0.056 C 
ATOM     94  H   UNL     1     143.275 169.787 190.922  0.00  0.00    +0.023 HD
ATOM     95  H   UNL     1     144.295 170.997 190.122  0.00  0.00    +0.023 HD
ATOM     96  H   UNL     1     144.706 170.378 191.731  0.00  0.00    +0.023 HD
ENDBRANCH  91  93
BRANCH  91  97
ATOM     97  C   UNL     1     144.682 167.565 190.593  0.00  0.00    +0.115 C 
ATOM     98  H   UNL     1     143.846 167.255 189.951  0.00  0.00    +0.074 HD
BRANCH  97  99
ATOM     99  C   UNL     1     145.763 166.433 190.592  0.00  0.00    +0.013 C 
ATOM    100  H   UNL     1     146.616 166.812 190.011  0.00  0.00    +0.038 HD
BRANCH  99 101
ATOM    101  C   UNL     1     145.328 165.168 189.842  0.00  0.00    -0.056 C 
ATOM    102  H   UNL     1     144.338 164.840 190.181  0.00  0.00    +0.024 HD
ATOM    103  H   UNL     1     146.027 164.345 190.024  0.00  0.00    +0.024 HD
ATOM    104  H   UNL     1     145.262 165.332 188.762  0.00  0.00    +0.024 HD
ENDBRANCH  99 101
BRANCH  99 105
ATOM    105  C   UNL     1     146.288 166.081 191.971  0.00  0.00    -0.064 C 
ATOM    106  C   UNL     1     147.585 166.197 192.291  0.00  0.00    -0.005 C 
ATOM    107  H   UNL     1     145.566 165.692 192.678  0.00  0.00    +0.059 HD
ATOM    108  H   UNL     1     148.274 166.574 191.535  0.00  0.00    +0.078 HD
BRANCH 106 109
ATOM    109  N   UNL     1     148.187 165.900 193.505  0.00  0.00    -0.284 N 
ATOM    110  C   UNL     1     147.569 165.964 194.745  0.00  0.00    +0.206 C 
ATOM    111  O   UNL     1     148.091 165.729 195.830  0.00  0.00    -0.279 OA
ATOM    112  H   UNL     1     146.515 166.269 194.699  0.00  0.00    +0.126 HD
BRANCH 109 113
ATOM    113  C   UNL     1     149.597 165.519 193.466  0.00  0.00    +0.007 C 
ATOM    114  H   UNL     1     149.727 164.435 193.388  0.00  0.00    +0.043 HD
ATOM    115  H   UNL     1     150.075 165.990 192.600  0.00  0.00    +0.043 HD
ATOM    116  H   UNL     1     150.080 165.862 194.386  0.00  0.00    +0.043 HD
ENDBRANCH 109 113
ENDBRANCH 106 109
ENDBRANCH  99 105
ENDBRANCH  97  99
BRANCH  97 117
ATOM    117  O   UNL     1     144.195 167.686 191.956  0.00  0.00    -0.461 OA
BRANCH 117 118
ATOM    118  C   UNL     1     142.957 167.184 192.214  0.00  0.00    +0.304 C 
ATOM    119  O   UNL     1     142.125 166.871 191.374  0.00  0.00    -0.251 OA
BRANCH 118 120
ATOM    120  C   UNL     1     142.757 167.061 193.692  0.00  0.00    +0.033 C 
ATOM    121  H   UNL     1     142.562 166.014 193.945  0.00  0.00    +0.034 HD
ATOM    122  H   UNL     1     143.661 167.382 194.218  0.00  0.00    +0.034 HD
ATOM    123  H   UNL     1     141.898 167.663 194.001  0.00  0.00    +0.034 HD
ENDBRANCH 118 120
ENDBRANCH 117 118
ENDBRANCH  97 117
ENDBRANCH  91  97
ENDBRANCH  89  91
BRANCH  89 124
ATOM    124  O   UNL     1     146.810 170.376 191.214  0.00  0.00    -0.460 OA
BRANCH 124 125
ATOM    125  C   UNL     1     147.891 170.325 192.050  0.00  0.00    +0.324 C 
ATOM    126  O   UNL     1     148.070 169.463 192.903  0.00  0.00    -0.249 OA
BRANCH 125 127
ATOM    127  C   UNL     1     148.846 171.492 191.741  0.00  0.00    +0.105 C 
ATOM    128  H   UNL     1     148.771 171.733 190.673  0.00  0.00    +0.058 HD
BRANCH 127 129
ATOM    129  C   UNL     1     150.256 170.965 192.028  0.00  0.00    -0.039 C 
ATOM    130  H   UNL     1     150.246 169.888 192.227  0.00  0.00    +0.025 HD
ATOM    131  H   UNL     1     150.709 171.471 192.887  0.00  0.00    +0.025 HD
ATOM    132  H   UNL     1     150.917 171.128 191.168  0.00  0.00    +0.025 HD
ENDBRANCH 127 129
BRANCH 127 133
ATOM    133  N   UNL     1     148.486 172.697 192.545  0.00  0.00    -0.296 NA
BRANCH 133 134
ATOM    134  C   UNL     1     149.398 172.906 193.672  0.00  0.00    -0.012 C 
ATOM    135  H   UNL     1     150.384 173.226 193.316  0.00  0.00    +0.039 HD
ATOM    136  H   UNL     1     149.528 171.998 194.269  0.00  0.00    +0.039 HD
ATOM    137  H   UNL     1     149.044 173.710 194.324  0.00  0.00    +0.039 HD
ENDBRANCH 133 134
BRANCH 133 138
ATOM    138  C   UNL     1     148.469 173.904 191.709  0.00  0.00    -0.012 C 
ATOM    139  H   UNL     1     149.106 173.771 190.828  0.00  0.00    +0.039 HD
ATOM    140  H   UNL     1     147.457 174.150 191.367  0.00  0.00    +0.039 HD
ATOM    141  H   UNL     1     148.873 174.771 192.241  0.00  0.00    +0.039 HD
ENDBRANCH 133 138
ENDBRANCH 127 133
ENDBRANCH 125 127
ENDBRANCH 124 125
ENDBRANCH  89 124
ENDBRANCH  86  89
ENDBRANCH  83  86
ENDBRANCH  77  83
ENDBRANCH  75  77
BRANCH  75 142
ATOM    142  O   UNL     1     148.161 169.280 185.344  0.00  0.00    -0.391 OA
ATOM    143  H   UNL     1     148.675 169.303 184.521  0.00  0.00    +0.210 HD
ENDBRANCH  75 142
ENDBRANCH  69  75
ENDBRANCH  14  69
BRANCH  25 144
ATOM    144  O   UNL     1     156.358 166.997 186.813  0.00  0.00    -0.391 OA
ATOM    145  H   UNL     1     156.773 167.189 187.669  0.00  0.00    +0.210 HD
ENDBRANCH  25 144
BRANCH  23 146
ATOM    146  O   UNL     1     155.186 166.228 184.267  0.00  0.00    -0.460 OA
BRANCH 146 147
ATOM    147  C   UNL     1     155.767 166.908 183.247  0.00  0.00    +0.327 C 
ATOM    148  O   UNL     1     156.019 166.435 182.142  0.00  0.00    -0.249 OA
BRANCH 147 149
ATOM    149  C   UNL     1     156.006 168.381 183.613  0.00  0.00    +0.131 C 
ATOM    150  H   UNL     1     155.117 168.685 184.184  0.00  0.00    +0.060 HD
BRANCH 149 151
ATOM    151  C   UNL     1     155.986 169.219 182.310  0.00  0.00    +0.073 C 
ATOM    152  H   UNL     1     156.948 169.732 182.176  0.00  0.00    +0.058 HD
ATOM    153  H   UNL     1     155.840 168.547 181.455  0.00  0.00    +0.058 HD
BRANCH 151 154
ATOM    154  O   UNL     1     154.930 170.190 182.296  0.00  0.00    -0.381 OA
BRANCH 154 155
ATOM    155  C   UNL     1     154.016 169.941 181.235  0.00  0.00    +0.037 C 
ATOM    156  H   UNL     1     153.167 170.626 181.297  0.00  0.00    +0.052 HD
ATOM    157  H   UNL     1     154.518 170.041 180.268  0.00  0.00    +0.052 HD
ATOM    158  H   UNL     1     153.647 168.917 181.335  0.00  0.00    +0.052 HD
ENDBRANCH 154 155
ENDBRANCH 151 154
ENDBRANCH 149 151
BRANCH 149 159
ATOM    159  N   UNL     1     157.216 168.529 184.484  0.00  0.00    -0.294 NA
BRANCH 159 160
ATOM    160  C   UNL     1     157.461 169.934 184.826  0.00  0.00    -0.012 C 
ATOM    161  H   UNL     1     156.957 170.226 185.756  0.00  0.00    +0.039 HD
ATOM    162  H   UNL     1     157.107 170.595 184.026  0.00  0.00    +0.039 HD
ATOM    163  H   UNL     1     158.531 170.142 184.930  0.00  0.00    +0.039 HD
ENDBRANCH 159 160
BRANCH 159 164
ATOM    164  C   UNL     1     158.413 167.962 183.861  0.00  0.00    -0.012 C 
ATOM    165  H   UNL     1     159.184 167.762 184.617  0.00  0.00    +0.039 HD
ATOM    166  H   UNL     1     158.205 166.996 183.391  0.00  0.00    +0.039 HD
ATOM    167  H   UNL     1     158.842 168.632 183.107  0.00  0.00    +0.039 HD
ENDBRANCH 159 164
ENDBRANCH 149 159
ENDBRANCH 147 149
ENDBRANCH 146 147
ENDBRANCH  23 146
BRANCH   4 168
ATOM    168  O   UNL     1     151.831 166.352 190.616  0.00  0.00    -0.376 OA
BRANCH 168 169
ATOM    169  C   UNL     1     151.201 167.627 190.674  0.00  0.00    +0.037 C 
ATOM    170  H   UNL     1     151.374 168.131 189.720  0.00  0.00    +0.052 HD
ATOM    171  H   UNL     1     151.640 168.241 191.464  0.00  0.00    +0.052 HD
ATOM    172  H   UNL     1     150.125 167.527 190.823  0.00  0.00    +0.052 HD
ENDBRANCH 168 169
ENDBRANCH   4 168
BRANCH  10 173
ATOM    173  O   UNL     1     149.339 161.550 186.893  0.00  0.00    -0.376 OA
BRANCH 173 174
ATOM    174  C   UNL     1     148.636 160.592 186.116  0.00  0.00    +0.037 C 
ATOM    175  H   UNL     1     148.938 160.651 185.068  0.00  0.00    +0.052 HD
ATOM    176  H   UNL     1     147.567 160.816 186.179  0.00  0.00    +0.052 HD
ATOM    177  H   UNL     1     148.800 159.584 186.507  0.00  0.00    +0.052 HD
ENDBRANCH 173 174
ENDBRANCH  10 173
TORSDOF 45
ENDMDL
MODEL 2
REMARK VINA RESULT:      -4.9      7.062     13.521
REMARK  Name = Aplyronine A_conf3
REMARK  45 active torsions:
REMARK  status: ('A' for Active; 'I' for Inactive)
REMARK    1  A    between atoms: C_1  and  C_2
REMARK    2  A    between atoms: C_5  and  O_75
REMARK    3  A    between atoms: C_6  and  C_74
REMARK    4  A    between atoms: C_9  and  C_73
REMARK    5  A    between atoms: C_11  and  O_71
REMARK    6  A    between atoms: C_15  and  C_39
REMARK    7  A    between atoms: C_24  and  O_29
REMARK    8  A    between atoms: C_25  and  C_28
REMARK    9  A    between atoms: C_26  and  O_27
REMARK   10  A    between atoms: O_29  and  C_30
REMARK   11  A    between atoms: C_30  and  C_32
REMARK   12  A    between atoms: C_32  and  C_33
REMARK   13  A    between atoms: C_32  and  N_36
REMARK   14  A    between atoms: C_33  and  O_34
REMARK   15  A    between atoms: O_34  and  C_35
REMARK   16  A    between atoms: N_36  and  C_37
REMARK   17  A    between atoms: N_36  and  C_38
REMARK   18  A    between atoms: C_39  and  C_40
REMARK   19  A    between atoms: C_39  and  C_41
REMARK   20  A    between atoms: C_41  and  C_42
REMARK   21  A    between atoms: C_41  and  O_70
REMARK   22  A    between atoms: C_42  and  C_43
REMARK   23  A    between atoms: C_42  and  C_44
REMARK   24  A    between atoms: C_44  and  C_45
REMARK   25  A    between atoms: C_45  and  C_46
REMARK   26  A    between atoms: C_46  and  C_47
REMARK   27  A    between atoms: C_46  and  O_62
REMARK   28  A    between atoms: C_47  and  C_48
REMARK   29  A    between atoms: C_47  and  C_49
REMARK   30  A    between atoms: C_49  and  C_50
REMARK   31  A    between atoms: C_49  and  O_58
REMARK   32  A    between atoms: C_50  and  C_51
REMARK   33  A    between atoms: C_50  and  C_52
REMARK   34  A    between atoms: C_53  and  N_54
REMARK   35  A    between atoms: N_54  and  C_55
REMARK   36  A    between atoms: O_58  and  C_59
REMARK   37  A    between atoms: C_59  and  C_61
REMARK   38  A    between atoms: O_62  and  C_63
REMARK   39  A    between atoms: C_63  and  C_65
REMARK   40  A    between atoms: C_65  and  C_66
REMARK   41  A    between atoms: C_65  and  N_67
REMARK   42  A    between atoms: N_67  and  C_68
REMARK   43  A    between atoms: N_67  and  C_69
REMARK   44  A    between atoms: O_71  and  C_72
REMARK   45  A    between atoms: O_75  and  C_76
REMARK                            x       y       z     vdW  Elec       q    Type
REMARK                         _______ _______ _______ _____ _____    ______ ____
ROOT
ATOM      1  C   UNL     1     145.783 178.385 184.587  0.00  0.00    -0.017 C 
ATOM      2  C   UNL     1     144.349 177.826 184.462  0.00  0.00    -0.045 C 
ATOM      3  C   UNL     1     143.933 176.873 185.598  0.00  0.00    -0.022 C 
ATOM      4  C   UNL     1     143.450 175.471 185.146  0.00  0.00    +0.079 C 
ATOM      5  C   UNL     1     142.030 175.399 184.577  0.00  0.00    -0.048 C 
ATOM      6  C   UNL     1     141.158 174.497 185.081  0.00  0.00    -0.082 C 
ATOM      7  C   UNL     1     139.752 174.204 184.637  0.00  0.00    -0.032 C 
ATOM      8  C   UNL     1     138.649 175.004 185.360  0.00  0.00    -0.038 C 
ATOM      9  C   UNL     1     138.653 174.804 186.897  0.00  0.00    -0.020 C 
ATOM     10  C   UNL     1     139.595 175.769 187.638  0.00  0.00    +0.077 C 
ATOM     11  C   UNL     1     139.593 175.484 189.116  0.00  0.00    -0.059 C 
ATOM     12  C   UNL     1     140.529 174.770 189.764  0.00  0.00    -0.082 C 
ATOM     13  C   UNL     1     140.554 174.642 191.267  0.00  0.00    +0.003 C 
ATOM     14  C   UNL     1     141.931 174.917 191.919  0.00  0.00    +0.112 C 
ATOM     15  O   UNL     1     142.590 176.013 191.236  0.00  0.00    -0.458 OA
ATOM     16  C   UNL     1     142.109 177.268 191.375  0.00  0.00    +0.332 C 
ATOM     17  O   UNL     1     141.177 177.635 192.066  0.00  0.00    -0.246 OA
ATOM     18  C   UNL     1     142.938 178.106 190.491  0.00  0.00    +0.022 C 
ATOM     19  C   UNL     1     142.588 179.340 190.107  0.00  0.00    -0.055 C 
ATOM     20  C   UNL     1     143.448 180.065 189.205  0.00  0.00    -0.065 C 
ATOM     21  C   UNL     1     143.292 181.339 188.816  0.00  0.00    -0.081 C 
ATOM     22  C   UNL     1     144.260 182.134 187.958  0.00  0.00    +0.003 C 
ATOM     23  C   UNL     1     145.447 181.408 187.260  0.00  0.00    +0.111 C 
ATOM     24  C   UNL     1     144.996 180.494 186.067  0.00  0.00    +0.020 C 
ATOM     25  C   UNL     1     146.025 179.360 185.778  0.00  0.00    +0.064 C 
ATOM     26  H   UNL     1     146.445 177.524 184.772  0.00  0.00    +0.032 HD
ATOM     27  H   UNL     1     144.273 177.311 183.500  0.00  0.00    +0.027 HD
ATOM     28  H   UNL     1     143.629 178.648 184.407  0.00  0.00    +0.027 HD
ATOM     29  H   UNL     1     144.794 176.715 186.259  0.00  0.00    +0.029 HD
ATOM     30  H   UNL     1     143.160 177.349 186.214  0.00  0.00    +0.029 HD
ATOM     31  H   UNL     1     143.503 174.845 186.048  0.00  0.00    +0.064 HD
ATOM     32  H   UNL     1     141.495 173.853 185.896  0.00  0.00    +0.057 HD
ATOM     33  H   UNL     1     139.580 173.129 184.784  0.00  0.00    +0.031 HD
ATOM     34  H   UNL     1     139.661 174.350 183.553  0.00  0.00    +0.031 HD
ATOM     35  H   UNL     1     138.777 176.069 185.128  0.00  0.00    +0.030 HD
ATOM     36  H   UNL     1     138.905 173.763 187.134  0.00  0.00    +0.030 HD
ATOM     37  H   UNL     1     137.635 174.977 187.274  0.00  0.00    +0.030 HD
ATOM     38  H   UNL     1     140.614 175.698 187.251  0.00  0.00    +0.064 HD
ATOM     39  H   UNL     1     138.789 175.953 189.680  0.00  0.00    +0.059 HD
ATOM     40  H   UNL     1     141.334 174.288 189.213  0.00  0.00    +0.057 HD
ATOM     41  H   UNL     1     140.152 173.672 191.567  0.00  0.00    +0.034 HD
ATOM     42  H   UNL     1     139.850 175.377 191.683  0.00  0.00    +0.034 HD
ATOM     43  H   UNL     1     141.759 175.215 192.962  0.00  0.00    +0.074 HD
ATOM     44  H   UNL     1     143.861 177.650 190.144  0.00  0.00    +0.069 HD
ATOM     45  H   UNL     1     141.672 179.801 190.463  0.00  0.00    +0.062 HD
ATOM     46  H   UNL     1     144.313 179.500 188.870  0.00  0.00    +0.061 HD
ATOM     47  H   UNL     1     142.433 181.900 189.179  0.00  0.00    +0.057 HD
ATOM     48  H   UNL     1     143.673 182.676 187.209  0.00  0.00    +0.034 HD
ATOM     49  H   UNL     1     144.679 182.902 188.621  0.00  0.00    +0.034 HD
ATOM     50  H   UNL     1     146.127 182.170 186.852  0.00  0.00    +0.074 HD
ATOM     51  H   UNL     1     144.055 180.003 186.344  0.00  0.00    +0.036 HD
ATOM     52  H   UNL     1     146.034 178.724 186.672  0.00  0.00    +0.060 HD
ENDROOT
BRANCH   1  53
ATOM     53  C   UNL     1     146.255 178.919 183.224  0.00  0.00    -0.060 C 
ATOM     54  H   UNL     1     147.018 178.254 182.802  0.00  0.00    +0.023 HD
ATOM     55  H   UNL     1     146.722 179.904 183.317  0.00  0.00    +0.023 HD
ATOM     56  H   UNL     1     145.448 178.988 182.494  0.00  0.00    +0.023 HD
ENDBRANCH   1  53
BRANCH   5  57
ATOM     57  C   UNL     1     141.688 176.321 183.439  0.00  0.00    -0.041 C 
ATOM     58  H   UNL     1     141.168 177.209 183.808  0.00  0.00    +0.028 HD
ATOM     59  H   UNL     1     142.597 176.632 182.911  0.00  0.00    +0.028 HD
ATOM     60  H   UNL     1     141.030 175.867 182.694  0.00  0.00    +0.028 HD
ENDBRANCH   5  57
BRANCH  24  61
ATOM     61  C   UNL     1     144.704 181.382 184.849  0.00  0.00    -0.057 C 
ATOM     62  H   UNL     1     144.322 182.363 185.144  0.00  0.00    +0.023 HD
ATOM     63  H   UNL     1     145.604 181.546 184.251  0.00  0.00    +0.023 HD
ATOM     64  H   UNL     1     143.937 180.940 184.210  0.00  0.00    +0.023 HD
ENDBRANCH  24  61
BRANCH   8  65
ATOM     65  C   UNL     1     137.286 174.579 184.797  0.00  0.00    -0.062 C 
ATOM     66  H   UNL     1     137.088 175.058 183.833  0.00  0.00    +0.023 HD
ATOM     67  H   UNL     1     136.477 174.849 185.485  0.00  0.00    +0.023 HD
ATOM     68  H   UNL     1     137.248 173.494 184.652  0.00  0.00    +0.023 HD
ENDBRANCH   8  65
BRANCH  14  69
ATOM     69  C   UNL     1     142.974 173.747 191.930  0.00  0.00    +0.020 C 
ATOM     70  H   UNL     1     143.451 173.732 192.921  0.00  0.00    +0.036 HD
BRANCH  69  71
ATOM     71  C   UNL     1     142.187 172.427 191.784  0.00  0.00    -0.057 C 
ATOM     72  H   UNL     1     142.814 171.615 191.406  0.00  0.00    +0.023 HD
ATOM     73  H   UNL     1     141.336 172.552 191.104  0.00  0.00    +0.023 HD
ATOM     74  H   UNL     1     141.794 172.075 192.744  0.00  0.00    +0.023 HD
ENDBRANCH  69  71
BRANCH  69  75
ATOM     75  C   UNL     1     144.073 173.914 190.845  0.00  0.00    +0.064 C 
ATOM     76  H   UNL     1     143.772 174.742 190.189  0.00  0.00    +0.060 HD
BRANCH  75  77
ATOM     77  C   UNL     1     144.364 172.678 189.954  0.00  0.00    -0.017 C 
ATOM     78  H   UNL     1     143.614 171.916 190.196  0.00  0.00    +0.032 HD
BRANCH  77  79
ATOM     79  C   UNL     1     144.112 172.995 188.468  0.00  0.00    -0.060 C 
ATOM     80  H   UNL     1     144.347 174.029 188.205  0.00  0.00    +0.023 HD
ATOM     81  H   UNL     1     143.057 172.829 188.219  0.00  0.00    +0.023 HD
ATOM     82  H   UNL     1     144.708 172.337 187.826  0.00  0.00    +0.023 HD
ENDBRANCH  77  79
BRANCH  77  83
ATOM     83  C   UNL     1     145.746 172.006 190.162  0.00  0.00    -0.045 C 
ATOM     84  H   UNL     1     145.790 171.710 191.219  0.00  0.00    +0.027 HD
ATOM     85  H   UNL     1     146.539 172.748 190.025  0.00  0.00    +0.027 HD
BRANCH  83  86
ATOM     86  C   UNL     1     146.067 170.789 189.287  0.00  0.00    -0.015 C 
ATOM     87  H   UNL     1     146.978 170.974 188.709  0.00  0.00    +0.030 HD
ATOM     88  H   UNL     1     145.291 170.654 188.528  0.00  0.00    +0.030 HD
BRANCH  86  89
ATOM     89  C   UNL     1     146.183 169.473 190.088  0.00  0.00    +0.109 C 
ATOM     90  H   UNL     1     146.186 169.710 191.162  0.00  0.00    +0.074 HD
BRANCH  89  91
ATOM     91  C   UNL     1     147.430 168.574 189.820  0.00  0.00    +0.031 C 
ATOM     92  H   UNL     1     148.061 169.184 189.158  0.00  0.00    +0.037 HD
BRANCH  91  93
ATOM     93  C   UNL     1     147.031 167.323 189.029  0.00  0.00    -0.056 C 
ATOM     94  H   UNL     1     147.621 167.223 188.111  0.00  0.00    +0.023 HD
ATOM     95  H   UNL     1     145.973 167.335 188.754  0.00  0.00    +0.023 HD
ATOM     96  H   UNL     1     147.225 166.417 189.610  0.00  0.00    +0.023 HD
ENDBRANCH  91  93
BRANCH  91  97
ATOM     97  C   UNL     1     148.280 168.232 191.083  0.00  0.00    +0.115 C 
ATOM     98  H   UNL     1     148.729 167.243 190.923  0.00  0.00    +0.074 HD
BRANCH  97  99
ATOM     99  C   UNL     1     149.411 169.243 191.468  0.00  0.00    +0.013 C 
ATOM    100  H   UNL     1     149.803 169.651 190.526  0.00  0.00    +0.038 HD
BRANCH  99 101
ATOM    101  C   UNL     1     150.627 168.582 192.127  0.00  0.00    -0.056 C 
ATOM    102  H   UNL     1     151.550 169.097 191.837  0.00  0.00    +0.024 HD
ATOM    103  H   UNL     1     150.723 167.537 191.814  0.00  0.00    +0.024 HD
ATOM    104  H   UNL     1     150.571 168.611 193.220  0.00  0.00    +0.024 HD
ENDBRANCH  99 101
BRANCH  99 105
ATOM    105  C   UNL     1     148.930 170.420 192.294  0.00  0.00    -0.064 C 
ATOM    106  C   UNL     1     148.964 171.678 191.831  0.00  0.00    -0.005 C 
ATOM    107  H   UNL     1     148.590 170.199 193.299  0.00  0.00    +0.059 HD
ATOM    108  H   UNL     1     149.335 171.848 190.820  0.00  0.00    +0.078 HD
BRANCH 106 109
ATOM    109  N   UNL     1     148.567 172.833 192.488  0.00  0.00    -0.284 N 
ATOM    110  C   UNL     1     147.983 172.882 193.746  0.00  0.00    +0.206 C 
ATOM    111  O   UNL     1     147.603 173.890 194.332  0.00  0.00    -0.279 OA
ATOM    112  H   UNL     1     147.863 171.897 194.216  0.00  0.00    +0.126 HD
BRANCH 109 113
ATOM    113  C   UNL     1     148.753 174.095 191.775  0.00  0.00    +0.007 C 
ATOM    114  H   UNL     1     149.800 174.414 191.773  0.00  0.00    +0.043 HD
ATOM    115  H   UNL     1     148.423 173.976 190.737  0.00  0.00    +0.043 HD
ATOM    116  H   UNL     1     148.155 174.869 192.265  0.00  0.00    +0.043 HD
ENDBRANCH 109 113
ENDBRANCH 106 109
ENDBRANCH  99 105
ENDBRANCH  97  99
BRANCH  97 117
ATOM    117  O   UNL     1     147.378 168.151 192.218  0.00  0.00    -0.461 OA
BRANCH 117 118
ATOM    118  C   UNL     1     147.629 167.178 193.135  0.00  0.00    +0.304 C 
ATOM    119  O   UNL     1     147.581 167.313 194.350  0.00  0.00    -0.251 OA
BRANCH 118 120
ATOM    120  C   UNL     1     147.970 165.898 192.438  0.00  0.00    +0.033 C 
ATOM    121  H   UNL     1     149.057 165.778 192.413  0.00  0.00    +0.034 HD
ATOM    122  H   UNL     1     147.541 165.053 192.983  0.00  0.00    +0.034 HD
ATOM    123  H   UNL     1     147.596 165.925 191.411  0.00  0.00    +0.034 HD
ENDBRANCH 118 120
ENDBRANCH 117 118
ENDBRANCH  97 117
ENDBRANCH  91  97
ENDBRANCH  89  91
BRANCH  89 124
ATOM    124  O   UNL     1     144.998 168.676 189.832  0.00  0.00    -0.460 OA
BRANCH 124 125
ATOM    125  C   UNL     1     144.116 168.561 190.870  0.00  0.00    +0.324 C 
ATOM    126  O   UNL     1     143.450 169.485 191.323  0.00  0.00    -0.249 OA
BRANCH 125 127
ATOM    127  C   UNL     1     144.074 167.101 191.360  0.00  0.00    +0.105 C 
ATOM    128  H   UNL     1     145.097 166.704 191.365  0.00  0.00    +0.058 HD
BRANCH 127 129
ATOM    129  C   UNL     1     143.254 166.334 190.317  0.00  0.00    -0.039 C 
ATOM    130  H   UNL     1     143.891 165.956 189.510  0.00  0.00    +0.025 HD
ATOM    131  H   UNL     1     142.474 166.963 189.875  0.00  0.00    +0.025 HD
ATOM    132  H   UNL     1     142.758 165.468 190.770  0.00  0.00    +0.025 HD
ENDBRANCH 127 129
BRANCH 127 133
ATOM    133  N   UNL     1     143.507 167.022 192.738  0.00  0.00    -0.296 NA
BRANCH 133 134
ATOM    134  C   UNL     1     142.132 166.516 192.746  0.00  0.00    -0.012 C 
ATOM    135  H   UNL     1     141.558 166.976 193.558  0.00  0.00    +0.039 HD
ATOM    136  H   UNL     1     142.096 165.429 192.873  0.00  0.00    +0.039 HD
ATOM    137  H   UNL     1     141.607 166.782 191.824  0.00  0.00    +0.039 HD
ENDBRANCH 133 134
BRANCH 133 138
ATOM    138  C   UNL     1     144.337 166.175 193.604  0.00  0.00    -0.012 C 
ATOM    139  H   UNL     1     145.157 165.727 193.030  0.00  0.00    +0.039 HD
ATOM    140  H   UNL     1     144.770 166.741 194.436  0.00  0.00    +0.039 HD
ATOM    141  H   UNL     1     143.767 165.336 194.015  0.00  0.00    +0.039 HD
ENDBRANCH 133 138
ENDBRANCH 127 133
ENDBRANCH 125 127
ENDBRANCH 124 125
ENDBRANCH  89 124
ENDBRANCH  86  89
ENDBRANCH  83  86
ENDBRANCH  77  83
ENDBRANCH  75  77
BRANCH  75 142
ATOM    142  O   UNL     1     145.275 174.314 191.506  0.00  0.00    -0.391 OA
ATOM    143  H   UNL     1     145.374 173.776 192.308  0.00  0.00    +0.210 HD
ENDBRANCH  75 142
ENDBRANCH  69  75
ENDBRANCH  14  69
BRANCH  25 144
ATOM    144  O   UNL     1     147.348 179.900 185.689  0.00  0.00    -0.391 OA
ATOM    145  H   UNL     1     147.947 179.329 186.195  0.00  0.00    +0.210 HD
ENDBRANCH  25 144
BRANCH  23 146
ATOM    146  O   UNL     1     146.157 180.626 188.239  0.00  0.00    -0.460 OA
BRANCH 146 147
ATOM    147  C   UNL     1     147.208 181.196 188.880  0.00  0.00    +0.327 C 
ATOM    148  O   UNL     1     147.888 180.643 189.741  0.00  0.00    -0.249 OA
BRANCH 147 149
ATOM    149  C   UNL     1     147.503 182.605 188.344  0.00  0.00    +0.131 C 
ATOM    150  H   UNL     1     146.863 182.716 187.456  0.00  0.00    +0.060 HD
BRANCH 149 151
ATOM    151  C   UNL     1     148.963 182.636 187.826  0.00  0.00    +0.073 C 
ATOM    152  H   UNL     1     149.267 183.670 187.615  0.00  0.00    +0.058 HD
ATOM    153  H   UNL     1     149.627 182.242 188.606  0.00  0.00    +0.058 HD
BRANCH 151 154
ATOM    154  O   UNL     1     149.146 181.843 186.645  0.00  0.00    -0.381 OA
BRANCH 154 155
ATOM    155  C   UNL     1     150.209 182.346 185.847  0.00  0.00    +0.037 C 
ATOM    156  H   UNL     1     150.564 183.301 186.244  0.00  0.00    +0.052 HD
ATOM    157  H   UNL     1     151.029 181.624 185.802  0.00  0.00    +0.052 HD
ATOM    158  H   UNL     1     149.830 182.510 184.834  0.00  0.00    +0.052 HD
ENDBRANCH 154 155
ENDBRANCH 151 154
ENDBRANCH 149 151
BRANCH 149 159
ATOM    159  N   UNL     1     147.128 183.653 189.347  0.00  0.00    -0.294 NA
BRANCH 159 160
ATOM    160  C   UNL     1     146.648 184.874 188.693  0.00  0.00    -0.012 C 
ATOM    161  H   UNL     1     145.725 184.703 188.126  0.00  0.00    +0.039 HD
ATOM    162  H   UNL     1     147.404 185.265 188.000  0.00  0.00    +0.039 HD
ATOM    163  H   UNL     1     146.469 185.674 189.418  0.00  0.00    +0.039 HD
ENDBRANCH 159 160
BRANCH 159 164
ATOM    164  C   UNL     1     148.240 183.981 190.239  0.00  0.00    -0.012 C 
ATOM    165  H   UNL     1     149.005 184.560 189.706  0.00  0.00    +0.039 HD
ATOM    166  H   UNL     1     147.918 184.616 191.071  0.00  0.00    +0.039 HD
ATOM    167  H   UNL     1     148.717 183.084 190.650  0.00  0.00    +0.039 HD
ENDBRANCH 159 164
ENDBRANCH 149 159
ENDBRANCH 147 149
ENDBRANCH 146 147
ENDBRANCH  23 146
BRANCH   4 168
ATOM    168  O   UNL     1     144.401 174.952 184.201  0.00  0.00    -0.376 OA
BRANCH 168 169
ATOM    169  C   UNL     1     145.491 174.272 184.815  0.00  0.00    +0.037 C 
ATOM    170  H   UNL     1     145.094 173.676 185.639  0.00  0.00    +0.052 HD
ATOM    171  H   UNL     1     146.209 174.983 185.229  0.00  0.00    +0.052 HD
ATOM    172  H   UNL     1     145.983 173.601 184.108  0.00  0.00    +0.052 HD
ENDBRANCH 168 169
ENDBRANCH   4 168
BRANCH  10 173
ATOM    173  O   UNL     1     139.097 177.098 187.424  0.00  0.00    -0.376 OA
BRANCH 173 174
ATOM    174  C   UNL     1     139.605 178.041 188.356  0.00  0.00    +0.037 C 
ATOM    175  H   UNL     1     140.584 178.406 188.038  0.00  0.00    +0.052 HD
ATOM    176  H   UNL     1     139.721 177.542 189.323  0.00  0.00    +0.052 HD
ATOM    177  H   UNL     1     138.906 178.874 188.481  0.00  0.00    +0.052 HD
ENDBRANCH 173 174
ENDBRANCH  10 173
TORSDOF 45
ENDMDL
MODEL 3
REMARK VINA RESULT:      -4.8      2.892      9.099
REMARK  Name = Aplyronine A_conf3
REMARK  45 active torsions:
REMARK  status: ('A' for Active; 'I' for Inactive)
REMARK    1  A    between atoms: C_1  and  C_2
REMARK    2  A    between atoms: C_5  and  O_75
REMARK    3  A    between atoms: C_6  and  C_74
REMARK    4  A    between atoms: C_9  and  C_73
REMARK    5  A    between atoms: C_11  and  O_71
REMARK    6  A    between atoms: C_15  and  C_39
REMARK    7  A    between atoms: C_24  and  O_29
REMARK    8  A    between atoms: C_25  and  C_28
REMARK    9  A    between atoms: C_26  and  O_27
REMARK   10  A    between atoms: O_29  and  C_30
REMARK   11  A    between atoms: C_30  and  C_32
REMARK   12  A    between atoms: C_32  and  C_33
REMARK   13  A    between atoms: C_32  and  N_36
REMARK   14  A    between atoms: C_33  and  O_34
REMARK   15  A    between atoms: O_34  and  C_35
REMARK   16  A    between atoms: N_36  and  C_37
REMARK   17  A    between atoms: N_36  and  C_38
REMARK   18  A    between atoms: C_39  and  C_40
REMARK   19  A    between atoms: C_39  and  C_41
REMARK   20  A    between atoms: C_41  and  C_42
REMARK   21  A    between atoms: C_41  and  O_70
REMARK   22  A    between atoms: C_42  and  C_43
REMARK   23  A    between atoms: C_42  and  C_44
REMARK   24  A    between atoms: C_44  and  C_45
REMARK   25  A    between atoms: C_45  and  C_46
REMARK   26  A    between atoms: C_46  and  C_47
REMARK   27  A    between atoms: C_46  and  O_62
REMARK   28  A    between atoms: C_47  and  C_48
REMARK   29  A    between atoms: C_47  and  C_49
REMARK   30  A    between atoms: C_49  and  C_50
REMARK   31  A    between atoms: C_49  and  O_58
REMARK   32  A    between atoms: C_50  and  C_51
REMARK   33  A    between atoms: C_50  and  C_52
REMARK   34  A    between atoms: C_53  and  N_54
REMARK   35  A    between atoms: N_54  and  C_55
REMARK   36  A    between atoms: O_58  and  C_59
REMARK   37  A    between atoms: C_59  and  C_61
REMARK   38  A    between atoms: O_62  and  C_63
REMARK   39  A    between atoms: C_63  and  C_65
REMARK   40  A    between atoms: C_65  and  C_66
REMARK   41  A    between atoms: C_65  and  N_67
REMARK   42  A    between atoms: N_67  and  C_68
REMARK   43  A    between atoms: N_67  and  C_69
REMARK   44  A    between atoms: O_71  and  C_72
REMARK   45  A    between atoms: O_75  and  C_76
REMARK                            x       y       z     vdW  Elec       q    Type
REMARK                         _______ _______ _______ _____ _____    ______ ____
ROOT
ATOM      1  C   UNL     1     147.920 168.231 186.393  0.00  0.00    -0.017 C 
ATOM      2  C   UNL     1     147.961 167.092 185.350  0.00  0.00    -0.045 C 
ATOM      3  C   UNL     1     148.254 165.699 185.935  0.00  0.00    -0.022 C 
ATOM      4  C   UNL     1     149.471 164.962 185.318  0.00  0.00    +0.079 C 
ATOM      5  C   UNL     1     149.247 164.328 183.942  0.00  0.00    -0.048 C 
ATOM      6  C   UNL     1     149.560 163.026 183.752  0.00  0.00    -0.082 C 
ATOM      7  C   UNL     1     149.491 162.221 182.484  0.00  0.00    -0.032 C 
ATOM      8  C   UNL     1     148.163 161.471 182.248  0.00  0.00    -0.038 C 
ATOM      9  C   UNL     1     147.803 160.486 183.391  0.00  0.00    -0.020 C 
ATOM     10  C   UNL     1     147.025 161.144 184.543  0.00  0.00    +0.077 C 
ATOM     11  C   UNL     1     146.757 160.148 185.640  0.00  0.00    -0.059 C 
ATOM     12  C   UNL     1     147.475 160.037 186.771  0.00  0.00    -0.082 C 
ATOM     13  C   UNL     1     147.070 159.121 187.900  0.00  0.00    +0.003 C 
ATOM     14  C   UNL     1     147.073 159.778 189.302  0.00  0.00    +0.112 C 
ATOM     15  O   UNL     1     146.580 161.139 189.210  0.00  0.00    -0.458 OA
ATOM     16  C   UNL     1     145.272 161.355 188.949  0.00  0.00    +0.332 C 
ATOM     17  O   UNL     1     144.392 160.524 188.819  0.00  0.00    -0.246 OA
ATOM     18  C   UNL     1     145.132 162.816 188.833  0.00  0.00    +0.022 C 
ATOM     19  C   UNL     1     144.070 163.412 188.276  0.00  0.00    -0.055 C 
ATOM     20  C   UNL     1     144.045 164.849 188.170  0.00  0.00    -0.065 C 
ATOM     21  C   UNL     1     143.016 165.593 187.739  0.00  0.00    -0.081 C 
ATOM     22  C   UNL     1     142.952 167.110 187.736  0.00  0.00    +0.003 C 
ATOM     23  C   UNL     1     144.234 167.937 188.045  0.00  0.00    +0.111 C 
ATOM     24  C   UNL     1     145.293 167.886 186.889  0.00  0.00    +0.020 C 
ATOM     25  C   UNL     1     146.736 168.174 187.405  0.00  0.00    +0.064 C 
ATOM     26  H   UNL     1     148.832 168.137 187.002  0.00  0.00    +0.032 HD
ATOM     27  H   UNL     1     148.719 167.349 184.605  0.00  0.00    +0.027 HD
ATOM     28  H   UNL     1     147.017 167.054 184.798  0.00  0.00    +0.027 HD
ATOM     29  H   UNL     1     148.456 165.802 187.008  0.00  0.00    +0.029 HD
ATOM     30  H   UNL     1     147.360 165.069 185.853  0.00  0.00    +0.029 HD
ATOM     31  H   UNL     1     149.721 164.169 186.037  0.00  0.00    +0.064 HD
ATOM     32  H   UNL     1     149.953 162.460 184.600  0.00  0.00    +0.057 HD
ATOM     33  H   UNL     1     150.318 161.500 182.509  0.00  0.00    +0.031 HD
ATOM     34  H   UNL     1     149.710 162.861 181.619  0.00  0.00    +0.031 HD
ATOM     35  H   UNL     1     147.359 162.208 182.132  0.00  0.00    +0.030 HD
ATOM     36  H   UNL     1     148.715 160.007 183.767  0.00  0.00    +0.030 HD
ATOM     37  H   UNL     1     147.173 159.687 182.976  0.00  0.00    +0.030 HD
ATOM     38  H   UNL     1     147.570 161.999 184.948  0.00  0.00    +0.064 HD
ATOM     39  H   UNL     1     145.876 159.524 185.499  0.00  0.00    +0.059 HD
ATOM     40  H   UNL     1     148.362 160.647 186.923  0.00  0.00    +0.057 HD
ATOM     41  H   UNL     1     147.675 158.212 187.878  0.00  0.00    +0.034 HD
ATOM     42  H   UNL     1     146.043 158.778 187.708  0.00  0.00    +0.034 HD
ATOM     43  H   UNL     1     146.391 159.206 189.945  0.00  0.00    +0.074 HD
ATOM     44  H   UNL     1     145.967 163.399 189.214  0.00  0.00    +0.069 HD
ATOM     45  H   UNL     1     143.230 162.832 187.906  0.00  0.00    +0.062 HD
ATOM     46  H   UNL     1     144.951 165.333 188.524  0.00  0.00    +0.061 HD
ATOM     47  H   UNL     1     142.106 165.095 187.410  0.00  0.00    +0.057 HD
ATOM     48  H   UNL     1     142.539 167.424 186.771  0.00  0.00    +0.034 HD
ATOM     49  H   UNL     1     142.194 167.374 188.485  0.00  0.00    +0.034 HD
ATOM     50  H   UNL     1     143.944 168.988 188.180  0.00  0.00    +0.074 HD
ATOM     51  H   UNL     1     145.304 166.872 186.473  0.00  0.00    +0.036 HD
ATOM     52  H   UNL     1     146.982 167.353 188.089  0.00  0.00    +0.060 HD
ENDROOT
BRANCH   1  53
ATOM     53  C   UNL     1     148.089 169.588 185.690  0.00  0.00    -0.060 C 
ATOM     54  H   UNL     1     147.569 169.581 184.725  0.00  0.00    +0.023 HD
ATOM     55  H   UNL     1     149.140 169.800 185.472  0.00  0.00    +0.023 HD
ATOM     56  H   UNL     1     147.683 170.418 186.269  0.00  0.00    +0.023 HD
ENDBRANCH   1  53
BRANCH   5  57
ATOM     57  C   UNL     1     148.722 165.212 182.845  0.00  0.00    -0.041 C 
ATOM     58  H   UNL     1     149.506 165.420 182.111  0.00  0.00    +0.028 HD
ATOM     59  H   UNL     1     147.876 164.735 182.339  0.00  0.00    +0.028 HD
ATOM     60  H   UNL     1     148.371 166.184 183.200  0.00  0.00    +0.028 HD
ENDBRANCH   5  57
BRANCH  24  61
ATOM     61  C   UNL     1     144.844 168.834 185.767  0.00  0.00    -0.057 C 
ATOM     62  H   UNL     1     144.910 168.359 184.784  0.00  0.00    +0.023 HD
ATOM     63  H   UNL     1     143.808 169.154 185.908  0.00  0.00    +0.023 HD
ATOM     64  H   UNL     1     145.479 169.720 185.717  0.00  0.00    +0.023 HD
ENDBRANCH  24  61
BRANCH   8  65
ATOM     65  C   UNL     1     148.265 160.699 180.926  0.00  0.00    -0.062 C 
ATOM     66  H   UNL     1     147.307 160.692 180.396  0.00  0.00    +0.023 HD
ATOM     67  H   UNL     1     148.565 159.660 181.101  0.00  0.00    +0.023 HD
ATOM     68  H   UNL     1     149.014 161.153 180.269  0.00  0.00    +0.023 HD
ENDBRANCH   8  65
BRANCH  14  69
ATOM     69  C   UNL     1     148.447 159.883 190.050  0.00  0.00    +0.020 C 
ATOM     70  H   UNL     1     148.463 159.112 190.832  0.00  0.00    +0.036 HD
BRANCH  69  71
ATOM     71  C   UNL     1     149.553 159.525 189.033  0.00  0.00    -0.057 C 
ATOM     72  H   UNL     1     150.204 160.376 188.817  0.00  0.00    +0.023 HD
ATOM     73  H   UNL     1     149.119 159.174 188.090  0.00  0.00    +0.023 HD
ATOM     74  H   UNL     1     150.214 158.736 189.408  0.00  0.00    +0.023 HD
ENDBRANCH  69  71
BRANCH  69  75
ATOM     75  C   UNL     1     148.665 161.273 190.708  0.00  0.00    +0.064 C 
ATOM     76  H   UNL     1     147.724 161.833 190.627  0.00  0.00    +0.060 HD
BRANCH  75  77
ATOM     77  C   UNL     1     149.798 162.153 190.117  0.00  0.00    -0.017 C 
ATOM     78  H   UNL     1     150.555 161.477 189.703  0.00  0.00    +0.032 HD
BRANCH  77  79
ATOM     79  C   UNL     1     149.300 162.953 188.899  0.00  0.00    -0.060 C 
ATOM     80  H   UNL     1     150.069 163.597 188.467  0.00  0.00    +0.023 HD
ATOM     81  H   UNL     1     148.462 163.599 189.186  0.00  0.00    +0.023 HD
ATOM     82  H   UNL     1     148.941 162.279 188.114  0.00  0.00    +0.023 HD
ENDBRANCH  77  79
BRANCH  77  83
ATOM     83  C   UNL     1     150.541 163.066 191.128  0.00  0.00    -0.045 C 
ATOM     84  H   UNL     1     151.375 163.522 190.579  0.00  0.00    +0.027 HD
ATOM     85  H   UNL     1     150.998 162.450 191.910  0.00  0.00    +0.027 HD
BRANCH  83  86
ATOM     86  C   UNL     1     149.719 164.170 191.803  0.00  0.00    -0.015 C 
ATOM     87  H   UNL     1     149.671 163.994 192.882  0.00  0.00    +0.030 HD
ATOM     88  H   UNL     1     148.677 164.119 191.476  0.00  0.00    +0.030 HD
BRANCH  86  89
ATOM     89  C   UNL     1     150.244 165.592 191.501  0.00  0.00    +0.109 C 
ATOM     90  H   UNL     1     150.908 165.906 192.318  0.00  0.00    +0.074 HD
BRANCH  89  91
ATOM     91  C   UNL     1     149.187 166.725 191.316  0.00  0.00    +0.031 C 
ATOM     92  H   UNL     1     148.229 166.235 191.540  0.00  0.00    +0.037 HD
BRANCH  91  93
ATOM     93  C   UNL     1     149.128 167.173 189.851  0.00  0.00    -0.056 C 
ATOM     94  H   UNL     1     148.253 167.804 189.659  0.00  0.00    +0.023 HD
ATOM     95  H   UNL     1     149.090 166.321 189.166  0.00  0.00    +0.023 HD
ATOM     96  H   UNL     1     149.999 167.781 189.595  0.00  0.00    +0.023 HD
ENDBRANCH  91  93
BRANCH  91  97
ATOM     97  C   UNL     1     149.331 167.928 192.299  0.00  0.00    +0.115 C 
ATOM     98  H   UNL     1     150.047 167.636 193.079  0.00  0.00    +0.074 HD
BRANCH  97  99
ATOM     99  C   UNL     1     149.787 169.293 191.683  0.00  0.00    +0.013 C 
ATOM    100  H   UNL     1     149.867 169.138 190.597  0.00  0.00    +0.038 HD
BRANCH  99 101
ATOM    101  C   UNL     1     151.197 169.718 192.108  0.00  0.00    -0.056 C 
ATOM    102  H   UNL     1     151.443 170.704 191.694  0.00  0.00    +0.024 HD
ATOM    103  H   UNL     1     151.947 169.012 191.738  0.00  0.00    +0.024 HD
ATOM    104  H   UNL     1     151.297 169.791 193.195  0.00  0.00    +0.024 HD
ENDBRANCH  99 101
BRANCH  99 105
ATOM    105  C   UNL     1     148.800 170.424 191.897  0.00  0.00    -0.064 C 
ATOM    106  C   UNL     1     149.172 171.610 192.401  0.00  0.00    -0.005 C 
ATOM    107  H   UNL     1     147.765 170.214 191.657  0.00  0.00    +0.059 HD
ATOM    108  H   UNL     1     150.224 171.762 192.645  0.00  0.00    +0.078 HD
BRANCH 106 109
ATOM    109  N   UNL     1     148.369 172.713 192.652  0.00  0.00    -0.284 N 
ATOM    110  C   UNL     1     148.032 173.191 193.910  0.00  0.00    +0.206 C 
ATOM    111  O   UNL     1     147.305 174.149 194.152  0.00  0.00    -0.279 OA
ATOM    112  H   UNL     1     148.475 172.618 194.734  0.00  0.00    +0.126 HD
BRANCH 109 113
ATOM    113  C   UNL     1     147.813 173.402 191.490  0.00  0.00    +0.007 C 
ATOM    114  H   UNL     1     148.024 174.475 191.510  0.00  0.00    +0.043 HD
ATOM    115  H   UNL     1     148.245 172.978 190.577  0.00  0.00    +0.043 HD
ATOM    116  H   UNL     1     146.727 173.262 191.483  0.00  0.00    +0.043 HD
ENDBRANCH 109 113
ENDBRANCH 106 109
ENDBRANCH  99 105
ENDBRANCH  97  99
BRANCH  97 117
ATOM    117  O   UNL     1     148.038 168.153 192.921  0.00  0.00    -0.461 OA
BRANCH 117 118
ATOM    118  C   UNL     1     147.501 167.115 193.616  0.00  0.00    +0.304 C 
ATOM    119  O   UNL     1     146.397 166.623 193.425  0.00  0.00    -0.251 OA
BRANCH 118 120
ATOM    120  C   UNL     1     148.468 166.647 194.659  0.00  0.00    +0.033 C 
ATOM    121  H   UNL     1     149.463 167.041 194.433  0.00  0.00    +0.034 HD
ATOM    122  H   UNL     1     148.163 167.019 195.642  0.00  0.00    +0.034 HD
ATOM    123  H   UNL     1     148.513 165.555 194.658  0.00  0.00    +0.034 HD
ENDBRANCH 118 120
ENDBRANCH 117 118
ENDBRANCH  97 117
ENDBRANCH  91  97
ENDBRANCH  89  91
BRANCH  89 124
ATOM    124  O   UNL     1     151.049 165.535 190.295  0.00  0.00    -0.460 OA
BRANCH 124 125
ATOM    125  C   UNL     1     152.302 166.074 190.385  0.00  0.00    +0.324 C 
ATOM    126  O   UNL     1     152.712 166.726 191.338  0.00  0.00    -0.249 OA
BRANCH 125 127
ATOM    127  C   UNL     1     153.116 165.716 189.128  0.00  0.00    +0.105 C 
ATOM    128  H   UNL     1     152.438 165.697 188.264  0.00  0.00    +0.058 HD
BRANCH 127 129
ATOM    129  C   UNL     1     153.649 164.298 189.364  0.00  0.00    -0.039 C 
ATOM    130  H   UNL     1     154.208 164.235 190.304  0.00  0.00    +0.025 HD
ATOM    131  H   UNL     1     154.304 163.973 188.550  0.00  0.00    +0.025 HD
ATOM    132  H   UNL     1     152.826 163.577 189.429  0.00  0.00    +0.025 HD
ENDBRANCH 127 129
BRANCH 127 133
ATOM    133  N   UNL     1     154.191 166.723 188.889  0.00  0.00    -0.296 NA
BRANCH 133 134
ATOM    134  C   UNL     1     155.515 166.226 189.271  0.00  0.00    -0.012 C 
ATOM    135  H   UNL     1     156.073 166.996 189.814  0.00  0.00    +0.039 HD
ATOM    136  H   UNL     1     156.106 165.925 188.400  0.00  0.00    +0.039 HD
ATOM    137  H   UNL     1     155.437 165.377 189.956  0.00  0.00    +0.039 HD
ENDBRANCH 133 134
BRANCH 133 138
ATOM    138  C   UNL     1     154.221 167.141 187.481  0.00  0.00    -0.012 C 
ATOM    139  H   UNL     1     155.177 167.619 187.242  0.00  0.00    +0.039 HD
ATOM    140  H   UNL     1     154.081 166.294 186.800  0.00  0.00    +0.039 HD
ATOM    141  H   UNL     1     153.451 167.888 187.264  0.00  0.00    +0.039 HD
ENDBRANCH 133 138
ENDBRANCH 127 133
ENDBRANCH 125 127
ENDBRANCH 124 125
ENDBRANCH  89 124
ENDBRANCH  86  89
ENDBRANCH  83  86
ENDBRANCH  77  83
ENDBRANCH  75  77
BRANCH  75 142
ATOM    142  O   UNL     1     148.910 161.058 192.099  0.00  0.00    -0.391 OA
ATOM    143  H   UNL     1     148.135 161.369 192.595  0.00  0.00    +0.210 HD
ENDBRANCH  75 142
ENDBRANCH  69  75
ENDBRANCH  14  69
BRANCH  25 144
ATOM    144  O   UNL     1     146.748 169.354 188.216  0.00  0.00    -0.391 OA
ATOM    145  H   UNL     1     146.727 169.086 189.148  0.00  0.00    +0.210 HD
ENDBRANCH  25 144
BRANCH  23 146
ATOM    146  O   UNL     1     144.818 167.453 189.269  0.00  0.00    -0.460 OA
BRANCH 146 147
ATOM    147  C   UNL     1     144.555 168.125 190.419  0.00  0.00    +0.327 C 
ATOM    148  O   UNL     1     145.312 168.936 190.945  0.00  0.00    -0.249 OA
BRANCH 147 149
ATOM    149  C   UNL     1     143.150 167.807 190.951  0.00  0.00    +0.131 C 
ATOM    150  H   UNL     1     142.597 167.407 190.089  0.00  0.00    +0.060 HD
BRANCH 149 151
ATOM    151  C   UNL     1     142.455 169.141 191.325  0.00  0.00    +0.073 C 
ATOM    152  H   UNL     1     142.446 169.270 192.416  0.00  0.00    +0.058 HD
ATOM    153  H   UNL     1     143.022 169.974 190.891  0.00  0.00    +0.058 HD
BRANCH 151 154
ATOM    154  O   UNL     1     141.109 169.217 190.833  0.00  0.00    -0.381 OA
BRANCH 154 155
ATOM    155  C   UNL     1     141.070 169.778 189.527  0.00  0.00    +0.037 C 
ATOM    156  H   UNL     1     142.051 169.699 189.049  0.00  0.00    +0.052 HD
ATOM    157  H   UNL     1     140.309 169.280 188.919  0.00  0.00    +0.052 HD
ATOM    158  H   UNL     1     140.811 170.837 189.616  0.00  0.00    +0.052 HD
ENDBRANCH 154 155
ENDBRANCH 151 154
ENDBRANCH 149 151
BRANCH 149 159
ATOM    159  N   UNL     1     143.203 166.760 192.022  0.00  0.00    -0.294 NA
BRANCH 159 160
ATOM    160  C   UNL     1     142.257 165.672 191.756  0.00  0.00    -0.012 C 
ATOM    161  H   UNL     1     142.003 165.115 192.666  0.00  0.00    +0.039 HD
ATOM    162  H   UNL     1     142.675 164.964 191.030  0.00  0.00    +0.039 HD
ATOM    163  H   UNL     1     141.332 166.045 191.306  0.00  0.00    +0.039 HD
ENDBRANCH 159 160
BRANCH 159 164
ATOM    164  C   UNL     1     142.944 167.319 193.350  0.00  0.00    -0.012 C 
ATOM    165  H   UNL     1     142.033 166.884 193.780  0.00  0.00    +0.039 HD
ATOM    166  H   UNL     1     143.746 167.077 194.054  0.00  0.00    +0.039 HD
ATOM    167  H   UNL     1     142.821 168.408 193.321  0.00  0.00    +0.039 HD
ENDBRANCH 159 164
ENDBRANCH 149 159
ENDBRANCH 147 149
ENDBRANCH 146 147
ENDBRANCH  23 146
BRANCH   4 168
ATOM    168  O   UNL     1     150.578 165.878 185.279  0.00  0.00    -0.376 OA
BRANCH 168 169
ATOM    169  C   UNL     1     151.824 165.270 185.601  0.00  0.00    +0.037 C 
ATOM    170  H   UNL     1     151.951 165.317 186.685  0.00  0.00    +0.052 HD
ATOM    171  H   UNL     1     152.652 165.814 185.141  0.00  0.00    +0.052 HD
ATOM    172  H   UNL     1     151.839 164.222 185.296  0.00  0.00    +0.052 HD
ENDBRANCH 168 169
ENDBRANCH   4 168
BRANCH  10 173
ATOM    173  O   UNL     1     145.769 161.589 184.010  0.00  0.00    -0.376 OA
BRANCH 173 174
ATOM    174  C   UNL     1     144.821 160.542 183.862  0.00  0.00    +0.037 C 
ATOM    175  H   UNL     1     144.946 160.045 182.897  0.00  0.00    +0.052 HD
ATOM    176  H   UNL     1     143.819 160.978 183.897  0.00  0.00    +0.052 HD
ATOM    177  H   UNL     1     144.912 159.823 184.680  0.00  0.00    +0.052 HD
ENDBRANCH 173 174
ENDBRANCH  10 173
TORSDOF 45
ENDMDL
MODEL 4
REMARK VINA RESULT:      -4.7      1.814      3.552
REMARK  Name = Aplyronine A_conf3
REMARK  45 active torsions:
REMARK  status: ('A' for Active; 'I' for Inactive)
REMARK    1  A    between atoms: C_1  and  C_2
REMARK    2  A    between atoms: C_5  and  O_75
REMARK    3  A    between atoms: C_6  and  C_74
REMARK    4  A    between atoms: C_9  and  C_73
REMARK    5  A    between atoms: C_11  and  O_71
REMARK    6  A    between atoms: C_15  and  C_39
REMARK    7  A    between atoms: C_24  and  O_29
REMARK    8  A    between atoms: C_25  and  C_28
REMARK    9  A    between atoms: C_26  and  O_27
REMARK   10  A    between atoms: O_29  and  C_30
REMARK   11  A    between atoms: C_30  and  C_32
REMARK   12  A    between atoms: C_32  and  C_33
REMARK   13  A    between atoms: C_32  and  N_36
REMARK   14  A    between atoms: C_33  and  O_34
REMARK   15  A    between atoms: O_34  and  C_35
REMARK   16  A    between atoms: N_36  and  C_37
REMARK   17  A    between atoms: N_36  and  C_38
REMARK   18  A    between atoms: C_39  and  C_40
REMARK   19  A    between atoms: C_39  and  C_41
REMARK   20  A    between atoms: C_41  and  C_42
REMARK   21  A    between atoms: C_41  and  O_70
REMARK   22  A    between atoms: C_42  and  C_43
REMARK   23  A    between atoms: C_42  and  C_44
REMARK   24  A    between atoms: C_44  and  C_45
REMARK   25  A    between atoms: C_45  and  C_46
REMARK   26  A    between atoms: C_46  and  C_47
REMARK   27  A    between atoms: C_46  and  O_62
REMARK   28  A    between atoms: C_47  and  C_48
REMARK   29  A    between atoms: C_47  and  C_49
REMARK   30  A    between atoms: C_49  and  C_50
REMARK   31  A    between atoms: C_49  and  O_58
REMARK   32  A    between atoms: C_50  and  C_51
REMARK   33  A    between atoms: C_50  and  C_52
REMARK   34  A    between atoms: C_53  and  N_54
REMARK   35  A    between atoms: N_54  and  C_55
REMARK   36  A    between atoms: O_58  and  C_59
REMARK   37  A    between atoms: C_59  and  C_61
REMARK   38  A    between atoms: O_62  and  C_63
REMARK   39  A    between atoms: C_63  and  C_65
REMARK   40  A    between atoms: C_65  and  C_66
REMARK   41  A    between atoms: C_65  and  N_67
REMARK   42  A    between atoms: N_67  and  C_68
REMARK   43  A    between atoms: N_67  and  C_69
REMARK   44  A    between atoms: O_71  and  C_72
REMARK   45  A    between atoms: O_75  and  C_76
REMARK                            x       y       z     vdW  Elec       q    Type
REMARK                         _______ _______ _______ _____ _____    ______ ____
ROOT
ATOM      1  C   UNL     1     155.035 165.880 188.534  0.00  0.00    -0.017 C 
ATOM      2  C   UNL     1     153.966 164.881 189.031  0.00  0.00    -0.045 C 
ATOM      3  C   UNL     1     152.513 165.315 188.765  0.00  0.00    -0.022 C 
ATOM      4  C   UNL     1     151.600 165.380 190.016  0.00  0.00    +0.079 C 
ATOM      5  C   UNL     1     151.092 164.037 190.550  0.00  0.00    -0.048 C 
ATOM      6  C   UNL     1     149.767 163.863 190.756  0.00  0.00    -0.082 C 
ATOM      7  C   UNL     1     149.058 162.669 191.332  0.00  0.00    -0.032 C 
ATOM      8  C   UNL     1     148.578 161.625 190.303  0.00  0.00    -0.038 C 
ATOM      9  C   UNL     1     147.616 162.210 189.237  0.00  0.00    -0.020 C 
ATOM     10  C   UNL     1     148.342 162.815 188.023  0.00  0.00    +0.077 C 
ATOM     11  C   UNL     1     147.355 163.414 187.057  0.00  0.00    -0.059 C 
ATOM     12  C   UNL     1     147.054 164.721 186.975  0.00  0.00    -0.082 C 
ATOM     13  C   UNL     1     146.168 165.280 185.889  0.00  0.00    +0.003 C 
ATOM     14  C   UNL     1     146.737 166.525 185.165  0.00  0.00    +0.112 C 
ATOM     15  O   UNL     1     148.168 166.378 184.981  0.00  0.00    -0.458 OA
ATOM     16  C   UNL     1     148.635 165.467 184.098  0.00  0.00    +0.332 C 
ATOM     17  O   UNL     1     147.988 164.747 183.361  0.00  0.00    -0.246 OA
ATOM     18  C   UNL     1     150.101 165.512 184.227  0.00  0.00    +0.022 C 
ATOM     19  C   UNL     1     150.910 164.553 183.758  0.00  0.00    -0.055 C 
ATOM     20  C   UNL     1     152.331 164.667 183.971  0.00  0.00    -0.065 C 
ATOM     21  C   UNL     1     153.274 163.852 183.475  0.00  0.00    -0.081 C 
ATOM     22  C   UNL     1     154.774 164.040 183.606  0.00  0.00    +0.003 C 
ATOM     23  C   UNL     1     155.334 165.130 184.566  0.00  0.00    +0.111 C 
ATOM     24  C   UNL     1     155.152 164.769 186.082  0.00  0.00    +0.020 C 
ATOM     25  C   UNL     1     155.143 166.038 186.988  0.00  0.00    +0.064 C 
ATOM     26  H   UNL     1     154.743 166.872 188.912  0.00  0.00    +0.032 HD
ATOM     27  H   UNL     1     154.119 164.734 190.104  0.00  0.00    +0.027 HD
ATOM     28  H   UNL     1     154.132 163.899 188.579  0.00  0.00    +0.027 HD
ATOM     29  H   UNL     1     152.520 166.320 188.324  0.00  0.00    +0.029 HD
ATOM     30  H   UNL     1     152.063 164.656 188.013  0.00  0.00    +0.029 HD
ATOM     31  H   UNL     1     150.737 165.989 189.710  0.00  0.00    +0.064 HD
ATOM     32  H   UNL     1     149.094 164.690 190.520  0.00  0.00    +0.057 HD
ATOM     33  H   UNL     1     148.197 163.043 191.901  0.00  0.00    +0.031 HD
ATOM     34  H   UNL     1     149.692 162.180 192.083  0.00  0.00    +0.031 HD
ATOM     35  H   UNL     1     149.455 161.191 189.807  0.00  0.00    +0.030 HD
ATOM     36  H   UNL     1     146.958 162.954 189.702  0.00  0.00    +0.030 HD
ATOM     37  H   UNL     1     146.969 161.401 188.869  0.00  0.00    +0.030 HD
ATOM     38  H   UNL     1     149.060 163.577 188.335  0.00  0.00    +0.064 HD
ATOM     39  H   UNL     1     146.912 162.714 186.350  0.00  0.00    +0.059 HD
ATOM     40  H   UNL     1     147.482 165.430 187.679  0.00  0.00    +0.057 HD
ATOM     41  H   UNL     1     145.166 165.465 186.282  0.00  0.00    +0.034 HD
ATOM     42  H   UNL     1     146.030 164.500 185.126  0.00  0.00    +0.034 HD
ATOM     43  H   UNL     1     146.267 166.585 184.174  0.00  0.00    +0.074 HD
ATOM     44  H   UNL     1     150.499 166.375 184.753  0.00  0.00    +0.069 HD
ATOM     45  H   UNL     1     150.515 163.697 183.221  0.00  0.00    +0.062 HD
ATOM     46  H   UNL     1     152.622 165.533 184.559  0.00  0.00    +0.061 HD
ATOM     47  H   UNL     1     152.969 163.002 182.868  0.00  0.00    +0.057 HD
ATOM     48  H   UNL     1     155.210 163.068 183.864  0.00  0.00    +0.034 HD
ATOM     49  H   UNL     1     155.133 164.268 182.594  0.00  0.00    +0.034 HD
ATOM     50  H   UNL     1     156.412 165.235 184.380  0.00  0.00    +0.074 HD
ATOM     51  H   UNL     1     154.177 164.284 186.209  0.00  0.00    +0.036 HD
ATOM     52  H   UNL     1     154.255 166.612 186.695  0.00  0.00    +0.060 HD
ENDROOT
BRANCH   1  53
ATOM     53  C   UNL     1     156.374 165.603 189.239  0.00  0.00    -0.060 C 
ATOM     54  H   UNL     1     156.895 164.773 188.745  0.00  0.00    +0.023 HD
ATOM     55  H   UNL     1     156.227 165.299 190.279  0.00  0.00    +0.023 HD
ATOM     56  H   UNL     1     157.047 166.461 189.222  0.00  0.00    +0.023 HD
ENDBRANCH   1  53
BRANCH   5  57
ATOM     57  C   UNL     1     152.116 162.980 190.862  0.00  0.00    -0.041 C 
ATOM     58  H   UNL     1     153.126 163.364 190.696  0.00  0.00    +0.028 HD
ATOM     59  H   UNL     1     152.023 162.653 191.903  0.00  0.00    +0.028 HD
ATOM     60  H   UNL     1     152.021 162.087 190.240  0.00  0.00    +0.028 HD
ENDBRANCH   5  57
BRANCH  24  61
ATOM     61  C   UNL     1     156.225 163.743 186.476  0.00  0.00    -0.057 C 
ATOM     62  H   UNL     1     155.782 162.808 186.830  0.00  0.00    +0.023 HD
ATOM     63  H   UNL     1     156.874 163.501 185.631  0.00  0.00    +0.023 HD
ATOM     64  H   UNL     1     156.845 164.112 187.296  0.00  0.00    +0.023 HD
ENDBRANCH  24  61
BRANCH   8  65
ATOM     65  C   UNL     1     147.873 160.486 191.052  0.00  0.00    -0.062 C 
ATOM     66  H   UNL     1     146.875 160.789 191.386  0.00  0.00    +0.023 HD
ATOM     67  H   UNL     1     148.449 160.181 191.933  0.00  0.00    +0.023 HD
ATOM     68  H   UNL     1     147.764 159.607 190.408  0.00  0.00    +0.023 HD
ENDBRANCH   8  65
BRANCH  14  69
ATOM     69  C   UNL     1     146.549 167.917 185.860  0.00  0.00    +0.020 C 
ATOM     70  H   UNL     1     146.722 167.781 186.936  0.00  0.00    +0.036 HD
BRANCH  69  71
ATOM     71  C   UNL     1     147.663 168.849 185.333  0.00  0.00    -0.057 C 
ATOM     72  H   UNL     1     147.319 169.471 184.503  0.00  0.00    +0.023 HD
ATOM     73  H   UNL     1     148.530 168.270 184.995  0.00  0.00    +0.023 HD
ATOM     74  H   UNL     1     148.011 169.547 186.102  0.00  0.00    +0.023 HD
ENDBRANCH  69  71
BRANCH  69  75
ATOM     75  C   UNL     1     145.127 168.505 185.649  0.00  0.00    +0.064 C 
ATOM     76  H   UNL     1     144.861 168.367 184.592  0.00  0.00    +0.060 HD
BRANCH  75  77
ATOM     77  C   UNL     1     144.934 170.004 185.999  0.00  0.00    -0.017 C 
ATOM     78  H   UNL     1     145.843 170.532 185.688  0.00  0.00    +0.032 HD
BRANCH  77  79
ATOM     79  C   UNL     1     143.820 170.635 185.143  0.00  0.00    -0.060 C 
ATOM     80  H   UNL     1     142.836 170.201 185.333  0.00  0.00    +0.023 HD
ATOM     81  H   UNL     1     144.035 170.492 184.077  0.00  0.00    +0.023 HD
ATOM     82  H   UNL     1     143.758 171.713 185.323  0.00  0.00    +0.023 HD
ENDBRANCH  77  79
BRANCH  77  83
ATOM     83  C   UNL     1     144.741 170.326 187.504  0.00  0.00    -0.045 C 
ATOM     84  H   UNL     1     144.094 169.536 187.910  0.00  0.00    +0.027 HD
ATOM     85  H   UNL     1     144.177 171.259 187.610  0.00  0.00    +0.027 HD
BRANCH  83  86
ATOM     86  C   UNL     1     146.007 170.427 188.362  0.00  0.00    -0.015 C 
ATOM     87  H   UNL     1     146.147 171.459 188.702  0.00  0.00    +0.030 HD
ATOM     88  H   UNL     1     146.893 170.223 187.754  0.00  0.00    +0.030 HD
BRANCH  86  89
ATOM     89  C   UNL     1     146.014 169.449 189.558  0.00  0.00    +0.109 C 
ATOM     90  H   UNL     1     145.632 169.971 190.447  0.00  0.00    +0.074 HD
BRANCH  89  91
ATOM     91  C   UNL     1     147.382 168.814 189.961  0.00  0.00    +0.031 C 
ATOM     92  H   UNL     1     148.121 169.584 189.696  0.00  0.00    +0.037 HD
BRANCH  91  93
ATOM     93  C   UNL     1     147.683 167.588 189.092  0.00  0.00    -0.056 C 
ATOM     94  H   UNL     1     148.621 167.708 188.539  0.00  0.00    +0.023 HD
ATOM     95  H   UNL     1     146.884 167.395 188.370  0.00  0.00    +0.023 HD
ATOM     96  H   UNL     1     147.811 166.695 189.709  0.00  0.00    +0.023 HD
ENDBRANCH  91  93
BRANCH  91  97
ATOM     97  C   UNL     1     147.548 168.518 191.483  0.00  0.00    +0.115 C 
ATOM     98  H   UNL     1     146.682 168.951 192.003  0.00  0.00    +0.074 HD
BRANCH  97  99
ATOM     99  C   UNL     1     147.686 167.016 191.900  0.00  0.00    +0.013 C 
ATOM    100  H   UNL     1     147.810 166.441 190.971  0.00  0.00    +0.038 HD
BRANCH  99 101
ATOM    101  C   UNL     1     146.417 166.435 192.535  0.00  0.00    -0.056 C 
ATOM    102  H   UNL     1     146.121 167.023 193.412  0.00  0.00    +0.024 HD
ATOM    103  H   UNL     1     146.584 165.407 192.872  0.00  0.00    +0.024 HD
ATOM    104  H   UNL     1     145.570 166.439 191.842  0.00  0.00    +0.024 HD
ENDBRANCH  99 101
BRANCH  99 105
ATOM    105  C   UNL     1     148.897 166.726 192.765  0.00  0.00    -0.064 C 
ATOM    106  C   UNL     1     148.824 165.958 193.863  0.00  0.00    -0.005 C 
ATOM    107  H   UNL     1     149.825 167.204 192.474  0.00  0.00    +0.059 HD
ATOM    108  H   UNL     1     147.860 165.519 194.123  0.00  0.00    +0.078 HD
BRANCH 106 109
ATOM    109  N   UNL     1     149.849 165.629 194.736  0.00  0.00    -0.284 N 
ATOM    110  C   UNL     1     149.986 166.108 196.031  0.00  0.00    +0.206 C 
ATOM    111  O   UNL     1     150.898 165.848 196.810  0.00  0.00    -0.279 OA
ATOM    112  H   UNL     1     149.182 166.790 196.338  0.00  0.00    +0.126 HD
BRANCH 109 113
ATOM    113  C   UNL     1     150.881 164.727 194.232  0.00  0.00    +0.007 C 
ATOM    114  H   UNL     1     151.792 164.766 194.838  0.00  0.00    +0.043 HD
ATOM    115  H   UNL     1     150.501 163.700 194.241  0.00  0.00    +0.043 HD
ATOM    116  H   UNL     1     151.133 165.017 193.207  0.00  0.00    +0.043 HD
ENDBRANCH 109 113
ENDBRANCH 106 109
ENDBRANCH  99 105
ENDBRANCH  97  99
BRANCH  97 117
ATOM    117  O   UNL     1     148.747 169.198 191.941  0.00  0.00    -0.461 OA
BRANCH 117 118
ATOM    118  C   UNL     1     148.665 170.545 192.110  0.00  0.00    +0.304 C 
ATOM    119  O   UNL     1     147.687 171.154 192.523  0.00  0.00    -0.251 OA
BRANCH 118 120
ATOM    120  C   UNL     1     149.960 171.186 191.723  0.00  0.00    +0.033 C 
ATOM    121  H   UNL     1     149.991 171.314 190.637  0.00  0.00    +0.034 HD
ATOM    122  H   UNL     1     150.041 172.172 192.190  0.00  0.00    +0.034 HD
ATOM    123  H   UNL     1     150.794 170.547 192.025  0.00  0.00    +0.034 HD
ENDBRANCH 118 120
ENDBRANCH 117 118
ENDBRANCH  97 117
ENDBRANCH  91  97
ENDBRANCH  89  91
BRANCH  89 124
ATOM    124  O   UNL     1     145.091 168.367 189.269  0.00  0.00    -0.460 OA
BRANCH 124 125
ATOM    125  C   UNL     1     144.144 168.117 190.222  0.00  0.00    +0.324 C 
ATOM    126  O   UNL     1     143.998 168.773 191.247  0.00  0.00    -0.249 OA
BRANCH 125 127
ATOM    127  C   UNL     1     143.283 166.912 189.800  0.00  0.00    +0.105 C 
ATOM    128  H   UNL     1     142.637 166.630 190.641  0.00  0.00    +0.058 HD
BRANCH 127 129
ATOM    129  C   UNL     1     144.268 165.768 189.534  0.00  0.00    -0.039 C 
ATOM    130  H   UNL     1     144.438 165.632 188.460  0.00  0.00    +0.025 HD
ATOM    131  H   UNL     1     143.908 164.821 189.950  0.00  0.00    +0.025 HD
ATOM    132  H   UNL     1     145.242 165.977 189.991  0.00  0.00    +0.025 HD
ENDBRANCH 127 129
BRANCH 127 133
ATOM    133  N   UNL     1     142.436 167.255 188.620  0.00  0.00    -0.296 NA
BRANCH 133 134
ATOM    134  C   UNL     1     141.587 166.137 188.201  0.00  0.00    -0.012 C 
ATOM    135  H   UNL     1     141.004 165.758 189.047  0.00  0.00    +0.039 HD
ATOM    136  H   UNL     1     142.174 165.309 187.790  0.00  0.00    +0.039 HD
ATOM    137  H   UNL     1     140.854 166.455 187.454  0.00  0.00    +0.039 HD
ENDBRANCH 133 134
BRANCH 133 138
ATOM    138  C   UNL     1     141.591 168.424 188.898  0.00  0.00    -0.012 C 
ATOM    139  H   UNL     1     142.193 169.339 188.908  0.00  0.00    +0.039 HD
ATOM    140  H   UNL     1     140.798 168.542 188.151  0.00  0.00    +0.039 HD
ATOM    141  H   UNL     1     141.127 168.361 189.887  0.00  0.00    +0.039 HD
ENDBRANCH 133 138
ENDBRANCH 127 133
ENDBRANCH 125 127
ENDBRANCH 124 125
ENDBRANCH  89 124
ENDBRANCH  86  89
ENDBRANCH  83  86
ENDBRANCH  77  83
ENDBRANCH  75  77
BRANCH  75 142
ATOM    142  O   UNL     1     144.216 167.718 186.419  0.00  0.00    -0.391 OA
ATOM    143  H   UNL     1     144.719 167.006 186.849  0.00  0.00    +0.210 HD
ENDBRANCH  75 142
ENDBRANCH  69  75
ENDBRANCH  14  69
BRANCH  25 144
ATOM    144  O   UNL     1     156.255 166.882 186.673  0.00  0.00    -0.391 OA
ATOM    145  H   UNL     1     156.700 167.124 187.500  0.00  0.00    +0.210 HD
ENDBRANCH  25 144
BRANCH  23 146
ATOM    146  O   UNL     1     154.686 166.383 184.277  0.00  0.00    -0.460 OA
BRANCH 146 147
ATOM    147  C   UNL     1     155.037 167.045 183.145  0.00  0.00    +0.327 C 
ATOM    148  O   UNL     1     154.314 167.184 182.162  0.00  0.00    -0.249 OA
BRANCH 147 149
ATOM    149  C   UNL     1     156.433 167.673 183.266  0.00  0.00    +0.131 C 
ATOM    150  H   UNL     1     156.907 167.164 184.118  0.00  0.00    +0.060 HD
BRANCH 149 151
ATOM    151  C   UNL     1     156.268 169.154 183.691  0.00  0.00    +0.073 C 
ATOM    152  H   UNL     1     156.665 169.818 182.911  0.00  0.00    +0.058 HD
ATOM    153  H   UNL     1     155.200 169.375 183.809  0.00  0.00    +0.058 HD
BRANCH 151 154
ATOM    154  O   UNL     1     156.921 169.447 184.935  0.00  0.00    -0.381 OA
BRANCH 154 155
ATOM    155  C   UNL     1     156.991 170.849 185.162  0.00  0.00    +0.037 C 
ATOM    156  H   UNL     1     156.888 171.067 186.228  0.00  0.00    +0.052 HD
ATOM    157  H   UNL     1     157.933 171.251 184.780  0.00  0.00    +0.052 HD
ATOM    158  H   UNL     1     156.164 171.324 184.627  0.00  0.00    +0.052 HD
ENDBRANCH 154 155
ENDBRANCH 151 154
ENDBRANCH 149 151
BRANCH 149 159
ATOM    159  N   UNL     1     157.247 167.419 182.034  0.00  0.00    -0.294 NA
BRANCH 159 160
ATOM    160  C   UNL     1     158.519 166.765 182.357  0.00  0.00    -0.012 C 
ATOM    161  H   UNL     1     159.345 167.483 182.433  0.00  0.00    +0.039 HD
ATOM    162  H   UNL     1     158.781 166.027 181.589  0.00  0.00    +0.039 HD
ATOM    163  H   UNL     1     158.456 166.206 183.296  0.00  0.00    +0.039 HD
ENDBRANCH 159 160
BRANCH 159 164
ATOM    164  C   UNL     1     157.507 168.650 181.285  0.00  0.00    -0.012 C 
ATOM    165  H   UNL     1     156.597 168.991 180.776  0.00  0.00    +0.039 HD
ATOM    166  H   UNL     1     157.800 169.472 181.947  0.00  0.00    +0.039 HD
ATOM    167  H   UNL     1     158.290 168.515 180.530  0.00  0.00    +0.039 HD
ENDBRANCH 159 164
ENDBRANCH 149 159
ENDBRANCH 147 149
ENDBRANCH 146 147
ENDBRANCH  23 146
BRANCH   4 168
ATOM    168  O   UNL     1     152.298 166.102 191.044  0.00  0.00    -0.376 OA
BRANCH 168 169
ATOM    169  C   UNL     1     152.072 167.507 190.998  0.00  0.00    +0.037 C 
ATOM    170  H   UNL     1     151.362 167.759 191.789  0.00  0.00    +0.052 HD
ATOM    171  H   UNL     1     151.630 167.798 190.043  0.00  0.00    +0.052 HD
ATOM    172  H   UNL     1     152.997 168.059 191.175  0.00  0.00    +0.052 HD
ENDBRANCH 168 169
ENDBRANCH   4 168
BRANCH  10 173
ATOM    173  O   UNL     1     149.039 161.746 187.367  0.00  0.00    -0.376 OA
BRANCH 173 174
ATOM    174  C   UNL     1     150.207 162.175 186.684  0.00  0.00    +0.037 C 
ATOM    175  H   UNL     1     150.526 161.424 185.958  0.00  0.00    +0.052 HD
ATOM    176  H   UNL     1     151.007 162.305 187.419  0.00  0.00    +0.052 HD
ATOM    177  H   UNL     1     150.034 163.137 186.192  0.00  0.00    +0.052 HD
ENDBRANCH 173 174
ENDBRANCH  10 173
TORSDOF 45
ENDMDL
MODEL 5
REMARK VINA RESULT:      -4.7      3.271      5.242
REMARK  Name = Aplyronine A_conf3
REMARK  45 active torsions:
REMARK  status: ('A' for Active; 'I' for Inactive)
REMARK    1  A    between atoms: C_1  and  C_2
REMARK    2  A    between atoms: C_5  and  O_75
REMARK    3  A    between atoms: C_6  and  C_74
REMARK    4  A    between atoms: C_9  and  C_73
REMARK    5  A    between atoms: C_11  and  O_71
REMARK    6  A    between atoms: C_15  and  C_39
REMARK    7  A    between atoms: C_24  and  O_29
REMARK    8  A    between atoms: C_25  and  C_28
REMARK    9  A    between atoms: C_26  and  O_27
REMARK   10  A    between atoms: O_29  and  C_30
REMARK   11  A    between atoms: C_30  and  C_32
REMARK   12  A    between atoms: C_32  and  C_33
REMARK   13  A    between atoms: C_32  and  N_36
REMARK   14  A    between atoms: C_33  and  O_34
REMARK   15  A    between atoms: O_34  and  C_35
REMARK   16  A    between atoms: N_36  and  C_37
REMARK   17  A    between atoms: N_36  and  C_38
REMARK   18  A    between atoms: C_39  and  C_40
REMARK   19  A    between atoms: C_39  and  C_41
REMARK   20  A    between atoms: C_41  and  C_42
REMARK   21  A    between atoms: C_41  and  O_70
REMARK   22  A    between atoms: C_42  and  C_43
REMARK   23  A    between atoms: C_42  and  C_44
REMARK   24  A    between atoms: C_44  and  C_45
REMARK   25  A    between atoms: C_45  and  C_46
REMARK   26  A    between atoms: C_46  and  C_47
REMARK   27  A    between atoms: C_46  and  O_62
REMARK   28  A    between atoms: C_47  and  C_48
REMARK   29  A    between atoms: C_47  and  C_49
REMARK   30  A    between atoms: C_49  and  C_50
REMARK   31  A    between atoms: C_49  and  O_58
REMARK   32  A    between atoms: C_50  and  C_51
REMARK   33  A    between atoms: C_50  and  C_52
REMARK   34  A    between atoms: C_53  and  N_54
REMARK   35  A    between atoms: N_54  and  C_55
REMARK   36  A    between atoms: O_58  and  C_59
REMARK   37  A    between atoms: C_59  and  C_61
REMARK   38  A    between atoms: O_62  and  C_63
REMARK   39  A    between atoms: C_63  and  C_65
REMARK   40  A    between atoms: C_65  and  C_66
REMARK   41  A    between atoms: C_65  and  N_67
REMARK   42  A    between atoms: N_67  and  C_68
REMARK   43  A    between atoms: N_67  and  C_69
REMARK   44  A    between atoms: O_71  and  C_72
REMARK   45  A    between atoms: O_75  and  C_76
REMARK                            x       y       z     vdW  Elec       q    Type
REMARK                         _______ _______ _______ _____ _____    ______ ____
ROOT
ATOM      1  C   UNL     1     154.091 166.655 188.951  0.00  0.00    -0.017 C 
ATOM      2  C   UNL     1     152.905 166.435 189.916  0.00  0.00    -0.045 C 
ATOM      3  C   UNL     1     151.630 167.218 189.552  0.00  0.00    -0.022 C 
ATOM      4  C   UNL     1     151.076 168.140 190.668  0.00  0.00    +0.079 C 
ATOM      5  C   UNL     1     150.314 167.443 191.800  0.00  0.00    -0.048 C 
ATOM      6  C   UNL     1     149.078 167.877 192.133  0.00  0.00    -0.082 C 
ATOM      7  C   UNL     1     148.184 167.396 193.242  0.00  0.00    -0.032 C 
ATOM      8  C   UNL     1     147.197 166.274 192.858  0.00  0.00    -0.038 C 
ATOM      9  C   UNL     1     146.250 166.661 191.693  0.00  0.00    -0.020 C 
ATOM     10  C   UNL     1     146.842 166.378 190.302  0.00  0.00    +0.077 C 
ATOM     11  C   UNL     1     145.897 166.828 189.220  0.00  0.00    -0.059 C 
ATOM     12  C   UNL     1     145.995 167.985 188.544  0.00  0.00    -0.082 C 
ATOM     13  C   UNL     1     145.106 168.315 187.370  0.00  0.00    +0.003 C 
ATOM     14  C   UNL     1     145.853 168.826 186.114  0.00  0.00    +0.112 C 
ATOM     15  O   UNL     1     147.096 168.098 185.948  0.00  0.00    -0.458 OA
ATOM     16  C   UNL     1     147.060 166.798 185.579  0.00  0.00    +0.332 C 
ATOM     17  O   UNL     1     146.081 166.129 185.306  0.00  0.00    -0.246 OA
ATOM     18  C   UNL     1     148.462 166.348 185.595  0.00  0.00    +0.022 C 
ATOM     19  C   UNL     1     148.820 165.057 185.595  0.00  0.00    -0.055 C 
ATOM     20  C   UNL     1     150.219 164.716 185.655  0.00  0.00    -0.065 C 
ATOM     21  C   UNL     1     150.739 163.484 185.556  0.00  0.00    -0.081 C 
ATOM     22  C   UNL     1     152.216 163.140 185.505  0.00  0.00    +0.003 C 
ATOM     23  C   UNL     1     153.275 164.241 185.803  0.00  0.00    +0.111 C 
ATOM     24  C   UNL     1     153.328 164.653 187.316  0.00  0.00    +0.020 C 
ATOM     25  C   UNL     1     153.901 166.090 187.511  0.00  0.00    +0.064 C 
ATOM     26  H   UNL     1     154.203 167.743 188.827  0.00  0.00    +0.032 HD
ATOM     27  H   UNL     1     153.236 166.712 190.921  0.00  0.00    +0.027 HD
ATOM     28  H   UNL     1     152.662 165.369 189.976  0.00  0.00    +0.027 HD
ATOM     29  H   UNL     1     151.845 167.859 188.688  0.00  0.00    +0.029 HD
ATOM     30  H   UNL     1     150.849 166.520 189.227  0.00  0.00    +0.029 HD
ATOM     31  H   UNL     1     150.393 168.832 190.155  0.00  0.00    +0.064 HD
ATOM     32  H   UNL     1     148.652 168.709 191.568  0.00  0.00    +0.057 HD
ATOM     33  H   UNL     1     147.622 168.265 193.610  0.00  0.00    +0.031 HD
ATOM     34  H   UNL     1     148.788 167.076 194.101  0.00  0.00    +0.031 HD
ATOM     35  H   UNL     1     147.771 165.380 192.582  0.00  0.00    +0.030 HD
ATOM     36  H   UNL     1     145.966 167.717 191.783  0.00  0.00    +0.030 HD
ATOM     37  H   UNL     1     145.324 166.075 191.787  0.00  0.00    +0.030 HD
ATOM     38  H   UNL     1     147.807 166.875 190.177  0.00  0.00    +0.064 HD
ATOM     39  H   UNL     1     145.120 166.114 188.953  0.00  0.00    +0.059 HD
ATOM     40  H   UNL     1     146.761 168.712 188.804  0.00  0.00    +0.057 HD
ATOM     41  H   UNL     1     144.318 169.005 187.680  0.00  0.00    +0.034 HD
ATOM     42  H   UNL     1     144.575 167.398 187.076  0.00  0.00    +0.034 HD
ATOM     43  H   UNL     1     145.219 168.630 185.239  0.00  0.00    +0.074 HD
ATOM     44  H   UNL     1     149.208 167.138 185.628  0.00  0.00    +0.069 HD
ATOM     45  H   UNL     1     148.077 164.268 185.550  0.00  0.00    +0.062 HD
ATOM     46  H   UNL     1     150.879 165.574 185.747  0.00  0.00    +0.061 HD
ATOM     47  H   UNL     1     150.066 162.636 185.441  0.00  0.00    +0.057 HD
ATOM     48  H   UNL     1     152.383 162.285 186.170  0.00  0.00    +0.034 HD
ATOM     49  H   UNL     1     152.397 162.767 184.489  0.00  0.00    +0.034 HD
ATOM     50  H   UNL     1     154.266 163.851 185.533  0.00  0.00    +0.074 HD
ATOM     51  H   UNL     1     152.304 164.666 187.708  0.00  0.00    +0.036 HD
ATOM     52  H   UNL     1     153.187 166.768 187.028  0.00  0.00    +0.060 HD
ENDROOT
BRANCH   1  53
ATOM     53  C   UNL     1     155.403 166.229 189.631  0.00  0.00    -0.060 C 
ATOM     54  H   UNL     1     155.632 165.185 189.388  0.00  0.00    +0.023 HD
ATOM     55  H   UNL     1     155.326 166.281 190.721  0.00  0.00    +0.023 HD
ATOM     56  H   UNL     1     156.257 166.829 189.316  0.00  0.00    +0.023 HD
ENDBRANCH   1  53
BRANCH   5  57
ATOM     57  C   UNL     1     151.012 166.323 192.522  0.00  0.00    -0.041 C 
ATOM     58  H   UNL     1     150.294 165.554 192.821  0.00  0.00    +0.028 HD
ATOM     59  H   UNL     1     151.776 165.871 191.881  0.00  0.00    +0.028 HD
ATOM     60  H   UNL     1     151.516 166.644 193.437  0.00  0.00    +0.028 HD
ENDBRANCH   5  57
BRANCH  24  61
ATOM     61  C   UNL     1     154.098 163.576 188.093  0.00  0.00    -0.057 C 
ATOM     62  H   UNL     1     153.602 163.321 189.034  0.00  0.00    +0.023 HD
ATOM     63  H   UNL     1     154.192 162.655 187.511  0.00  0.00    +0.023 HD
ATOM     64  H   UNL     1     155.099 163.920 188.364  0.00  0.00    +0.023 HD
ENDBRANCH  24  61
BRANCH   8  65
ATOM     65  C   UNL     1     146.362 165.911 194.093  0.00  0.00    -0.062 C 
ATOM     66  H   UNL     1     145.772 166.766 194.438  0.00  0.00    +0.023 HD
ATOM     67  H   UNL     1     147.004 165.584 194.918  0.00  0.00    +0.023 HD
ATOM     68  H   UNL     1     145.671 165.091 193.867  0.00  0.00    +0.023 HD
ENDBRANCH   8  65
BRANCH  14  69
ATOM     69  C   UNL     1     146.252 170.342 186.074  0.00  0.00    +0.020 C 
ATOM     70  H   UNL     1     146.442 170.666 187.107  0.00  0.00    +0.036 HD
BRANCH  69  71
ATOM     71  C   UNL     1     147.590 170.446 185.310  0.00  0.00    -0.057 C 
ATOM     72  H   UNL     1     147.939 169.471 184.959  0.00  0.00    +0.023 HD
ATOM     73  H   UNL     1     148.369 170.884 185.944  0.00  0.00    +0.023 HD
ATOM     74  H   UNL     1     147.503 171.070 184.414  0.00  0.00    +0.023 HD
ENDBRANCH  69  71
BRANCH  69  75
ATOM     75  C   UNL     1     145.141 171.238 185.462  0.00  0.00    +0.064 C 
ATOM     76  H   UNL     1     145.629 171.993 184.833  0.00  0.00    +0.060 HD
BRANCH  75  77
ATOM     77  C   UNL     1     144.212 171.976 186.462  0.00  0.00    -0.017 C 
ATOM     78  H   UNL     1     143.925 172.929 186.000  0.00  0.00    +0.032 HD
BRANCH  77  79
ATOM     79  C   UNL     1     142.878 171.226 186.636  0.00  0.00    -0.060 C 
ATOM     80  H   UNL     1     142.021 171.895 186.739  0.00  0.00    +0.023 HD
ATOM     81  H   UNL     1     142.910 170.600 187.536  0.00  0.00    +0.023 HD
ATOM     82  H   UNL     1     142.692 170.564 185.783  0.00  0.00    +0.023 HD
ENDBRANCH  77  79
BRANCH  77  83
ATOM     83  C   UNL     1     144.843 172.334 187.832  0.00  0.00    -0.045 C 
ATOM     84  H   UNL     1     145.727 172.948 187.616  0.00  0.00    +0.027 HD
ATOM     85  H   UNL     1     145.220 171.423 188.311  0.00  0.00    +0.027 HD
BRANCH  83  86
ATOM     86  C   UNL     1     143.952 173.073 188.837  0.00  0.00    -0.015 C 
ATOM     87  H   UNL     1     143.019 173.381 188.354  0.00  0.00    +0.030 HD
ATOM     88  H   UNL     1     144.421 174.014 189.138  0.00  0.00    +0.030 HD
BRANCH  86  89
ATOM     89  C   UNL     1     143.665 172.255 190.116  0.00  0.00    +0.109 C 
ATOM     90  H   UNL     1     143.981 171.215 189.951  0.00  0.00    +0.074 HD
BRANCH  89  91
ATOM     91  C   UNL     1     142.190 172.203 190.622  0.00  0.00    +0.031 C 
ATOM     92  H   UNL     1     141.621 172.727 189.840  0.00  0.00    +0.037 HD
BRANCH  91  93
ATOM     93  C   UNL     1     142.033 173.019 191.910  0.00  0.00    -0.056 C 
ATOM     94  H   UNL     1     142.770 172.722 192.666  0.00  0.00    +0.023 HD
ATOM     95  H   UNL     1     141.036 172.906 192.345  0.00  0.00    +0.023 HD
ATOM     96  H   UNL     1     142.207 174.081 191.723  0.00  0.00    +0.023 HD
ENDBRANCH  91  93
BRANCH  91  97
ATOM     97  C   UNL     1     141.587 170.770 190.751  0.00  0.00    +0.115 C 
ATOM     98  H   UNL     1     141.473 170.551 191.821  0.00  0.00    +0.074 HD
BRANCH  97  99
ATOM     99  C   UNL     1     140.218 170.513 190.037  0.00  0.00    +0.013 C 
ATOM    100  H   UNL     1     140.238 169.471 189.683  0.00  0.00    +0.038 HD
BRANCH  99 101
ATOM    101  C   UNL     1     140.025 171.340 188.761  0.00  0.00    -0.056 C 
ATOM    102  H   UNL     1     140.010 172.411 188.994  0.00  0.00    +0.024 HD
ATOM    103  H   UNL     1     139.073 171.097 188.277  0.00  0.00    +0.024 HD
ATOM    104  H   UNL     1     140.831 171.178 188.038  0.00  0.00    +0.024 HD
ENDBRANCH  99 101
BRANCH  99 105
ATOM    105  C   UNL     1     139.013 170.647 190.948  0.00  0.00    -0.064 C 
ATOM    106  C   UNL     1     137.758 170.521 190.494  0.00  0.00    -0.005 C 
ATOM    107  H   UNL     1     139.216 170.891 191.984  0.00  0.00    +0.059 HD
ATOM    108  H   UNL     1     137.609 170.296 189.438  0.00  0.00    +0.078 HD
BRANCH 106 109
ATOM    109  N   UNL     1     136.580 170.632 191.219  0.00  0.00    -0.284 N 
ATOM    110  C   UNL     1     135.873 169.572 191.769  0.00  0.00    +0.206 C 
ATOM    111  O   UNL     1     134.818 169.648 192.391  0.00  0.00    -0.279 OA
ATOM    112  H   UNL     1     136.336 168.593 191.594  0.00  0.00    +0.126 HD
BRANCH 109 113
ATOM    113  C   UNL     1     136.032 171.975 191.384  0.00  0.00    +0.007 C 
ATOM    114  H   UNL     1     135.818 172.204 192.433  0.00  0.00    +0.043 HD
ATOM    115  H   UNL     1     136.753 172.709 191.008  0.00  0.00    +0.043 HD
ATOM    116  H   UNL     1     135.100 172.049 190.816  0.00  0.00    +0.043 HD
ENDBRANCH 109 113
ENDBRANCH 106 109
ENDBRANCH  99 105
ENDBRANCH  97  99
BRANCH  97 117
ATOM    117  O   UNL     1     142.542 169.832 190.188  0.00  0.00    -0.461 OA
BRANCH 117 118
ATOM    118  C   UNL     1     142.850 168.741 190.939  0.00  0.00    +0.304 C 
ATOM    119  O   UNL     1     143.322 168.762 192.068  0.00  0.00    -0.251 OA
BRANCH 118 120
ATOM    120  C   UNL     1     142.518 167.493 190.183  0.00  0.00    +0.033 C 
ATOM    121  H   UNL     1     143.342 167.251 189.504  0.00  0.00    +0.034 HD
ATOM    122  H   UNL     1     142.388 166.660 190.880  0.00  0.00    +0.034 HD
ATOM    123  H   UNL     1     141.611 167.648 189.593  0.00  0.00    +0.034 HD
ENDBRANCH 118 120
ENDBRANCH 117 118
ENDBRANCH  97 117
ENDBRANCH  91  97
ENDBRANCH  89  91
BRANCH  89 124
ATOM    124  O   UNL     1     144.484 172.784 191.191  0.00  0.00    -0.460 OA
BRANCH 124 125
ATOM    125  C   UNL     1     145.675 172.148 191.407  0.00  0.00    +0.324 C 
ATOM    126  O   UNL     1     145.847 170.940 191.298  0.00  0.00    -0.249 OA
BRANCH 125 127
ATOM    127  C   UNL     1     146.757 173.177 191.781  0.00  0.00    +0.105 C 
ATOM    128  H   UNL     1     146.266 174.128 192.027  0.00  0.00    +0.058 HD
BRANCH 127 129
ATOM    129  C   UNL     1     147.602 173.373 190.518  0.00  0.00    -0.039 C 
ATOM    130  H   UNL     1     147.356 174.316 190.017  0.00  0.00    +0.025 HD
ATOM    131  H   UNL     1     147.456 172.555 189.805  0.00  0.00    +0.025 HD
ATOM    132  H   UNL     1     148.670 173.407 190.763  0.00  0.00    +0.025 HD
ENDBRANCH 127 129
BRANCH 127 133
ATOM    133  N   UNL     1     147.546 172.711 192.958  0.00  0.00    -0.296 NA
BRANCH 133 134
ATOM    134  C   UNL     1     148.937 172.407 192.611  0.00  0.00    -0.012 C 
ATOM    135  H   UNL     1     149.339 173.168 191.933  0.00  0.00    +0.039 HD
ATOM    136  H   UNL     1     149.034 171.430 192.127  0.00  0.00    +0.039 HD
ATOM    137  H   UNL     1     149.580 172.429 193.496  0.00  0.00    +0.039 HD
ENDBRANCH 133 134
BRANCH 133 138
ATOM    138  C   UNL     1     147.526 173.707 194.037  0.00  0.00    -0.012 C 
ATOM    139  H   UNL     1     148.512 173.783 194.508  0.00  0.00    +0.039 HD
ATOM    140  H   UNL     1     147.242 174.700 193.672  0.00  0.00    +0.039 HD
ATOM    141  H   UNL     1     146.835 173.422 194.837  0.00  0.00    +0.039 HD
ENDBRANCH 133 138
ENDBRANCH 127 133
ENDBRANCH 125 127
ENDBRANCH 124 125
ENDBRANCH  89 124
ENDBRANCH  86  89
ENDBRANCH  83  86
ENDBRANCH  77  83
ENDBRANCH  75  77
BRANCH  75 142
ATOM    142  O   UNL     1     144.350 170.417 184.600  0.00  0.00    -0.391 OA
ATOM    143  H   UNL     1     144.686 170.519 183.694  0.00  0.00    +0.210 HD
ENDBRANCH  75 142
ENDBRANCH  69  75
ENDBRANCH  14  69
BRANCH  25 144
ATOM    144  O   UNL     1     155.120 166.243 186.776  0.00  0.00    -0.391 OA
ATOM    145  H   UNL     1     155.320 165.402 186.335  0.00  0.00    +0.210 HD
ENDBRANCH  25 144
BRANCH  23 146
ATOM    146  O   UNL     1     152.991 165.394 184.988  0.00  0.00    -0.460 OA
BRANCH 146 147
ATOM    147  C   UNL     1     153.301 165.343 183.668  0.00  0.00    +0.327 C 
ATOM    148  O   UNL     1     152.479 165.305 182.756  0.00  0.00    -0.249 OA
BRANCH 147 149
ATOM    149  C   UNL     1     154.818 165.418 183.439  0.00  0.00    +0.131 C 
ATOM    150  H   UNL     1     155.270 165.130 184.399  0.00  0.00    +0.060 HD
BRANCH 149 151
ATOM    151  C   UNL     1     155.206 166.901 183.211  0.00  0.00    +0.073 C 
ATOM    152  H   UNL     1     155.746 167.009 182.261  0.00  0.00    +0.058 HD
ATOM    153  H   UNL     1     154.291 167.505 183.150  0.00  0.00    +0.058 HD
BRANCH 151 154
ATOM    154  O   UNL     1     156.014 167.428 184.273  0.00  0.00    -0.381 OA
BRANCH 154 155
ATOM    155  C   UNL     1     156.066 168.849 184.223  0.00  0.00    +0.037 C 
ATOM    156  H   UNL     1     156.423 169.182 183.245  0.00  0.00    +0.052 HD
ATOM    157  H   UNL     1     155.081 169.274 184.434  0.00  0.00    +0.052 HD
ATOM    158  H   UNL     1     156.769 169.192 184.987  0.00  0.00    +0.052 HD
ENDBRANCH 154 155
ENDBRANCH 151 154
ENDBRANCH 149 151
BRANCH 149 159
ATOM    159  N   UNL     1     155.252 164.445 182.386  0.00  0.00    -0.294 NA
BRANCH 159 160
ATOM    160  C   UNL     1     155.889 163.264 182.977  0.00  0.00    -0.012 C 
ATOM    161  H   UNL     1     155.361 162.338 182.718  0.00  0.00    +0.039 HD
ATOM    162  H   UNL     1     155.916 163.345 184.070  0.00  0.00    +0.039 HD
ATOM    163  H   UNL     1     156.933 163.170 182.661  0.00  0.00    +0.039 HD
ENDBRANCH 159 160
BRANCH 159 164
ATOM    164  C   UNL     1     156.162 165.057 181.416  0.00  0.00    -0.012 C 
ATOM    165  H   UNL     1     157.179 165.114 181.824  0.00  0.00    +0.039 HD
ATOM    166  H   UNL     1     156.244 164.457 180.504  0.00  0.00    +0.039 HD
ATOM    167  H   UNL     1     155.849 166.070 181.140  0.00  0.00    +0.039 HD
ENDBRANCH 159 164
ENDBRANCH 149 159
ENDBRANCH 147 149
ENDBRANCH 146 147
ENDBRANCH  23 146
BRANCH   4 168
ATOM    168  O   UNL     1     152.166 168.915 191.193  0.00  0.00    -0.376 OA
BRANCH 168 169
ATOM    169  C   UNL     1     151.794 170.241 191.551  0.00  0.00    +0.037 C 
ATOM    170  H   UNL     1     151.898 170.871 190.665  0.00  0.00    +0.052 HD
ATOM    171  H   UNL     1     152.458 170.636 192.324  0.00  0.00    +0.052 HD
ATOM    172  H   UNL     1     150.755 170.281 191.884  0.00  0.00    +0.052 HD
ENDBRANCH 168 169
ENDBRANCH   4 168
BRANCH  10 173
ATOM    173  O   UNL     1     147.021 164.958 190.196  0.00  0.00    -0.376 OA
BRANCH 173 174
ATOM    174  C   UNL     1     148.298 164.592 189.694  0.00  0.00    +0.037 C 
ATOM    175  H   UNL     1     148.222 163.702 189.066  0.00  0.00    +0.052 HD
ATOM    176  H   UNL     1     148.947 164.360 190.543  0.00  0.00    +0.052 HD
ATOM    177  H   UNL     1     148.744 165.420 189.136  0.00  0.00    +0.052 HD
ENDBRANCH 173 174
ENDBRANCH  10 173
TORSDOF 45
ENDMDL
MODEL 6
REMARK VINA RESULT:      -4.7      7.642     13.815
REMARK  Name = Aplyronine A_conf3
REMARK  45 active torsions:
REMARK  status: ('A' for Active; 'I' for Inactive)
REMARK    1  A    between atoms: C_1  and  C_2
REMARK    2  A    between atoms: C_5  and  O_75
REMARK    3  A    between atoms: C_6  and  C_74
REMARK    4  A    between atoms: C_9  and  C_73
REMARK    5  A    between atoms: C_11  and  O_71
REMARK    6  A    between atoms: C_15  and  C_39
REMARK    7  A    between atoms: C_24  and  O_29
REMARK    8  A    between atoms: C_25  and  C_28
REMARK    9  A    between atoms: C_26  and  O_27
REMARK   10  A    between atoms: O_29  and  C_30
REMARK   11  A    between atoms: C_30  and  C_32
REMARK   12  A    between atoms: C_32  and  C_33
REMARK   13  A    between atoms: C_32  and  N_36
REMARK   14  A    between atoms: C_33  and  O_34
REMARK   15  A    between atoms: O_34  and  C_35
REMARK   16  A    between atoms: N_36  and  C_37
REMARK   17  A    between atoms: N_36  and  C_38
REMARK   18  A    between atoms: C_39  and  C_40
REMARK   19  A    between atoms: C_39  and  C_41
REMARK   20  A    between atoms: C_41  and  C_42
REMARK   21  A    between atoms: C_41  and  O_70
REMARK   22  A    between atoms: C_42  and  C_43
REMARK   23  A    between atoms: C_42  and  C_44
REMARK   24  A    between atoms: C_44  and  C_45
REMARK   25  A    between atoms: C_45  and  C_46
REMARK   26  A    between atoms: C_46  and  C_47
REMARK   27  A    between atoms: C_46  and  O_62
REMARK   28  A    between atoms: C_47  and  C_48
REMARK   29  A    between atoms: C_47  and  C_49
REMARK   30  A    between atoms: C_49  and  C_50
REMARK   31  A    between atoms: C_49  and  O_58
REMARK   32  A    between atoms: C_50  and  C_51
REMARK   33  A    between atoms: C_50  and  C_52
REMARK   34  A    between atoms: C_53  and  N_54
REMARK   35  A    between atoms: N_54  and  C_55
REMARK   36  A    between atoms: O_58  and  C_59
REMARK   37  A    between atoms: C_59  and  C_61
REMARK   38  A    between atoms: O_62  and  C_63
REMARK   39  A    between atoms: C_63  and  C_65
REMARK   40  A    between atoms: C_65  and  C_66
REMARK   41  A    between atoms: C_65  and  N_67
REMARK   42  A    between atoms: N_67  and  C_68
REMARK   43  A    between atoms: N_67  and  C_69
REMARK   44  A    between atoms: O_71  and  C_72
REMARK   45  A    between atoms: O_75  and  C_76
REMARK                            x       y       z     vdW  Elec       q    Type
REMARK                         _______ _______ _______ _____ _____    ______ ____
ROOT
ATOM      1  C   UNL     1     145.132 176.493 185.108  0.00  0.00    -0.017 C 
ATOM      2  C   UNL     1     143.706 175.904 185.194  0.00  0.00    -0.045 C 
ATOM      3  C   UNL     1     143.214 175.625 186.626  0.00  0.00    -0.022 C 
ATOM      4  C   UNL     1     142.757 174.169 186.900  0.00  0.00    +0.079 C 
ATOM      5  C   UNL     1     141.376 173.785 186.359  0.00  0.00    -0.048 C 
ATOM      6  C   UNL     1     140.470 173.225 187.192  0.00  0.00    -0.082 C 
ATOM      7  C   UNL     1     139.095 172.711 186.871  0.00  0.00    -0.032 C 
ATOM      8  C   UNL     1     137.950 173.732 187.038  0.00  0.00    -0.038 C 
ATOM      9  C   UNL     1     137.854 174.318 188.470  0.00  0.00    -0.020 C 
ATOM     10  C   UNL     1     138.750 175.549 188.690  0.00  0.00    +0.077 C 
ATOM     11  C   UNL     1     138.652 176.031 190.112  0.00  0.00    -0.059 C 
ATOM     12  C   UNL     1     139.541 175.757 191.082  0.00  0.00    -0.082 C 
ATOM     13  C   UNL     1     139.469 176.390 192.450  0.00  0.00    +0.003 C 
ATOM     14  C   UNL     1     140.802 176.990 192.959  0.00  0.00    +0.112 C 
ATOM     15  O   UNL     1     141.508 177.624 191.862  0.00  0.00    -0.458 OA
ATOM     16  C   UNL     1     141.023 178.770 191.333  0.00  0.00    +0.332 C 
ATOM     17  O   UNL     1     140.050 179.403 191.697  0.00  0.00    -0.246 OA
ATOM     18  C   UNL     1     141.911 179.085 190.201  0.00  0.00    +0.022 C 
ATOM     19  C   UNL     1     141.591 179.958 189.237  0.00  0.00    -0.055 C 
ATOM     20  C   UNL     1     142.509 180.167 188.146  0.00  0.00    -0.065 C 
ATOM     21  C   UNL     1     142.384 181.077 187.169  0.00  0.00    -0.081 C 
ATOM     22  C   UNL     1     143.408 181.372 186.088  0.00  0.00    +0.003 C 
ATOM     23  C   UNL     1     144.635 180.431 185.910  0.00  0.00    +0.111 C 
ATOM     24  C   UNL     1     144.258 179.034 185.302  0.00  0.00    +0.020 C 
ATOM     25  C   UNL     1     145.300 177.935 185.672  0.00  0.00    +0.064 C 
ATOM     26  H   UNL     1     145.777 175.855 185.733  0.00  0.00    +0.032 HD
ATOM     27  H   UNL     1     143.691 174.979 184.609  0.00  0.00    +0.027 HD
ATOM     28  H   UNL     1     142.994 176.570 184.697  0.00  0.00    +0.027 HD
ATOM     29  H   UNL     1     144.030 175.839 187.327  0.00  0.00    +0.029 HD
ATOM     30  H   UNL     1     142.405 176.321 186.880  0.00  0.00    +0.029 HD
ATOM     31  H   UNL     1     142.749 174.073 187.994  0.00  0.00    +0.064 HD
ATOM     32  H   UNL     1     140.751 173.078 188.237  0.00  0.00    +0.057 HD
ATOM     33  H   UNL     1     138.909 171.845 187.520  0.00  0.00    +0.031 HD
ATOM     34  H   UNL     1     139.074 172.300 185.853  0.00  0.00    +0.031 HD
ATOM     35  H   UNL     1     138.097 174.546 186.318  0.00  0.00    +0.030 HD
ATOM     36  H   UNL     1     138.086 173.537 189.206  0.00  0.00    +0.030 HD
ATOM     37  H   UNL     1     136.814 174.625 188.653  0.00  0.00    +0.030 HD
ATOM     38  H   UNL     1     139.791 175.325 188.448  0.00  0.00    +0.064 HD
ATOM     39  H   UNL     1     137.815 176.695 190.323  0.00  0.00    +0.059 HD
ATOM     40  H   UNL     1     140.378 175.090 190.889  0.00  0.00    +0.057 HD
ATOM     41  H   UNL     1     139.044 175.683 193.166  0.00  0.00    +0.034 HD
ATOM     42  H   UNL     1     138.742 177.214 192.405  0.00  0.00    +0.034 HD
ATOM     43  H   UNL     1     140.564 177.760 193.706  0.00  0.00    +0.074 HD
ATOM     44  H   UNL     1     142.853 178.544 190.179  0.00  0.00    +0.069 HD
ATOM     45  H   UNL     1     140.656 180.508 189.264  0.00  0.00    +0.062 HD
ATOM     46  H   UNL     1     143.392 179.535 188.185  0.00  0.00    +0.061 HD
ATOM     47  H   UNL     1     141.506 181.719 187.156  0.00  0.00    +0.057 HD
ATOM     48  H   UNL     1     142.872 181.456 185.136  0.00  0.00    +0.034 HD
ATOM     49  H   UNL     1     143.787 182.379 186.307  0.00  0.00    +0.034 HD
ATOM     50  H   UNL     1     145.342 180.911 185.219  0.00  0.00    +0.074 HD
ATOM     51  H   UNL     1     143.300 178.717 185.731  0.00  0.00    +0.036 HD
ATOM     52  H   UNL     1     145.249 177.825 186.763  0.00  0.00    +0.060 HD
ENDROOT
BRANCH   1  53
ATOM     53  C   UNL     1     145.692 176.297 183.689  0.00  0.00    -0.060 C 
ATOM     54  H   UNL     1     145.022 176.758 182.953  0.00  0.00    +0.023 HD
ATOM     55  H   UNL     1     145.758 175.238 183.424  0.00  0.00    +0.023 HD
ATOM     56  H   UNL     1     146.676 176.748 183.556  0.00  0.00    +0.023 HD
ENDBRANCH   1  53
BRANCH   5  57
ATOM     57  C   UNL     1     141.112 174.014 184.897  0.00  0.00    -0.041 C 
ATOM     58  H   UNL     1     140.052 173.868 184.670  0.00  0.00    +0.028 HD
ATOM     59  H   UNL     1     141.402 175.031 184.610  0.00  0.00    +0.028 HD
ATOM     60  H   UNL     1     141.662 173.332 184.244  0.00  0.00    +0.028 HD
ENDBRANCH   5  57
BRANCH  24  61
ATOM     61  C   UNL     1     144.049 179.196 183.790  0.00  0.00    -0.057 C 
ATOM     62  H   UNL     1     144.980 179.451 183.276  0.00  0.00    +0.023 HD
ATOM     63  H   UNL     1     143.667 178.276 183.340  0.00  0.00    +0.023 HD
ATOM     64  H   UNL     1     143.351 180.006 183.569  0.00  0.00    +0.023 HD
ENDBRANCH  24  61
BRANCH   8  65
ATOM     65  C   UNL     1     136.625 173.045 186.681  0.00  0.00    -0.062 C 
ATOM     66  H   UNL     1     136.656 172.621 185.673  0.00  0.00    +0.023 HD
ATOM     67  H   UNL     1     135.791 173.755 186.727  0.00  0.00    +0.023 HD
ATOM     68  H   UNL     1     136.406 172.234 187.385  0.00  0.00    +0.023 HD
ENDBRANCH   8  65
BRANCH  14  69
ATOM     69  C   UNL     1     141.838 176.009 193.607  0.00  0.00    +0.020 C 
ATOM     70  H   UNL     1     142.123 176.421 194.586  0.00  0.00    +0.036 HD
BRANCH  69  71
ATOM     71  C   UNL     1     141.106 174.675 193.870  0.00  0.00    -0.057 C 
ATOM     72  H   UNL     1     141.535 174.131 194.716  0.00  0.00    +0.023 HD
ATOM     73  H   UNL     1     141.144 174.027 192.987  0.00  0.00    +0.023 HD
ATOM     74  H   UNL     1     140.051 174.829 194.123  0.00  0.00    +0.023 HD
ENDBRANCH  69  71
BRANCH  69  75
ATOM     75  C   UNL     1     143.116 175.832 192.744  0.00  0.00    +0.064 C 
ATOM     76  H   UNL     1     143.331 176.794 192.261  0.00  0.00    +0.060 HD
BRANCH  75  77
ATOM     77  C   UNL     1     143.065 174.743 191.640  0.00  0.00    -0.017 C 
ATOM     78  H   UNL     1     142.152 174.157 191.801  0.00  0.00    +0.032 HD
BRANCH  77  79
ATOM     79  C   UNL     1     142.868 175.373 190.248  0.00  0.00    -0.060 C 
ATOM     80  H   UNL     1     142.689 176.450 190.288  0.00  0.00    +0.023 HD
ATOM     81  H   UNL     1     142.004 174.920 189.746  0.00  0.00    +0.023 HD
ATOM     82  H   UNL     1     143.745 175.196 189.616  0.00  0.00    +0.023 HD
ENDBRANCH  77  79
BRANCH  77  83
ATOM     83  C   UNL     1     144.236 173.726 191.639  0.00  0.00    -0.045 C 
ATOM     84  H   UNL     1     144.911 174.029 192.451  0.00  0.00    +0.027 HD
ATOM     85  H   UNL     1     144.814 173.833 190.715  0.00  0.00    +0.027 HD
BRANCH  83  86
ATOM     86  C   UNL     1     143.874 172.247 191.813  0.00  0.00    -0.015 C 
ATOM     87  H   UNL     1     142.804 172.146 192.024  0.00  0.00    +0.030 HD
ATOM     88  H   UNL     1     144.362 171.840 192.703  0.00  0.00    +0.030 HD
BRANCH  86  89
ATOM     89  C   UNL     1     144.281 171.373 190.606  0.00  0.00    +0.109 C 
ATOM     90  H   UNL     1     144.572 172.029 189.774  0.00  0.00    +0.074 HD
BRANCH  89  91
ATOM     91  C   UNL     1     143.217 170.377 190.046  0.00  0.00    +0.031 C 
ATOM     92  H   UNL     1     143.706 169.396 190.120  0.00  0.00    +0.037 HD
BRANCH  91  93
ATOM     93  C   UNL     1     142.965 170.640 188.558  0.00  0.00    -0.056 C 
ATOM     94  H   UNL     1     143.664 170.080 187.927  0.00  0.00    +0.023 HD
ATOM     95  H   UNL     1     143.058 171.701 188.310  0.00  0.00    +0.023 HD
ATOM     96  H   UNL     1     141.965 170.306 188.267  0.00  0.00    +0.023 HD
ENDBRANCH  91  93
BRANCH  91  97
ATOM     97  C   UNL     1     141.893 170.297 190.868  0.00  0.00    +0.115 C 
ATOM     98  H   UNL     1     142.103 170.681 191.876  0.00  0.00    +0.074 HD
BRANCH  97  99
ATOM     99  C   UNL     1     140.654 171.057 190.287  0.00  0.00    +0.013 C 
ATOM    100  H   UNL     1     140.851 171.209 189.216  0.00  0.00    +0.038 HD
BRANCH  99 101
ATOM    101  C   UNL     1     140.488 172.476 190.844  0.00  0.00    -0.056 C 
ATOM    102  H   UNL     1     139.898 173.093 190.155  0.00  0.00    +0.024 HD
ATOM    103  H   UNL     1     141.460 172.964 190.969  0.00  0.00    +0.024 HD
ATOM    104  H   UNL     1     139.970 172.483 191.808  0.00  0.00    +0.024 HD
ENDBRANCH  99 101
BRANCH  99 105
ATOM    105  C   UNL     1     139.353 170.286 190.393  0.00  0.00    -0.064 C 
ATOM    106  C   UNL     1     138.158 170.893 190.356  0.00  0.00    -0.005 C 
ATOM    107  H   UNL     1     139.437 169.216 190.541  0.00  0.00    +0.059 HD
ATOM    108  H   UNL     1     138.131 171.975 190.226  0.00  0.00    +0.078 HD
BRANCH 106 109
ATOM    109  N   UNL     1     136.906 170.305 190.452  0.00  0.00    -0.284 N 
ATOM    110  C   UNL     1     136.423 169.622 191.560  0.00  0.00    +0.206 C 
ATOM    111  O   UNL     1     135.329 169.075 191.655  0.00  0.00    -0.279 OA
ATOM    112  H   UNL     1     137.127 169.588 192.400  0.00  0.00    +0.126 HD
BRANCH 109 113
ATOM    113  C   UNL     1     136.045 170.389 189.275  0.00  0.00    +0.007 C 
ATOM    114  H   UNL     1     135.052 170.779 189.521  0.00  0.00    +0.043 HD
ATOM    115  H   UNL     1     136.506 171.053 188.536  0.00  0.00    +0.043 HD
ATOM    116  H   UNL     1     135.929 169.387 188.850  0.00  0.00    +0.043 HD
ENDBRANCH 109 113
ENDBRANCH 106 109
ENDBRANCH  99 105
ENDBRANCH  97  99
BRANCH  97 117
ATOM    117  O   UNL     1     141.520 168.898 190.976  0.00  0.00    -0.461 OA
BRANCH 117 118
ATOM    118  C   UNL     1     142.426 168.062 191.553  0.00  0.00    +0.304 C 
ATOM    119  O   UNL     1     143.012 168.263 192.608  0.00  0.00    -0.251 OA
BRANCH 118 120
ATOM    120  C   UNL     1     142.601 166.841 190.705  0.00  0.00    +0.033 C 
ATOM    121  H   UNL     1     142.620 167.131 189.651  0.00  0.00    +0.034 HD
ATOM    122  H   UNL     1     143.550 166.354 190.948  0.00  0.00    +0.034 HD
ATOM    123  H   UNL     1     141.764 166.156 190.866  0.00  0.00    +0.034 HD
ENDBRANCH 118 120
ENDBRANCH 117 118
ENDBRANCH  97 117
ENDBRANCH  91  97
ENDBRANCH  89  91
BRANCH  89 124
ATOM    124  O   UNL     1     145.457 170.605 190.974  0.00  0.00    -0.460 OA
BRANCH 124 125
ATOM    125  C   UNL     1     146.543 170.744 190.156  0.00  0.00    +0.324 C 
ATOM    126  O   UNL     1     146.510 170.656 188.934  0.00  0.00    -0.249 OA
BRANCH 125 127
ATOM    127  C   UNL     1     147.796 171.048 190.998  0.00  0.00    +0.105 C 
ATOM    128  H   UNL     1     148.642 171.216 190.320  0.00  0.00    +0.058 HD
BRANCH 127 129
ATOM    129  C   UNL     1     148.067 169.781 191.816  0.00  0.00    -0.039 C 
ATOM    130  H   UNL     1     147.145 169.215 191.991  0.00  0.00    +0.025 HD
ATOM    131  H   UNL     1     148.518 170.016 192.786  0.00  0.00    +0.025 HD
ATOM    132  H   UNL     1     148.759 169.115 191.288  0.00  0.00    +0.025 HD
ENDBRANCH 127 129
BRANCH 127 133
ATOM    133  N   UNL     1     147.586 172.264 191.836  0.00  0.00    -0.296 NA
BRANCH 133 134
ATOM    134  C   UNL     1     148.325 172.204 193.100  0.00  0.00    -0.012 C 
ATOM    135  H   UNL     1     147.932 172.938 193.812  0.00  0.00    +0.039 HD
ATOM    136  H   UNL     1     149.393 172.401 192.960  0.00  0.00    +0.039 HD
ATOM    137  H   UNL     1     148.206 171.229 193.582  0.00  0.00    +0.039 HD
ENDBRANCH 133 134
BRANCH 133 138
ATOM    138  C   UNL     1     147.974 173.481 191.110  0.00  0.00    -0.012 C 
ATOM    139  H   UNL     1     147.751 173.377 190.042  0.00  0.00    +0.039 HD
ATOM    140  H   UNL     1     147.449 174.366 191.485  0.00  0.00    +0.039 HD
ATOM    141  H   UNL     1     149.050 173.664 191.174  0.00  0.00    +0.039 HD
ENDBRANCH 133 138
ENDBRANCH 127 133
ENDBRANCH 125 127
ENDBRANCH 124 125
ENDBRANCH  89 124
ENDBRANCH  86  89
ENDBRANCH  83  86
ENDBRANCH  77  83
ENDBRANCH  75  77
BRANCH  75 142
ATOM    142  O   UNL     1     144.202 175.554 193.631  0.00  0.00    -0.391 OA
ATOM    143  H   UNL     1     145.026 175.574 193.117  0.00  0.00    +0.210 HD
ENDBRANCH  75 142
ENDBRANCH  69  75
ENDBRANCH  14  69
BRANCH  25 144
ATOM    144  O   UNL     1     146.628 178.399 185.404  0.00  0.00    -0.391 OA
ATOM    145  H   UNL     1     146.964 178.843 186.199  0.00  0.00    +0.210 HD
ENDBRANCH  25 144
BRANCH  23 146
ATOM    146  O   UNL     1     145.277 180.255 187.187  0.00  0.00    -0.460 OA
BRANCH 146 147
ATOM    147  C   UNL     1     146.483 180.843 187.389  0.00  0.00    +0.327 C 
ATOM    148  O   UNL     1     147.357 180.962 186.534  0.00  0.00    -0.249 OA
BRANCH 147 149
ATOM    149  C   UNL     1     146.601 181.420 188.807  0.00  0.00    +0.131 C 
ATOM    150  H   UNL     1     146.633 180.546 189.474  0.00  0.00    +0.060 HD
BRANCH 149 151
ATOM    151  C   UNL     1     145.286 182.168 189.143  0.00  0.00    +0.073 C 
ATOM    152  H   UNL     1     145.462 183.252 189.163  0.00  0.00    +0.058 HD
ATOM    153  H   UNL     1     144.547 181.960 188.359  0.00  0.00    +0.058 HD
BRANCH 151 154
ATOM    154  O   UNL     1     144.725 181.760 190.399  0.00  0.00    -0.381 OA
BRANCH 154 155
ATOM    155  C   UNL     1     143.687 182.641 190.809  0.00  0.00    +0.037 C 
ATOM    156  H   UNL     1     143.688 182.748 191.897  0.00  0.00    +0.052 HD
ATOM    157  H   UNL     1     143.803 183.617 190.330  0.00  0.00    +0.052 HD
ATOM    158  H   UNL     1     142.731 182.209 190.501  0.00  0.00    +0.052 HD
ENDBRANCH 154 155
ENDBRANCH 151 154
ENDBRANCH 149 151
BRANCH 149 159
ATOM    159  N   UNL     1     147.871 182.199 188.968  0.00  0.00    -0.294 NA
BRANCH 159 160
ATOM    160  C   UNL     1     148.508 181.926 190.261  0.00  0.00    -0.012 C 
ATOM    161  H   UNL     1     147.985 181.139 190.819  0.00  0.00    +0.039 HD
ATOM    162  H   UNL     1     148.526 182.829 190.882  0.00  0.00    +0.039 HD
ATOM    163  H   UNL     1     149.554 181.630 190.138  0.00  0.00    +0.039 HD
ENDBRANCH 159 160
BRANCH 159 164
ATOM    164  C   UNL     1     147.653 183.640 188.827  0.00  0.00    -0.012 C 
ATOM    165  H   UNL     1     148.227 184.035 187.979  0.00  0.00    +0.039 HD
ATOM    166  H   UNL     1     146.605 183.870 188.605  0.00  0.00    +0.039 HD
ATOM    167  H   UNL     1     147.948 184.192 189.726  0.00  0.00    +0.039 HD
ENDBRANCH 159 164
ENDBRANCH 149 159
ENDBRANCH 147 149
ENDBRANCH 146 147
ENDBRANCH  23 146
BRANCH   4 168
ATOM    168  O   UNL     1     143.765 173.280 186.392  0.00  0.00    -0.376 OA
BRANCH 168 169
ATOM    169  C   UNL     1     144.949 173.260 187.182  0.00  0.00    +0.037 C 
ATOM    170  H   UNL     1     145.316 172.232 187.212  0.00  0.00    +0.052 HD
ATOM    171  H   UNL     1     144.736 173.572 188.207  0.00  0.00    +0.052 HD
ATOM    172  H   UNL     1     145.724 173.892 186.744  0.00  0.00    +0.052 HD
ENDBRANCH 168 169
ENDBRANCH   4 168
BRANCH  10 173
ATOM    173  O   UNL     1     138.272 176.584 187.818  0.00  0.00    -0.376 OA
BRANCH 173 174
ATOM    174  C   UNL     1     138.667 177.885 188.226  0.00  0.00    +0.037 C 
ATOM    175  H   UNL     1     137.795 178.531 188.348  0.00  0.00    +0.052 HD
ATOM    176  H   UNL     1     139.305 178.311 187.446  0.00  0.00    +0.052 HD
ATOM    177  H   UNL     1     139.244 177.839 189.155  0.00  0.00    +0.052 HD
ENDBRANCH 173 174
ENDBRANCH  10 173
TORSDOF 45
ENDMDL
MODEL 7
REMARK VINA RESULT:      -4.6      6.558     13.430
REMARK  Name = Aplyronine A_conf3
REMARK  45 active torsions:
REMARK  status: ('A' for Active; 'I' for Inactive)
REMARK    1  A    between atoms: C_1  and  C_2
REMARK    2  A    between atoms: C_5  and  O_75
REMARK    3  A    between atoms: C_6  and  C_74
REMARK    4  A    between atoms: C_9  and  C_73
REMARK    5  A    between atoms: C_11  and  O_71
REMARK    6  A    between atoms: C_15  and  C_39
REMARK    7  A    between atoms: C_24  and  O_29
REMARK    8  A    between atoms: C_25  and  C_28
REMARK    9  A    between atoms: C_26  and  O_27
REMARK   10  A    between atoms: O_29  and  C_30
REMARK   11  A    between atoms: C_30  and  C_32
REMARK   12  A    between atoms: C_32  and  C_33
REMARK   13  A    between atoms: C_32  and  N_36
REMARK   14  A    between atoms: C_33  and  O_34
REMARK   15  A    between atoms: O_34  and  C_35
REMARK   16  A    between atoms: N_36  and  C_37
REMARK   17  A    between atoms: N_36  and  C_38
REMARK   18  A    between atoms: C_39  and  C_40
REMARK   19  A    between atoms: C_39  and  C_41
REMARK   20  A    between atoms: C_41  and  C_42
REMARK   21  A    between atoms: C_41  and  O_70
REMARK   22  A    between atoms: C_42  and  C_43
REMARK   23  A    between atoms: C_42  and  C_44
REMARK   24  A    between atoms: C_44  and  C_45
REMARK   25  A    between atoms: C_45  and  C_46
REMARK   26  A    between atoms: C_46  and  C_47
REMARK   27  A    between atoms: C_46  and  O_62
REMARK   28  A    between atoms: C_47  and  C_48
REMARK   29  A    between atoms: C_47  and  C_49
REMARK   30  A    between atoms: C_49  and  C_50
REMARK   31  A    between atoms: C_49  and  O_58
REMARK   32  A    between atoms: C_50  and  C_51
REMARK   33  A    between atoms: C_50  and  C_52
REMARK   34  A    between atoms: C_53  and  N_54
REMARK   35  A    between atoms: N_54  and  C_55
REMARK   36  A    between atoms: O_58  and  C_59
REMARK   37  A    between atoms: C_59  and  C_61
REMARK   38  A    between atoms: O_62  and  C_63
REMARK   39  A    between atoms: C_63  and  C_65
REMARK   40  A    between atoms: C_65  and  C_66
REMARK   41  A    between atoms: C_65  and  N_67
REMARK   42  A    between atoms: N_67  and  C_68
REMARK   43  A    between atoms: N_67  and  C_69
REMARK   44  A    between atoms: O_71  and  C_72
REMARK   45  A    between atoms: O_75  and  C_76
REMARK                            x       y       z     vdW  Elec       q    Type
REMARK                         _______ _______ _______ _____ _____    ______ ____
ROOT
ATOM      1  C   UNL     1     144.633 179.197 185.013  0.00  0.00    -0.017 C 
ATOM      2  C   UNL     1     143.611 178.044 184.899  0.00  0.00    -0.045 C 
ATOM      3  C   UNL     1     143.876 176.860 185.847  0.00  0.00    -0.022 C 
ATOM      4  C   UNL     1     144.012 175.477 185.159  0.00  0.00    +0.079 C 
ATOM      5  C   UNL     1     142.705 174.816 184.711  0.00  0.00    -0.048 C 
ATOM      6  C   UNL     1     142.439 173.546 185.092  0.00  0.00    -0.082 C 
ATOM      7  C   UNL     1     141.266 172.683 184.720  0.00  0.00    -0.032 C 
ATOM      8  C   UNL     1     140.063 172.748 185.684  0.00  0.00    -0.038 C 
ATOM      9  C   UNL     1     140.423 172.360 187.141  0.00  0.00    -0.020 C 
ATOM     10  C   UNL     1     140.936 173.543 187.981  0.00  0.00    +0.077 C 
ATOM     11  C   UNL     1     141.319 173.087 189.363  0.00  0.00    -0.059 C 
ATOM     12  C   UNL     1     142.573 172.824 189.768  0.00  0.00    -0.082 C 
ATOM     13  C   UNL     1     142.912 172.514 191.205  0.00  0.00    +0.003 C 
ATOM     14  C   UNL     1     144.104 173.318 191.779  0.00  0.00    +0.112 C 
ATOM     15  O   UNL     1     144.065 174.680 191.282  0.00  0.00    -0.458 OA
ATOM     16  C   UNL     1     143.098 175.519 191.716  0.00  0.00    +0.332 C 
ATOM     17  O   UNL     1     142.236 175.294 192.545  0.00  0.00    -0.246 OA
ATOM     18  C   UNL     1     143.291 176.765 190.955  0.00  0.00    +0.022 C 
ATOM     19  C   UNL     1     142.359 177.723 190.864  0.00  0.00    -0.055 C 
ATOM     20  C   UNL     1     142.625 178.889 190.060  0.00  0.00    -0.065 C 
ATOM     21  C   UNL     1     141.844 179.974 189.956  0.00  0.00    -0.081 C 
ATOM     22  C   UNL     1     142.181 181.246 189.200  0.00  0.00    +0.003 C 
ATOM     23  C   UNL     1     143.428 181.282 188.268  0.00  0.00    +0.111 C 
ATOM     24  C   UNL     1     143.243 180.442 186.957  0.00  0.00    +0.020 C 
ATOM     25  C   UNL     1     144.607 179.991 186.354  0.00  0.00    +0.064 C 
ATOM     26  H   UNL     1     145.634 178.741 184.960  0.00  0.00    +0.032 HD
ATOM     27  H   UNL     1     143.612 177.697 183.862  0.00  0.00    +0.027 HD
ATOM     28  H   UNL     1     142.599 178.421 185.076  0.00  0.00    +0.027 HD
ATOM     29  H   UNL     1     144.814 177.041 186.385  0.00  0.00    +0.029 HD
ATOM     30  H   UNL     1     143.090 176.817 186.611  0.00  0.00    +0.029 HD
ATOM     31  H   UNL     1     144.498 174.833 185.905  0.00  0.00    +0.064 HD
ATOM     32  H   UNL     1     143.166 173.034 185.726  0.00  0.00    +0.057 HD
ATOM     33  H   UNL     1     141.628 171.648 184.658  0.00  0.00    +0.031 HD
ATOM     34  H   UNL     1     140.933 172.919 183.701  0.00  0.00    +0.031 HD
ATOM     35  H   UNL     1     139.653 173.765 185.666  0.00  0.00    +0.030 HD
ATOM     36  H   UNL     1     141.156 171.544 187.137  0.00  0.00    +0.030 HD
ATOM     37  H   UNL     1     139.519 171.971 187.632  0.00  0.00    +0.030 HD
ATOM     38  H   UNL     1     141.792 174.022 187.501  0.00  0.00    +0.064 HD
ATOM     39  H   UNL     1     140.500 173.031 190.079  0.00  0.00    +0.059 HD
ATOM     40  H   UNL     1     143.400 172.868 189.063  0.00  0.00    +0.057 HD
ATOM     41  H   UNL     1     143.052 171.438 191.332  0.00  0.00    +0.034 HD
ATOM     42  H   UNL     1     142.034 172.756 191.822  0.00  0.00    +0.034 HD
ATOM     43  H   UNL     1     143.998 173.347 192.872  0.00  0.00    +0.074 HD
ATOM     44  H   UNL     1     144.245 176.860 190.444  0.00  0.00    +0.069 HD
ATOM     45  H   UNL     1     141.410 177.635 191.384  0.00  0.00    +0.062 HD
ATOM     46  H   UNL     1     143.580 178.859 189.543  0.00  0.00    +0.061 HD
ATOM     47  H   UNL     1     140.902 179.999 190.498  0.00  0.00    +0.057 HD
ATOM     48  H   UNL     1     141.293 181.541 188.631  0.00  0.00    +0.034 HD
ATOM     49  H   UNL     1     142.314 182.019 189.968  0.00  0.00    +0.034 HD
ATOM     50  H   UNL     1     143.606 182.325 187.969  0.00  0.00    +0.074 HD
ATOM     51  H   UNL     1     142.691 179.527 187.206  0.00  0.00    +0.036 HD
ATOM     52  H   UNL     1     145.058 179.318 187.094  0.00  0.00    +0.060 HD
ENDROOT
BRANCH   1  53
ATOM     53  C   UNL     1     144.568 180.078 183.753  0.00  0.00    -0.060 C 
ATOM     54  H   UNL     1     144.843 181.110 184.000  0.00  0.00    +0.023 HD
ATOM     55  H   UNL     1     143.554 180.119 183.344  0.00  0.00    +0.023 HD
ATOM     56  H   UNL     1     145.244 179.742 182.966  0.00  0.00    +0.023 HD
ENDBRANCH   1  53
BRANCH   5  57
ATOM     57  C   UNL     1     141.792 175.612 183.820  0.00  0.00    -0.041 C 
ATOM     58  H   UNL     1     140.822 175.116 183.723  0.00  0.00    +0.028 HD
ATOM     59  H   UNL     1     141.640 176.618 184.228  0.00  0.00    +0.028 HD
ATOM     60  H   UNL     1     142.175 175.737 182.805  0.00  0.00    +0.028 HD
ENDBRANCH   5  57
BRANCH  24  61
ATOM     61  C   UNL     1     142.375 181.244 185.976  0.00  0.00    -0.057 C 
ATOM     62  H   UNL     1     142.914 182.100 185.562  0.00  0.00    +0.023 HD
ATOM     63  H   UNL     1     142.047 180.625 185.137  0.00  0.00    +0.023 HD
ATOM     64  H   UNL     1     141.492 181.655 186.471  0.00  0.00    +0.023 HD
ENDBRANCH  24  61
BRANCH   8  65
ATOM     65  C   UNL     1     138.967 171.807 185.164  0.00  0.00    -0.062 C 
ATOM     66  H   UNL     1     138.262 171.543 185.958  0.00  0.00    +0.023 HD
ATOM     67  H   UNL     1     139.401 170.881 184.770  0.00  0.00    +0.023 HD
ATOM     68  H   UNL     1     138.404 172.280 184.352  0.00  0.00    +0.023 HD
ENDBRANCH   8  65
BRANCH  14  69
ATOM     69  C   UNL     1     145.549 172.801 191.460  0.00  0.00    +0.020 C 
ATOM     70  H   UNL     1     145.592 171.738 191.735  0.00  0.00    +0.036 HD
BRANCH  69  71
ATOM     71  C   UNL     1     145.740 172.885 189.930  0.00  0.00    -0.057 C 
ATOM     72  H   UNL     1     146.763 173.160 189.658  0.00  0.00    +0.023 HD
ATOM     73  H   UNL     1     145.056 173.619 189.490  0.00  0.00    +0.023 HD
ATOM     74  H   UNL     1     145.553 171.923 189.440  0.00  0.00    +0.023 HD
ENDBRANCH  69  71
BRANCH  69  75
ATOM     75  C   UNL     1     146.647 173.569 192.245  0.00  0.00    +0.064 C 
ATOM     76  H   UNL     1     146.901 174.469 191.669  0.00  0.00    +0.060 HD
BRANCH  75  77
ATOM     77  C   UNL     1     147.962 172.800 192.536  0.00  0.00    -0.017 C 
ATOM     78  H   UNL     1     148.698 173.113 191.785  0.00  0.00    +0.032 HD
BRANCH  77  79
ATOM     79  C   UNL     1     148.579 173.244 193.876  0.00  0.00    -0.060 C 
ATOM     80  H   UNL     1     147.844 173.661 194.568  0.00  0.00    +0.023 HD
ATOM     81  H   UNL     1     149.338 174.017 193.706  0.00  0.00    +0.023 HD
ATOM     82  H   UNL     1     149.074 172.402 194.372  0.00  0.00    +0.023 HD
ENDBRANCH  77  79
BRANCH  77  83
ATOM     83  C   UNL     1     147.876 171.254 192.438  0.00  0.00    -0.045 C 
ATOM     84  H   UNL     1     146.883 171.024 192.028  0.00  0.00    +0.027 HD
ATOM     85  H   UNL     1     147.892 170.821 193.444  0.00  0.00    +0.027 HD
BRANCH  83  86
ATOM     86  C   UNL     1     148.944 170.550 191.592  0.00  0.00    -0.015 C 
ATOM     87  H   UNL     1     149.839 171.176 191.524  0.00  0.00    +0.030 HD
ATOM     88  H   UNL     1     148.603 170.454 190.558  0.00  0.00    +0.030 HD
BRANCH  86  89
ATOM     89  C   UNL     1     149.299 169.138 192.110  0.00  0.00    +0.109 C 
ATOM     90  H   UNL     1     148.938 169.038 193.144  0.00  0.00    +0.074 HD
BRANCH  89  91
ATOM     91  C   UNL     1     150.805 168.731 192.115  0.00  0.00    +0.031 C 
ATOM     92  H   UNL     1     151.051 168.631 193.181  0.00  0.00    +0.037 HD
BRANCH  91  93
ATOM     93  C   UNL     1     151.672 169.867 191.560  0.00  0.00    -0.056 C 
ATOM     94  H   UNL     1     152.411 170.204 192.296  0.00  0.00    +0.023 HD
ATOM     95  H   UNL     1     151.070 170.731 191.264  0.00  0.00    +0.023 HD
ATOM     96  H   UNL     1     152.244 169.532 190.691  0.00  0.00    +0.023 HD
ENDBRANCH  91  93
BRANCH  91  97
ATOM     97  C   UNL     1     151.119 167.361 191.438  0.00  0.00    +0.115 C 
ATOM     98  H   UNL     1     150.161 166.893 191.172  0.00  0.00    +0.074 HD
BRANCH  97  99
ATOM     99  C   UNL     1     152.033 167.393 190.168  0.00  0.00    +0.013 C 
ATOM    100  H   UNL     1     152.403 168.424 190.072  0.00  0.00    +0.038 HD
BRANCH  99 101
ATOM    101  C   UNL     1     151.276 167.141 188.859  0.00  0.00    -0.056 C 
ATOM    102  H   UNL     1     150.215 167.391 188.974  0.00  0.00    +0.024 HD
ATOM    103  H   UNL     1     151.335 166.086 188.570  0.00  0.00    +0.024 HD
ATOM    104  H   UNL     1     151.664 167.747 188.035  0.00  0.00    +0.024 HD
ENDBRANCH  99 101
BRANCH  99 105
ATOM    105  C   UNL     1     153.251 166.493 190.263  0.00  0.00    -0.064 C 
ATOM    106  C   UNL     1     153.751 165.854 189.195  0.00  0.00    -0.005 C 
ATOM    107  H   UNL     1     153.677 166.360 191.250  0.00  0.00    +0.059 HD
ATOM    108  H   UNL     1     153.271 166.007 188.228  0.00  0.00    +0.078 HD
BRANCH 106 109
ATOM    109  N   UNL     1     154.844 165.002 189.154  0.00  0.00    -0.284 N 
ATOM    110  C   UNL     1     156.173 165.401 189.141  0.00  0.00    +0.206 C 
ATOM    111  O   UNL     1     157.152 164.664 189.080  0.00  0.00    -0.279 OA
ATOM    112  H   UNL     1     156.309 166.489 189.180  0.00  0.00    +0.126 HD
BRANCH 109 113
ATOM    113  C   UNL     1     154.563 163.570 189.088  0.00  0.00    +0.007 C 
ATOM    114  H   UNL     1     153.490 163.366 189.012  0.00  0.00    +0.043 HD
ATOM    115  H   UNL     1     155.061 163.144 188.210  0.00  0.00    +0.043 HD
ATOM    116  H   UNL     1     154.944 163.093 189.996  0.00  0.00    +0.043 HD
ENDBRANCH 109 113
ENDBRANCH 106 109
ENDBRANCH  99 105
ENDBRANCH  97  99
BRANCH  97 117
ATOM    117  O   UNL     1     151.784 166.522 192.419  0.00  0.00    -0.461 OA
BRANCH 117 118
ATOM    118  C   UNL     1     151.000 165.948 193.371  0.00  0.00    +0.304 C 
ATOM    119  O   UNL     1     149.911 165.426 193.179  0.00  0.00    -0.251 OA
BRANCH 118 120
ATOM    120  C   UNL     1     151.672 166.040 194.706  0.00  0.00    +0.033 C 
ATOM    121  H   UNL     1     152.686 165.638 194.629  0.00  0.00    +0.034 HD
ATOM    122  H   UNL     1     151.737 167.086 195.017  0.00  0.00    +0.034 HD
ATOM    123  H   UNL     1     151.116 165.453 195.441  0.00  0.00    +0.034 HD
ENDBRANCH 118 120
ENDBRANCH 117 118
ENDBRANCH  97 117
ENDBRANCH  91  97
ENDBRANCH  89  91
BRANCH  89 124
ATOM    124  O   UNL     1     148.578 168.164 191.311  0.00  0.00    -0.460 OA
BRANCH 124 125
ATOM    125  C   UNL     1     147.416 167.687 191.850  0.00  0.00    +0.324 C 
ATOM    126  O   UNL     1     147.253 167.436 193.039  0.00  0.00    -0.249 OA
BRANCH 125 127
ATOM    127  C   UNL     1     146.350 167.540 190.749  0.00  0.00    +0.105 C 
ATOM    128  H   UNL     1     146.209 166.472 190.538  0.00  0.00    +0.058 HD
BRANCH 127 129
ATOM    129  C   UNL     1     146.941 168.212 189.504  0.00  0.00    -0.039 C 
ATOM    130  H   UNL     1     146.823 169.301 189.546  0.00  0.00    +0.025 HD
ATOM    131  H   UNL     1     146.467 167.848 188.586  0.00  0.00    +0.025 HD
ATOM    132  H   UNL     1     148.014 168.006 189.421  0.00  0.00    +0.025 HD
ENDBRANCH 127 129
BRANCH 127 133
ATOM    133  N   UNL     1     145.053 168.133 191.186  0.00  0.00    -0.296 NA
BRANCH 133 134
ATOM    134  C   UNL     1     144.647 169.264 190.348  0.00  0.00    -0.012 C 
ATOM    135  H   UNL     1     144.405 170.135 190.967  0.00  0.00    +0.039 HD
ATOM    136  H   UNL     1     143.772 169.026 189.734  0.00  0.00    +0.039 HD
ATOM    137  H   UNL     1     145.462 169.584 189.692  0.00  0.00    +0.039 HD
ENDBRANCH 133 134
BRANCH 133 138
ATOM    138  C   UNL     1     143.984 167.125 191.186  0.00  0.00    -0.012 C 
ATOM    139  H   UNL     1     144.394 166.132 190.971  0.00  0.00    +0.039 HD
ATOM    140  H   UNL     1     143.464 167.081 192.149  0.00  0.00    +0.039 HD
ATOM    141  H   UNL     1     143.245 167.320 190.403  0.00  0.00    +0.039 HD
ENDBRANCH 133 138
ENDBRANCH 127 133
ENDBRANCH 125 127
ENDBRANCH 124 125
ENDBRANCH  89 124
ENDBRANCH  86  89
ENDBRANCH  83  86
ENDBRANCH  77  83
ENDBRANCH  75  77
BRANCH  75 142
ATOM    142  O   UNL     1     146.071 174.006 193.477  0.00  0.00    -0.391 OA
ATOM    143  H   UNL     1     145.661 173.238 193.909  0.00  0.00    +0.210 HD
ENDBRANCH  75 142
ENDBRANCH  69  75
ENDBRANCH  14  69
BRANCH  25 144
ATOM    144  O   UNL     1     145.504 181.104 186.264  0.00  0.00    -0.391 OA
ATOM    145  H   UNL     1     144.985 181.899 186.064  0.00  0.00    +0.210 HD
ENDBRANCH  25 144
BRANCH  23 146
ATOM    146  O   UNL     1     144.572 180.806 189.001  0.00  0.00    -0.460 OA
BRANCH 146 147
ATOM    147  C   UNL     1     145.146 181.633 189.911  0.00  0.00    +0.327 C 
ATOM    148  O   UNL     1     144.749 181.791 191.063  0.00  0.00    -0.249 OA
BRANCH 147 149
ATOM    149  C   UNL     1     146.411 182.300 189.351  0.00  0.00    +0.131 C 
ATOM    150  H   UNL     1     146.177 182.528 188.301  0.00  0.00    +0.060 HD
BRANCH 149 151
ATOM    151  C   UNL     1     147.546 181.247 189.318  0.00  0.00    +0.073 C 
ATOM    152  H   UNL     1     148.400 181.591 189.917  0.00  0.00    +0.058 HD
ATOM    153  H   UNL     1     147.180 180.312 189.761  0.00  0.00    +0.058 HD
BRANCH 151 154
ATOM    154  O   UNL     1     147.993 180.959 187.985  0.00  0.00    -0.381 OA
BRANCH 154 155
ATOM    155  C   UNL     1     148.540 182.116 187.366  0.00  0.00    +0.037 C 
ATOM    156  H   UNL     1     147.797 182.587 186.716  0.00  0.00    +0.052 HD
ATOM    157  H   UNL     1     148.889 182.826 188.122  0.00  0.00    +0.052 HD
ATOM    158  H   UNL     1     149.392 181.807 186.754  0.00  0.00    +0.052 HD
ENDBRANCH 154 155
ENDBRANCH 151 154
ENDBRANCH 149 151
BRANCH 149 159
ATOM    159  N   UNL     1     146.709 183.580 190.071  0.00  0.00    -0.294 NA
BRANCH 159 160
ATOM    160  C   UNL     1     146.590 184.738 189.179  0.00  0.00    -0.012 C 
ATOM    161  H   UNL     1     146.682 185.687 189.722  0.00  0.00    +0.039 HD
ATOM    162  H   UNL     1     145.621 184.733 188.666  0.00  0.00    +0.039 HD
ATOM    163  H   UNL     1     147.345 184.714 188.387  0.00  0.00    +0.039 HD
ENDBRANCH 159 160
BRANCH 159 164
ATOM    164  C   UNL     1     148.039 183.569 190.682  0.00  0.00    -0.012 C 
ATOM    165  H   UNL     1     148.139 182.722 191.373  0.00  0.00    +0.039 HD
ATOM    166  H   UNL     1     148.826 183.431 189.934  0.00  0.00    +0.039 HD
ATOM    167  H   UNL     1     148.245 184.490 191.239  0.00  0.00    +0.039 HD
ENDBRANCH 159 164
ENDBRANCH 149 159
ENDBRANCH 147 149
ENDBRANCH 146 147
ENDBRANCH  23 146
BRANCH   4 168
ATOM    168  O   UNL     1     144.916 175.615 184.050  0.00  0.00    -0.376 OA
BRANCH 168 169
ATOM    169  C   UNL     1     146.281 175.433 184.410  0.00  0.00    +0.037 C 
ATOM    170  H   UNL     1     146.594 174.449 184.056  0.00  0.00    +0.052 HD
ATOM    171  H   UNL     1     146.402 175.455 185.496  0.00  0.00    +0.052 HD
ATOM    172  H   UNL     1     146.915 176.188 183.940  0.00  0.00    +0.052 HD
ENDBRANCH 168 169
ENDBRANCH   4 168
BRANCH  10 173
ATOM    173  O   UNL     1     139.861 174.487 188.088  0.00  0.00    -0.376 OA
BRANCH 173 174
ATOM    174  C   UNL     1     138.867 174.099 189.025  0.00  0.00    +0.037 C 
ATOM    175  H   UNL     1     139.248 173.318 189.686  0.00  0.00    +0.052 HD
ATOM    176  H   UNL     1     138.013 173.697 188.474  0.00  0.00    +0.052 HD
ATOM    177  H   UNL     1     138.528 174.962 189.605  0.00  0.00    +0.052 HD
ENDBRANCH 173 174
ENDBRANCH  10 173
TORSDOF 45
ENDMDL
MODEL 8
REMARK VINA RESULT:      -4.6      7.127     13.442
REMARK  Name = Aplyronine A_conf3
REMARK  45 active torsions:
REMARK  status: ('A' for Active; 'I' for Inactive)
REMARK    1  A    between atoms: C_1  and  C_2
REMARK    2  A    between atoms: C_5  and  O_75
REMARK    3  A    between atoms: C_6  and  C_74
REMARK    4  A    between atoms: C_9  and  C_73
REMARK    5  A    between atoms: C_11  and  O_71
REMARK    6  A    between atoms: C_15  and  C_39
REMARK    7  A    between atoms: C_24  and  O_29
REMARK    8  A    between atoms: C_25  and  C_28
REMARK    9  A    between atoms: C_26  and  O_27
REMARK   10  A    between atoms: O_29  and  C_30
REMARK   11  A    between atoms: C_30  and  C_32
REMARK   12  A    between atoms: C_32  and  C_33
REMARK   13  A    between atoms: C_32  and  N_36
REMARK   14  A    between atoms: C_33  and  O_34
REMARK   15  A    between atoms: O_34  and  C_35
REMARK   16  A    between atoms: N_36  and  C_37
REMARK   17  A    between atoms: N_36  and  C_38
REMARK   18  A    between atoms: C_39  and  C_40
REMARK   19  A    between atoms: C_39  and  C_41
REMARK   20  A    between atoms: C_41  and  C_42
REMARK   21  A    between atoms: C_41  and  O_70
REMARK   22  A    between atoms: C_42  and  C_43
REMARK   23  A    between atoms: C_42  and  C_44
REMARK   24  A    between atoms: C_44  and  C_45
REMARK   25  A    between atoms: C_45  and  C_46
REMARK   26  A    between atoms: C_46  and  C_47
REMARK   27  A    between atoms: C_46  and  O_62
REMARK   28  A    between atoms: C_47  and  C_48
REMARK   29  A    between atoms: C_47  and  C_49
REMARK   30  A    between atoms: C_49  and  C_50
REMARK   31  A    between atoms: C_49  and  O_58
REMARK   32  A    between atoms: C_50  and  C_51
REMARK   33  A    between atoms: C_50  and  C_52
REMARK   34  A    between atoms: C_53  and  N_54
REMARK   35  A    between atoms: N_54  and  C_55
REMARK   36  A    between atoms: O_58  and  C_59
REMARK   37  A    between atoms: C_59  and  C_61
REMARK   38  A    between atoms: O_62  and  C_63
REMARK   39  A    between atoms: C_63  and  C_65
REMARK   40  A    between atoms: C_65  and  C_66
REMARK   41  A    between atoms: C_65  and  N_67
REMARK   42  A    between atoms: N_67  and  C_68
REMARK   43  A    between atoms: N_67  and  C_69
REMARK   44  A    between atoms: O_71  and  C_72
REMARK   45  A    between atoms: O_75  and  C_76
REMARK                            x       y       z     vdW  Elec       q    Type
REMARK                         _______ _______ _______ _____ _____    ______ ____
ROOT
ATOM      1  C   UNL     1     145.988 178.507 184.681  0.00  0.00    -0.017 C 
ATOM      2  C   UNL     1     144.574 177.901 184.532  0.00  0.00    -0.045 C 
ATOM      3  C   UNL     1     144.177 176.922 185.652  0.00  0.00    -0.022 C 
ATOM      4  C   UNL     1     143.748 175.509 185.178  0.00  0.00    +0.079 C 
ATOM      5  C   UNL     1     142.338 175.396 184.590  0.00  0.00    -0.048 C 
ATOM      6  C   UNL     1     141.492 174.459 185.073  0.00  0.00    -0.082 C 
ATOM      7  C   UNL     1     140.102 174.124 184.608  0.00  0.00    -0.032 C 
ATOM      8  C   UNL     1     138.963 174.878 185.327  0.00  0.00    -0.038 C 
ATOM      9  C   UNL     1     138.956 174.660 186.862  0.00  0.00    -0.020 C 
ATOM     10  C   UNL     1     139.855 175.647 187.625  0.00  0.00    +0.077 C 
ATOM     11  C   UNL     1     139.846 175.345 189.100  0.00  0.00    -0.059 C 
ATOM     12  C   UNL     1     140.797 174.655 189.751  0.00  0.00    -0.082 C 
ATOM     13  C   UNL     1     140.808 174.511 191.253  0.00  0.00    +0.003 C 
ATOM     14  C   UNL     1     142.167 174.825 191.925  0.00  0.00    +0.112 C 
ATOM     15  O   UNL     1     142.797 175.951 191.262  0.00  0.00    -0.458 OA
ATOM     16  C   UNL     1     142.272 177.187 191.409  0.00  0.00    +0.332 C 
ATOM     17  O   UNL     1     141.320 177.514 192.093  0.00  0.00    -0.246 OA
ATOM     18  C   UNL     1     143.083 178.062 190.546  0.00  0.00    +0.022 C 
ATOM     19  C   UNL     1     142.696 179.289 190.171  0.00  0.00    -0.055 C 
ATOM     20  C   UNL     1     143.541 180.053 189.288  0.00  0.00    -0.065 C 
ATOM     21  C   UNL     1     143.347 181.325 188.912  0.00  0.00    -0.081 C 
ATOM     22  C   UNL     1     144.297 182.163 188.075  0.00  0.00    +0.003 C 
ATOM     23  C   UNL     1     145.517 181.486 187.383  0.00  0.00    +0.111 C 
ATOM     24  C   UNL     1     145.111 180.571 186.175  0.00  0.00    +0.020 C 
ATOM     25  C   UNL     1     146.182 179.476 185.886  0.00  0.00    +0.064 C 
ATOM     26  H   UNL     1     146.676 177.667 184.865  0.00  0.00    +0.032 HD
ATOM     27  H   UNL     1     144.528 177.396 183.563  0.00  0.00    +0.027 HD
ATOM     28  H   UNL     1     143.828 178.699 184.477  0.00  0.00    +0.027 HD
ATOM     29  H   UNL     1     145.035 176.785 186.322  0.00  0.00    +0.029 HD
ATOM     30  H   UNL     1     143.381 177.364 186.264  0.00  0.00    +0.029 HD
ATOM     31  H   UNL     1     143.811 174.875 186.073  0.00  0.00    +0.064 HD
ATOM     32  H   UNL     1     141.840 173.817 185.885  0.00  0.00    +0.057 HD
ATOM     33  H   UNL     1     139.964 173.042 184.742  0.00  0.00    +0.031 HD
ATOM     34  H   UNL     1     140.019 174.280 183.525  0.00  0.00    +0.031 HD
ATOM     35  H   UNL     1     139.058 175.949 185.109  0.00  0.00    +0.030 HD
ATOM     36  H   UNL     1     139.240 173.625 187.090  0.00  0.00    +0.030 HD
ATOM     37  H   UNL     1     137.928 174.794 187.228  0.00  0.00    +0.030 HD
ATOM     38  H   UNL     1     140.881 175.615 187.250  0.00  0.00    +0.064 HD
ATOM     39  H   UNL     1     139.019 175.781 189.659  0.00  0.00    +0.059 HD
ATOM     40  H   UNL     1     141.625 174.208 189.205  0.00  0.00    +0.057 HD
ATOM     41  H   UNL     1     140.436 173.524 191.536  0.00  0.00    +0.034 HD
ATOM     42  H   UNL     1     140.074 175.217 191.668  0.00  0.00    +0.034 HD
ATOM     43  H   UNL     1     141.972 175.104 192.969  0.00  0.00    +0.074 HD
ATOM     44  H   UNL     1     144.025 177.642 190.205  0.00  0.00    +0.069 HD
ATOM     45  H   UNL     1     141.760 179.714 190.521  0.00  0.00    +0.062 HD
ATOM     46  H   UNL     1     144.429 179.521 188.957  0.00  0.00    +0.061 HD
ATOM     47  H   UNL     1     142.465 181.853 189.270  0.00  0.00    +0.057 HD
ATOM     48  H   UNL     1     143.701 182.693 187.325  0.00  0.00    +0.034 HD
ATOM     49  H   UNL     1     144.682 182.936 188.752  0.00  0.00    +0.034 HD
ATOM     50  H   UNL     1     146.175 182.275 186.993  0.00  0.00    +0.074 HD
ATOM     51  H   UNL     1     144.184 180.045 186.434  0.00  0.00    +0.036 HD
ATOM     52  H   UNL     1     146.202 178.830 186.773  0.00  0.00    +0.060 HD
ENDROOT
BRANCH   1  53
ATOM     53  C   UNL     1     146.457 179.073 183.330  0.00  0.00    -0.060 C 
ATOM     54  H   UNL     1     147.519 178.849 183.176  0.00  0.00    +0.023 HD
ATOM     55  H   UNL     1     146.365 180.162 183.296  0.00  0.00    +0.023 HD
ATOM     56  H   UNL     1     145.913 178.654 182.483  0.00  0.00    +0.023 HD
ENDBRANCH   1  53
BRANCH   5  57
ATOM     57  C   UNL     1     141.979 176.319 183.459  0.00  0.00    -0.041 C 
ATOM     58  H   UNL     1     142.488 177.281 183.572  0.00  0.00    +0.028 HD
ATOM     59  H   UNL     1     142.262 175.875 182.498  0.00  0.00    +0.028 HD
ATOM     60  H   UNL     1     140.911 176.542 183.402  0.00  0.00    +0.028 HD
ENDBRANCH   5  57
BRANCH  24  61
ATOM     61  C   UNL     1     144.804 181.463 184.964  0.00  0.00    -0.057 C 
ATOM     62  H   UNL     1     144.629 180.873 184.059  0.00  0.00    +0.023 HD
ATOM     63  H   UNL     1     143.914 182.074 185.134  0.00  0.00    +0.023 HD
ATOM     64  H   UNL     1     145.642 182.124 184.734  0.00  0.00    +0.023 HD
ENDBRANCH  24  61
BRANCH   8  65
ATOM     65  C   UNL     1     137.623 174.414 184.742  0.00  0.00    -0.062 C 
ATOM     66  H   UNL     1     136.901 175.236 184.702  0.00  0.00    +0.023 HD
ATOM     67  H   UNL     1     137.189 173.609 185.346  0.00  0.00    +0.023 HD
ATOM     68  H   UNL     1     137.756 174.028 183.725  0.00  0.00    +0.023 HD
ENDBRANCH   8  65
BRANCH  14  69
ATOM     69  C   UNL     1     143.249 173.691 191.936  0.00  0.00    +0.020 C 
ATOM     70  H   UNL     1     143.710 173.676 192.934  0.00  0.00    +0.036 HD
BRANCH  69  71
ATOM     71  C   UNL     1     142.510 172.347 191.756  0.00  0.00    -0.057 C 
ATOM     72  H   UNL     1     141.424 172.469 191.782  0.00  0.00    +0.023 HD
ATOM     73  H   UNL     1     142.797 171.635 192.537  0.00  0.00    +0.023 HD
ATOM     74  H   UNL     1     142.732 171.883 190.788  0.00  0.00    +0.023 HD
ENDBRANCH  69  71
BRANCH  69  75
ATOM     75  C   UNL     1     144.359 173.912 190.872  0.00  0.00    +0.064 C 
ATOM     76  H   UNL     1     144.152 174.863 190.365  0.00  0.00    +0.060 HD
BRANCH  75  77
ATOM     77  C   UNL     1     144.512 172.814 189.787  0.00  0.00    -0.017 C 
ATOM     78  H   UNL     1     143.835 171.993 190.054  0.00  0.00    +0.032 HD
BRANCH  77  79
ATOM     79  C   UNL     1     143.989 173.305 188.424  0.00  0.00    -0.060 C 
ATOM     80  H   UNL     1     143.306 172.597 187.948  0.00  0.00    +0.023 HD
ATOM     81  H   UNL     1     144.825 173.463 187.732  0.00  0.00    +0.023 HD
ATOM     82  H   UNL     1     143.467 174.262 188.532  0.00  0.00    +0.023 HD
ENDBRANCH  77  79
BRANCH  77  83
ATOM     83  C   UNL     1     145.923 172.184 189.657  0.00  0.00    -0.045 C 
ATOM     84  H   UNL     1     146.193 171.819 190.657  0.00  0.00    +0.027 HD
ATOM     85  H   UNL     1     146.653 172.966 189.417  0.00  0.00    +0.027 HD
BRANCH  83  86
ATOM     86  C   UNL     1     146.087 171.044 188.645  0.00  0.00    -0.015 C 
ATOM     87  H   UNL     1     147.054 171.130 188.139  0.00  0.00    +0.030 HD
ATOM     88  H   UNL     1     145.353 171.145 187.841  0.00  0.00    +0.030 HD
BRANCH  86  89
ATOM     89  C   UNL     1     145.917 169.643 189.272  0.00  0.00    +0.109 C 
ATOM     90  H   UNL     1     145.621 169.757 190.324  0.00  0.00    +0.074 HD
BRANCH  89  91
ATOM     91  C   UNL     1     147.153 168.690 189.252  0.00  0.00    +0.031 C 
ATOM     92  H   UNL     1     148.006 169.363 189.084  0.00  0.00    +0.037 HD
BRANCH  91  93
ATOM     93  C   UNL     1     147.085 167.745 188.047  0.00  0.00    -0.056 C 
ATOM     94  H   UNL     1     146.407 166.905 188.233  0.00  0.00    +0.023 HD
ATOM     95  H   UNL     1     148.069 167.339 187.793  0.00  0.00    +0.023 HD
ATOM     96  H   UNL     1     146.689 168.261 187.169  0.00  0.00    +0.023 HD
ENDBRANCH  91  93
BRANCH  91  97
ATOM     97  C   UNL     1     147.421 167.930 190.588  0.00  0.00    +0.115 C 
ATOM     98  H   UNL     1     147.552 166.866 190.345  0.00  0.00    +0.074 HD
BRANCH  97  99
ATOM     99  C   UNL     1     148.646 168.406 191.438  0.00  0.00    +0.013 C 
ATOM    100  H   UNL     1     149.540 167.960 190.980  0.00  0.00    +0.038 HD
BRANCH  99 101
ATOM    101  C   UNL     1     148.647 167.862 192.871  0.00  0.00    -0.056 C 
ATOM    102  H   UNL     1     149.672 167.789 193.255  0.00  0.00    +0.024 HD
ATOM    103  H   UNL     1     148.211 166.858 192.910  0.00  0.00    +0.024 HD
ATOM    104  H   UNL     1     148.090 168.507 193.558  0.00  0.00    +0.024 HD
ENDBRANCH  99 101
BRANCH  99 105
ATOM    105  C   UNL     1     148.850 169.908 191.437  0.00  0.00    -0.064 C 
ATOM    106  C   UNL     1     148.332 170.700 192.387  0.00  0.00    -0.005 C 
ATOM    107  H   UNL     1     149.407 170.319 190.603  0.00  0.00    +0.059 HD
ATOM    108  H   UNL     1     147.761 170.237 193.192  0.00  0.00    +0.078 HD
BRANCH 106 109
ATOM    109  N   UNL     1     148.437 172.079 192.490  0.00  0.00    -0.284 N 
ATOM    110  C   UNL     1     147.957 172.844 193.543  0.00  0.00    +0.206 C 
ATOM    111  O   UNL     1     148.020 174.066 193.641  0.00  0.00    -0.279 OA
ATOM    112  H   UNL     1     147.475 172.256 194.334  0.00  0.00    +0.126 HD
BRANCH 109 113
ATOM    113  C   UNL     1     149.082 172.777 191.380  0.00  0.00    +0.007 C 
ATOM    114  H   UNL     1     149.336 172.097 190.561  0.00  0.00    +0.043 HD
ATOM    115  H   UNL     1     148.405 173.547 190.996  0.00  0.00    +0.043 HD
ATOM    116  H   UNL     1     150.003 173.243 191.743  0.00  0.00    +0.043 HD
ENDBRANCH 109 113
ENDBRANCH 106 109
ENDBRANCH  99 105
ENDBRANCH  97  99
BRANCH  97 117
ATOM    117  O   UNL     1     146.243 168.070 191.425  0.00  0.00    -0.461 OA
BRANCH 117 118
ATOM    118  C   UNL     1     145.641 166.922 191.838  0.00  0.00    +0.304 C 
ATOM    119  O   UNL     1     144.951 166.799 192.840  0.00  0.00    -0.251 OA
BRANCH 118 120
ATOM    120  C   UNL     1     145.941 165.816 190.875  0.00  0.00    +0.033 C 
ATOM    121  H   UNL     1     146.739 166.133 190.197  0.00  0.00    +0.034 HD
ATOM    122  H   UNL     1     146.281 164.931 191.420  0.00  0.00    +0.034 HD
ATOM    123  H   UNL     1     145.049 165.587 190.286  0.00  0.00    +0.034 HD
ENDBRANCH 118 120
ENDBRANCH 117 118
ENDBRANCH  97 117
ENDBRANCH  91  97
ENDBRANCH  89  91
BRANCH  89 124
ATOM    124  O   UNL     1     144.826 168.968 188.593  0.00  0.00    -0.460 OA
BRANCH 124 125
ATOM    125  C   UNL     1     143.589 169.108 189.159  0.00  0.00    +0.324 C 
ATOM    126  O   UNL     1     143.385 169.249 190.359  0.00  0.00    -0.249 OA
BRANCH 125 127
ATOM    127  C   UNL     1     142.508 169.087 188.063  0.00  0.00    +0.105 C 
ATOM    128  H   UNL     1     142.399 168.057 187.698  0.00  0.00    +0.058 HD
BRANCH 127 129
ATOM    129  C   UNL     1     143.051 169.956 186.923  0.00  0.00    -0.039 C 
ATOM    130  H   UNL     1     143.931 169.499 186.459  0.00  0.00    +0.025 HD
ATOM    131  H   UNL     1     143.325 170.956 187.275  0.00  0.00    +0.025 HD
ATOM    132  H   UNL     1     142.298 170.082 186.136  0.00  0.00    +0.025 HD
ENDBRANCH 127 129
BRANCH 127 133
ATOM    133  N   UNL     1     141.200 169.560 188.601  0.00  0.00    -0.296 NA
BRANCH 133 134
ATOM    134  C   UNL     1     140.993 170.994 188.382  0.00  0.00    -0.012 C 
ATOM    135  H   UNL     1     141.643 171.581 189.040  0.00  0.00    +0.039 HD
ATOM    136  H   UNL     1     139.956 171.292 188.570  0.00  0.00    +0.039 HD
ATOM    137  H   UNL     1     141.265 171.282 187.363  0.00  0.00    +0.039 HD
ENDBRANCH 133 134
BRANCH 133 138
ATOM    138  C   UNL     1     140.082 168.816 188.006  0.00  0.00    -0.012 C 
ATOM    139  H   UNL     1     140.380 167.784 187.788  0.00  0.00    +0.039 HD
ATOM    140  H   UNL     1     139.210 168.788 188.668  0.00  0.00    +0.039 HD
ATOM    141  H   UNL     1     139.775 169.246 187.048  0.00  0.00    +0.039 HD
ENDBRANCH 133 138
ENDBRANCH 127 133
ENDBRANCH 125 127
ENDBRANCH 124 125
ENDBRANCH  89 124
ENDBRANCH  86  89
ENDBRANCH  83  86
ENDBRANCH  77  83
ENDBRANCH  75  77
BRANCH  75 142
ATOM    142  O   UNL     1     145.599 174.066 191.567  0.00  0.00    -0.391 OA
ATOM    143  H   UNL     1     146.299 173.663 191.028  0.00  0.00    +0.210 HD
ENDBRANCH  75 142
ENDBRANCH  69  75
ENDBRANCH  14  69
BRANCH  25 144
ATOM    144  O   UNL     1     147.487 180.061 185.819  0.00  0.00    -0.391 OA
ATOM    145  H   UNL     1     147.514 180.663 185.059  0.00  0.00    +0.210 HD
ENDBRANCH  25 144
BRANCH  23 146
ATOM    146  O   UNL     1     146.241 180.717 188.363  0.00  0.00    -0.460 OA
BRANCH 146 147
ATOM    147  C   UNL     1     147.290 181.301 188.994  0.00  0.00    +0.327 C 
ATOM    148  O   UNL     1     147.957 180.773 189.880  0.00  0.00    -0.249 OA
BRANCH 147 149
ATOM    149  C   UNL     1     147.601 182.687 188.410  0.00  0.00    +0.131 C 
ATOM    150  H   UNL     1     146.975 182.770 187.510  0.00  0.00    +0.060 HD
BRANCH 149 151
ATOM    151  C   UNL     1     149.069 182.691 187.913  0.00  0.00    +0.073 C 
ATOM    152  H   UNL     1     149.410 183.722 187.749  0.00  0.00    +0.058 HD
ATOM    153  H   UNL     1     149.709 182.243 188.683  0.00  0.00    +0.058 HD
BRANCH 151 154
ATOM    154  O   UNL     1     149.242 181.941 186.702  0.00  0.00    -0.381 OA
BRANCH 154 155
ATOM    155  C   UNL     1     150.253 182.513 185.883  0.00  0.00    +0.037 C 
ATOM    156  H   UNL     1     149.868 182.698 184.876  0.00  0.00    +0.052 HD
ATOM    157  H   UNL     1     150.623 183.442 186.325  0.00  0.00    +0.052 HD
ATOM    158  H   UNL     1     151.081 181.802 185.814  0.00  0.00    +0.052 HD
ENDBRANCH 154 155
ENDBRANCH 151 154
ENDBRANCH 149 151
BRANCH 149 159
ATOM    159  N   UNL     1     147.219 183.773 189.369  0.00  0.00    -0.294 NA
BRANCH 159 160
ATOM    160  C   UNL     1     146.725 184.961 188.665  0.00  0.00    -0.012 C 
ATOM    161  H   UNL     1     146.054 185.561 189.291  0.00  0.00    +0.039 HD
ATOM    162  H   UNL     1     146.179 184.675 187.759  0.00  0.00    +0.039 HD
ATOM    163  H   UNL     1     147.548 185.598 188.326  0.00  0.00    +0.039 HD
ENDBRANCH 159 160
BRANCH 159 164
ATOM    164  C   UNL     1     148.332 184.150 190.243  0.00  0.00    -0.012 C 
ATOM    165  H   UNL     1     149.292 183.884 189.782  0.00  0.00    +0.039 HD
ATOM    166  H   UNL     1     148.372 185.232 190.402  0.00  0.00    +0.039 HD
ATOM    167  H   UNL     1     148.275 183.656 191.219  0.00  0.00    +0.039 HD
ENDBRANCH 159 164
ENDBRANCH 149 159
ENDBRANCH 147 149
ENDBRANCH 146 147
ENDBRANCH  23 146
BRANCH   4 168
ATOM    168  O   UNL     1     144.728 175.035 184.239  0.00  0.00    -0.376 OA
BRANCH 168 169
ATOM    169  C   UNL     1     145.629 174.085 184.798  0.00  0.00    +0.037 C 
ATOM    170  H   UNL     1     145.742 174.313 185.860  0.00  0.00    +0.052 HD
ATOM    171  H   UNL     1     146.614 174.163 184.330  0.00  0.00    +0.052 HD
ATOM    172  H   UNL     1     145.240 173.070 184.701  0.00  0.00    +0.052 HD
ENDBRANCH 168 169
ENDBRANCH   4 168
BRANCH  10 173
ATOM    173  O   UNL     1     139.315 176.961 187.420  0.00  0.00    -0.376 OA
BRANCH 173 174
ATOM    174  C   UNL     1     140.313 177.968 187.328  0.00  0.00    +0.037 C 
ATOM    175  H   UNL     1     140.448 178.280 186.290  0.00  0.00    +0.052 HD
ATOM    176  H   UNL     1     141.258 177.549 187.688  0.00  0.00    +0.052 HD
ATOM    177  H   UNL     1     140.054 178.824 187.957  0.00  0.00    +0.052 HD
ENDBRANCH 173 174
ENDBRANCH  10 173
TORSDOF 45
ENDMDL
MODEL 9
REMARK VINA RESULT:      -4.6      3.443      8.697
REMARK  Name = Aplyronine A_conf3
REMARK  45 active torsions:
REMARK  status: ('A' for Active; 'I' for Inactive)
REMARK    1  A    between atoms: C_1  and  C_2
REMARK    2  A    between atoms: C_5  and  O_75
REMARK    3  A    between atoms: C_6  and  C_74
REMARK    4  A    between atoms: C_9  and  C_73
REMARK    5  A    between atoms: C_11  and  O_71
REMARK    6  A    between atoms: C_15  and  C_39
REMARK    7  A    between atoms: C_24  and  O_29
REMARK    8  A    between atoms: C_25  and  C_28
REMARK    9  A    between atoms: C_26  and  O_27
REMARK   10  A    between atoms: O_29  and  C_30
REMARK   11  A    between atoms: C_30  and  C_32
REMARK   12  A    between atoms: C_32  and  C_33
REMARK   13  A    between atoms: C_32  and  N_36
REMARK   14  A    between atoms: C_33  and  O_34
REMARK   15  A    between atoms: O_34  and  C_35
REMARK   16  A    between atoms: N_36  and  C_37
REMARK   17  A    between atoms: N_36  and  C_38
REMARK   18  A    between atoms: C_39  and  C_40
REMARK   19  A    between atoms: C_39  and  C_41
REMARK   20  A    between atoms: C_41  and  C_42
REMARK   21  A    between atoms: C_41  and  O_70
REMARK   22  A    between atoms: C_42  and  C_43
REMARK   23  A    between atoms: C_42  and  C_44
REMARK   24  A    between atoms: C_44  and  C_45
REMARK   25  A    between atoms: C_45  and  C_46
REMARK   26  A    between atoms: C_46  and  C_47
REMARK   27  A    between atoms: C_46  and  O_62
REMARK   28  A    between atoms: C_47  and  C_48
REMARK   29  A    between atoms: C_47  and  C_49
REMARK   30  A    between atoms: C_49  and  C_50
REMARK   31  A    between atoms: C_49  and  O_58
REMARK   32  A    between atoms: C_50  and  C_51
REMARK   33  A    between atoms: C_50  and  C_52
REMARK   34  A    between atoms: C_53  and  N_54
REMARK   35  A    between atoms: N_54  and  C_55
REMARK   36  A    between atoms: O_58  and  C_59
REMARK   37  A    between atoms: C_59  and  C_61
REMARK   38  A    between atoms: O_62  and  C_63
REMARK   39  A    between atoms: C_63  and  C_65
REMARK   40  A    between atoms: C_65  and  C_66
REMARK   41  A    between atoms: C_65  and  N_67
REMARK   42  A    between atoms: N_67  and  C_68
REMARK   43  A    between atoms: N_67  and  C_69
REMARK   44  A    between atoms: O_71  and  C_72
REMARK   45  A    between atoms: O_75  and  C_76
REMARK                            x       y       z     vdW  Elec       q    Type
REMARK                         _______ _______ _______ _____ _____    ______ ____
ROOT
ATOM      1  C   UNL     1     146.625 166.398 184.447  0.00  0.00    -0.017 C 
ATOM      2  C   UNL     1     145.759 166.199 185.711  0.00  0.00    -0.045 C 
ATOM      3  C   UNL     1     146.075 167.172 186.862  0.00  0.00    -0.022 C 
ATOM      4  C   UNL     1     146.433 166.506 188.216  0.00  0.00    +0.079 C 
ATOM      5  C   UNL     1     145.258 165.946 189.022  0.00  0.00    -0.048 C 
ATOM      6  C   UNL     1     145.109 166.308 190.316  0.00  0.00    -0.082 C 
ATOM      7  C   UNL     1     144.083 165.835 191.309  0.00  0.00    -0.032 C 
ATOM      8  C   UNL     1     142.800 166.688 191.391  0.00  0.00    -0.038 C 
ATOM      9  C   UNL     1     143.070 168.173 191.742  0.00  0.00    -0.020 C 
ATOM     10  C   UNL     1     143.365 169.050 190.513  0.00  0.00    +0.077 C 
ATOM     11  C   UNL     1     143.673 170.463 190.929  0.00  0.00    -0.059 C 
ATOM     12  C   UNL     1     144.908 170.980 191.046  0.00  0.00    -0.082 C 
ATOM     13  C   UNL     1     145.151 172.443 191.322  0.00  0.00    +0.003 C 
ATOM     14  C   UNL     1     146.184 173.118 190.388  0.00  0.00    +0.112 C 
ATOM     15  O   UNL     1     146.031 172.612 189.037  0.00  0.00    -0.458 OA
ATOM     16  C   UNL     1     144.938 172.954 188.319  0.00  0.00    +0.332 C 
ATOM     17  O   UNL     1     144.037 173.704 188.648  0.00  0.00    -0.246 OA
ATOM     18  C   UNL     1     145.050 172.208 187.054  0.00  0.00    +0.022 C 
ATOM     19  C   UNL     1     144.024 172.030 186.212  0.00  0.00    -0.055 C 
ATOM     20  C   UNL     1     144.224 171.247 185.018  0.00  0.00    -0.065 C 
ATOM     21  C   UNL     1     143.334 171.068 184.031  0.00  0.00    -0.081 C 
ATOM     22  C   UNL     1     143.586 170.339 182.724  0.00  0.00    +0.003 C 
ATOM     23  C   UNL     1     144.898 169.523 182.537  0.00  0.00    +0.111 C 
ATOM     24  C   UNL     1     144.931 168.204 183.385  0.00  0.00    +0.020 C 
ATOM     25  C   UNL     1     146.387 167.728 183.670  0.00  0.00    +0.064 C 
ATOM     26  H   UNL     1     147.673 166.437 184.783  0.00  0.00    +0.032 HD
ATOM     27  H   UNL     1     145.894 165.168 186.050  0.00  0.00    +0.027 HD
ATOM     28  H   UNL     1     144.698 166.283 185.456  0.00  0.00    +0.027 HD
ATOM     29  H   UNL     1     146.934 167.791 186.575  0.00  0.00    +0.029 HD
ATOM     30  H   UNL     1     145.235 167.863 187.001  0.00  0.00    +0.029 HD
ATOM     31  H   UNL     1     146.922 167.296 188.803  0.00  0.00    +0.064 HD
ATOM     32  H   UNL     1     145.831 167.006 190.744  0.00  0.00    +0.057 HD
ATOM     33  H   UNL     1     144.568 165.811 192.294  0.00  0.00    +0.031 HD
ATOM     34  H   UNL     1     143.817 164.789 191.108  0.00  0.00    +0.031 HD
ATOM     35  H   UNL     1     142.276 166.628 190.428  0.00  0.00    +0.030 HD
ATOM     36  H   UNL     1     143.892 168.238 192.467  0.00  0.00    +0.030 HD
ATOM     37  H   UNL     1     142.178 168.582 192.238  0.00  0.00    +0.030 HD
ATOM     38  H   UNL     1     144.198 168.647 189.933  0.00  0.00    +0.064 HD
ATOM     39  H   UNL     1     142.806 171.103 191.085  0.00  0.00    +0.059 HD
ATOM     40  H   UNL     1     145.784 170.352 190.901  0.00  0.00    +0.057 HD
ATOM     41  H   UNL     1     145.404 172.587 192.375  0.00  0.00    +0.034 HD
ATOM     42  H   UNL     1     144.199 172.977 191.188  0.00  0.00    +0.034 HD
ATOM     43  H   UNL     1     145.978 174.196 190.377  0.00  0.00    +0.074 HD
ATOM     44  H   UNL     1     146.029 171.784 186.846  0.00  0.00    +0.069 HD
ATOM     45  H   UNL     1     143.050 172.463 186.413  0.00  0.00    +0.062 HD
ATOM     46  H   UNL     1     145.218 170.818 184.933  0.00  0.00    +0.061 HD
ATOM     47  H   UNL     1     142.350 171.524 184.120  0.00  0.00    +0.057 HD
ATOM     48  H   UNL     1     142.724 169.692 182.531  0.00  0.00    +0.034 HD
ATOM     49  H   UNL     1     143.558 171.113 181.945  0.00  0.00    +0.034 HD
ATOM     50  H   UNL     1     144.980 169.236 181.479  0.00  0.00    +0.074 HD
ATOM     51  H   UNL     1     144.470 168.407 184.359  0.00  0.00    +0.036 HD
ATOM     52  H   UNL     1     146.845 168.508 184.290  0.00  0.00    +0.060 HD
ENDROOT
BRANCH   1  53
ATOM     53  C   UNL     1     146.570 165.134 183.573  0.00  0.00    -0.060 C 
ATOM     54  H   UNL     1     145.532 164.799 183.460  0.00  0.00    +0.023 HD
ATOM     55  H   UNL     1     147.113 164.303 184.033  0.00  0.00    +0.023 HD
ATOM     56  H   UNL     1     146.968 165.294 182.571  0.00  0.00    +0.023 HD
ENDBRANCH   1  53
BRANCH   5  57
ATOM     57  C   UNL     1     144.341 164.973 188.333  0.00  0.00    -0.041 C 
ATOM     58  H   UNL     1     143.404 165.462 188.052  0.00  0.00    +0.028 HD
ATOM     59  H   UNL     1     144.818 164.569 187.433  0.00  0.00    +0.028 HD
ATOM     60  H   UNL     1     144.066 164.119 188.956  0.00  0.00    +0.028 HD
ENDBRANCH   5  57
BRANCH  24  61
ATOM     61  C   UNL     1     144.066 167.146 182.685  0.00  0.00    -0.057 C 
ATOM     62  H   UNL     1     143.020 167.458 182.614  0.00  0.00    +0.023 HD
ATOM     63  H   UNL     1     144.420 166.951 181.670  0.00  0.00    +0.023 HD
ATOM     64  H   UNL     1     144.062 166.205 183.239  0.00  0.00    +0.023 HD
ENDBRANCH  24  61
BRANCH   8  65
ATOM     65  C   UNL     1     141.872 166.077 192.450  0.00  0.00    -0.062 C 
ATOM     66  H   UNL     1     141.410 165.153 192.087  0.00  0.00    +0.023 HD
ATOM     67  H   UNL     1     141.073 166.776 192.720  0.00  0.00    +0.023 HD
ATOM     68  H   UNL     1     142.429 165.842 193.364  0.00  0.00    +0.023 HD
ENDBRANCH   8  65
BRANCH  14  69
ATOM     69  C   UNL     1     147.702 172.932 190.730  0.00  0.00    +0.020 C 
ATOM     70  H   UNL     1     148.284 173.215 189.842  0.00  0.00    +0.036 HD
BRANCH  69  71
ATOM     71  C   UNL     1     148.050 173.943 191.844  0.00  0.00    -0.057 C 
ATOM     72  H   UNL     1     148.955 174.512 191.615  0.00  0.00    +0.023 HD
ATOM     73  H   UNL     1     148.195 173.434 192.804  0.00  0.00    +0.023 HD
ATOM     74  H   UNL     1     147.259 174.689 191.982  0.00  0.00    +0.023 HD
ENDBRANCH  69  71
BRANCH  69  75
ATOM     75  C   UNL     1     148.054 171.470 191.117  0.00  0.00    +0.064 C 
ATOM     76  H   UNL     1     147.309 171.128 191.847  0.00  0.00    +0.060 HD
BRANCH  75  77
ATOM     77  C   UNL     1     149.462 171.229 191.723  0.00  0.00    -0.017 C 
ATOM     78  H   UNL     1     150.199 171.497 190.956  0.00  0.00    +0.032 HD
BRANCH  77  79
ATOM     79  C   UNL     1     149.745 172.211 192.876  0.00  0.00    -0.060 C 
ATOM     80  H   UNL     1     150.810 172.320 193.093  0.00  0.00    +0.023 HD
ATOM     81  H   UNL     1     149.260 171.864 193.796  0.00  0.00    +0.023 HD
ATOM     82  H   UNL     1     149.341 173.203 192.646  0.00  0.00    +0.023 HD
ENDBRANCH  77  79
BRANCH  77  83
ATOM     83  C   UNL     1     149.780 169.768 192.135  0.00  0.00    -0.045 C 
ATOM     84  H   UNL     1     148.813 169.255 192.229  0.00  0.00    +0.027 HD
ATOM     85  H   UNL     1     150.224 169.757 193.136  0.00  0.00    +0.027 HD
BRANCH  83  86
ATOM     86  C   UNL     1     150.686 168.962 191.197  0.00  0.00    -0.015 C 
ATOM     87  H   UNL     1     151.618 169.508 191.017  0.00  0.00    +0.030 HD
ATOM     88  H   UNL     1     150.228 168.881 190.207  0.00  0.00    +0.030 HD
BRANCH  86  89
ATOM     89  C   UNL     1     150.976 167.533 191.707  0.00  0.00    +0.109 C 
ATOM     90  H   UNL     1     150.201 166.855 191.322  0.00  0.00    +0.074 HD
BRANCH  89  91
ATOM     91  C   UNL     1     151.038 167.318 193.251  0.00  0.00    +0.031 C 
ATOM     92  H   UNL     1     150.979 168.335 193.664  0.00  0.00    +0.037 HD
BRANCH  91  93
ATOM     93  C   UNL     1     152.399 166.747 193.662  0.00  0.00    -0.056 C 
ATOM     94  H   UNL     1     152.290 165.816 194.228  0.00  0.00    +0.023 HD
ATOM     95  H   UNL     1     152.969 167.453 194.273  0.00  0.00    +0.023 HD
ATOM     96  H   UNL     1     152.997 166.495 192.782  0.00  0.00    +0.023 HD
ENDBRANCH  91  93
BRANCH  91  97
ATOM     97  C   UNL     1     149.848 166.506 193.851  0.00  0.00    +0.115 C 
ATOM     98  H   UNL     1     149.434 167.090 194.685  0.00  0.00    +0.074 HD
BRANCH  97  99
ATOM     99  C   UNL     1     148.686 166.129 192.875  0.00  0.00    +0.013 C 
ATOM    100  H   UNL     1     148.801 166.766 191.986  0.00  0.00    +0.038 HD
BRANCH  99 101
ATOM    101  C   UNL     1     147.293 166.481 193.411  0.00  0.00    -0.056 C 
ATOM    102  H   UNL     1     147.370 166.985 194.382  0.00  0.00    +0.024 HD
ATOM    103  H   UNL     1     146.690 165.578 193.557  0.00  0.00    +0.024 HD
ATOM    104  H   UNL     1     146.751 167.153 192.740  0.00  0.00    +0.024 HD
ENDBRANCH  99 101
BRANCH  99 105
ATOM    105  C   UNL     1     148.726 164.690 192.396  0.00  0.00    -0.064 C 
ATOM    106  C   UNL     1     148.476 164.354 191.122  0.00  0.00    -0.005 C 
ATOM    107  H   UNL     1     148.929 163.937 193.148  0.00  0.00    +0.059 HD
ATOM    108  H   UNL     1     148.255 165.150 190.410  0.00  0.00    +0.078 HD
BRANCH 106 109
ATOM    109  N   UNL     1     148.471 163.083 190.567  0.00  0.00    -0.284 N 
ATOM    110  C   UNL     1     147.453 162.552 189.787  0.00  0.00    +0.206 C 
ATOM    111  O   UNL     1     147.420 161.423 189.308  0.00  0.00    -0.279 OA
ATOM    112  H   UNL     1     146.617 163.242 189.620  0.00  0.00    +0.126 HD
BRANCH 109 113
ATOM    113  C   UNL     1     149.621 162.232 190.858  0.00  0.00    +0.007 C 
ATOM    114  H   UNL     1     150.567 162.722 190.610  0.00  0.00    +0.043 HD
ATOM    115  H   UNL     1     149.626 161.983 191.925  0.00  0.00    +0.043 HD
ATOM    116  H   UNL     1     149.540 161.314 190.267  0.00  0.00    +0.043 HD
ENDBRANCH 109 113
ENDBRANCH 106 109
ENDBRANCH  99 105
ENDBRANCH  97  99
BRANCH  97 117
ATOM    117  O   UNL     1     150.380 165.262 194.380  0.00  0.00    -0.461 OA
BRANCH 117 118
ATOM    118  C   UNL     1     150.162 165.011 195.699  0.00  0.00    +0.304 C 
ATOM    119  O   UNL     1     149.187 165.373 196.343  0.00  0.00    -0.251 OA
BRANCH 118 120
ATOM    120  C   UNL     1     151.296 164.209 196.257  0.00  0.00    +0.033 C 
ATOM    121  H   UNL     1     151.749 164.754 197.090  0.00  0.00    +0.034 HD
ATOM    122  H   UNL     1     150.925 163.251 196.631  0.00  0.00    +0.034 HD
ATOM    123  H   UNL     1     152.055 164.053 195.485  0.00  0.00    +0.034 HD
ENDBRANCH 118 120
ENDBRANCH 117 118
ENDBRANCH  97 117
ENDBRANCH  91  97
ENDBRANCH  89  91
BRANCH  89 124
ATOM    124  O   UNL     1     152.242 167.096 191.147  0.00  0.00    -0.460 OA
BRANCH 124 125
ATOM    125  C   UNL     1     152.203 165.954 190.396  0.00  0.00    +0.324 C 
ATOM    126  O   UNL     1     152.010 164.831 190.847  0.00  0.00    -0.249 OA
BRANCH 125 127
ATOM    127  C   UNL     1     152.414 166.299 188.910  0.00  0.00    +0.105 C 
ATOM    128  H   UNL     1     151.596 166.954 188.583  0.00  0.00    +0.058 HD
BRANCH 127 129
ATOM    129  C   UNL     1     152.312 164.970 188.154  0.00  0.00    -0.039 C 
ATOM    130  H   UNL     1     153.154 164.311 188.392  0.00  0.00    +0.025 HD
ATOM    131  H   UNL     1     152.287 165.124 187.070  0.00  0.00    +0.025 HD
ATOM    132  H   UNL     1     151.395 164.434 188.429  0.00  0.00    +0.025 HD
ENDBRANCH 127 129
BRANCH 127 133
ATOM    133  N   UNL     1     153.717 166.999 188.710  0.00  0.00    -0.296 NA
BRANCH 133 134
ATOM    134  C   UNL     1     154.848 166.231 189.235  0.00  0.00    -0.012 C 
ATOM    135  H   UNL     1     155.568 166.894 189.728  0.00  0.00    +0.039 HD
ATOM    136  H   UNL     1     155.373 165.682 188.446  0.00  0.00    +0.039 HD
ATOM    137  H   UNL     1     154.524 165.522 190.002  0.00  0.00    +0.039 HD
ENDBRANCH 133 134
BRANCH 133 138
ATOM    138  C   UNL     1     153.949 167.287 187.288  0.00  0.00    -0.012 C 
ATOM    139  H   UNL     1     154.522 166.479 186.821  0.00  0.00    +0.039 HD
ATOM    140  H   UNL     1     153.010 167.406 186.736  0.00  0.00    +0.039 HD
ATOM    141  H   UNL     1     154.547 168.194 187.152  0.00  0.00    +0.039 HD
ENDBRANCH 133 138
ENDBRANCH 127 133
ENDBRANCH 125 127
ENDBRANCH 124 125
ENDBRANCH  89 124
ENDBRANCH  86  89
ENDBRANCH  83  86
ENDBRANCH  77  83
ENDBRANCH  75  77
BRANCH  75 142
ATOM    142  O   UNL     1     147.899 170.664 189.947  0.00  0.00    -0.391 OA
ATOM    143  H   UNL     1     146.961 170.672 189.696  0.00  0.00    +0.210 HD
ENDBRANCH  75 142
ENDBRANCH  69  75
ENDBRANCH  14  69
BRANCH  25 144
ATOM    144  O   UNL     1     147.151 167.713 182.459  0.00  0.00    -0.391 OA
ATOM    145  H   UNL     1     146.601 167.338 181.754  0.00  0.00    +0.210 HD
ENDBRANCH  25 144
BRANCH  23 146
ATOM    146  O   UNL     1     146.020 170.358 182.880  0.00  0.00    -0.460 OA
BRANCH 146 147
ATOM    147  C   UNL     1     146.766 170.883 181.875  0.00  0.00    +0.327 C 
ATOM    148  O   UNL     1     147.001 170.320 180.809  0.00  0.00    -0.249 OA
BRANCH 147 149
ATOM    149  C   UNL     1     147.224 172.313 182.198  0.00  0.00    +0.131 C 
ATOM    150  H   UNL     1     147.867 172.218 183.085  0.00  0.00    +0.060 HD
BRANCH 149 151
ATOM    151  C   UNL     1     145.988 173.132 182.650  0.00  0.00    +0.073 C 
ATOM    152  H   UNL     1     145.697 173.842 181.864  0.00  0.00    +0.058 HD
ATOM    153  H   UNL     1     145.146 172.448 182.814  0.00  0.00    +0.058 HD
BRANCH 151 154
ATOM    154  O   UNL     1     146.220 173.851 183.870  0.00  0.00    -0.381 OA
BRANCH 154 155
ATOM    155  C   UNL     1     146.479 175.226 183.616  0.00  0.00    +0.037 C 
ATOM    156  H   UNL     1     146.552 175.779 184.556  0.00  0.00    +0.052 HD
ATOM    157  H   UNL     1     147.397 175.340 183.033  0.00  0.00    +0.052 HD
ATOM    158  H   UNL     1     145.643 175.630 183.038  0.00  0.00    +0.052 HD
ENDBRANCH 154 155
ENDBRANCH 151 154
ENDBRANCH 149 151
BRANCH 149 159
ATOM    159  N   UNL     1     148.030 172.887 181.073  0.00  0.00    -0.294 NA
BRANCH 159 160
ATOM    160  C   UNL     1     149.151 173.691 181.572  0.00  0.00    -0.012 C 
ATOM    161  H   UNL     1     149.385 174.529 180.905  0.00  0.00    +0.039 HD
ATOM    162  H   UNL     1     150.053 173.075 181.675  0.00  0.00    +0.039 HD
ATOM    163  H   UNL     1     148.947 174.087 182.572  0.00  0.00    +0.039 HD
ENDBRANCH 159 160
BRANCH 159 164
ATOM    164  C   UNL     1     147.212 173.698 180.170  0.00  0.00    -0.012 C 
ATOM    165  H   UNL     1     147.051 173.173 179.219  0.00  0.00    +0.039 HD
ATOM    166  H   UNL     1     146.212 173.875 180.580  0.00  0.00    +0.039 HD
ATOM    167  H   UNL     1     147.676 174.666 179.950  0.00  0.00    +0.039 HD
ENDBRANCH 159 164
ENDBRANCH 149 159
ENDBRANCH 147 149
ENDBRANCH 146 147
ENDBRANCH  23 146
BRANCH   4 168
ATOM    168  O   UNL     1     147.410 165.482 187.967  0.00  0.00    -0.376 OA
BRANCH 168 169
ATOM    169  C   UNL     1     148.735 165.986 187.839  0.00  0.00    +0.037 C 
ATOM    170  H   UNL     1     148.669 167.054 187.621  0.00  0.00    +0.052 HD
ATOM    171  H   UNL     1     149.256 165.504 187.009  0.00  0.00    +0.052 HD
ATOM    172  H   UNL     1     149.295 165.857 188.767  0.00  0.00    +0.052 HD
ENDBRANCH 168 169
ENDBRANCH   4 168
BRANCH  10 173
ATOM    173  O   UNL     1     142.181 169.056 189.701  0.00  0.00    -0.376 OA
BRANCH 173 174
ATOM    174  C   UNL     1     141.142 169.865 190.233  0.00  0.00    +0.037 C 
ATOM    175  H   UNL     1     140.912 169.568 191.258  0.00  0.00    +0.052 HD
ATOM    176  H   UNL     1     140.246 169.720 189.623  0.00  0.00    +0.052 HD
ATOM    177  H   UNL     1     141.419 170.922 190.192  0.00  0.00    +0.052 HD
ENDBRANCH 173 174
ENDBRANCH  10 173
TORSDOF 45
ENDMDL
MODEL 10
REMARK VINA RESULT:      -4.5      1.584      3.908
REMARK  Name = Aplyronine A_conf3
REMARK  45 active torsions:
REMARK  status: ('A' for Active; 'I' for Inactive)
REMARK    1  A    between atoms: C_1  and  C_2
REMARK    2  A    between atoms: C_5  and  O_75
REMARK    3  A    between atoms: C_6  and  C_74
REMARK    4  A    between atoms: C_9  and  C_73
REMARK    5  A    between atoms: C_11  and  O_71
REMARK    6  A    between atoms: C_15  and  C_39
REMARK    7  A    between atoms: C_24  and  O_29
REMARK    8  A    between atoms: C_25  and  C_28
REMARK    9  A    between atoms: C_26  and  O_27
REMARK   10  A    between atoms: O_29  and  C_30
REMARK   11  A    between atoms: C_30  and  C_32
REMARK   12  A    between atoms: C_32  and  C_33
REMARK   13  A    between atoms: C_32  and  N_36
REMARK   14  A    between atoms: C_33  and  O_34
REMARK   15  A    between atoms: O_34  and  C_35
REMARK   16  A    between atoms: N_36  and  C_37
REMARK   17  A    between atoms: N_36  and  C_38
REMARK   18  A    between atoms: C_39  and  C_40
REMARK   19  A    between atoms: C_39  and  C_41
REMARK   20  A    between atoms: C_41  and  C_42
REMARK   21  A    between atoms: C_41  and  O_70
REMARK   22  A    between atoms: C_42  and  C_43
REMARK   23  A    between atoms: C_42  and  C_44
REMARK   24  A    between atoms: C_44  and  C_45
REMARK   25  A    between atoms: C_45  and  C_46
REMARK   26  A    between atoms: C_46  and  C_47
REMARK   27  A    between atoms: C_46  and  O_62
REMARK   28  A    between atoms: C_47  and  C_48
REMARK   29  A    between atoms: C_47  and  C_49
REMARK   30  A    between atoms: C_49  and  C_50
REMARK   31  A    between atoms: C_49  and  O_58
REMARK   32  A    between atoms: C_50  and  C_51
REMARK   33  A    between atoms: C_50  and  C_52
REMARK   34  A    between atoms: C_53  and  N_54
REMARK   35  A    between atoms: N_54  and  C_55
REMARK   36  A    between atoms: O_58  and  C_59
REMARK   37  A    between atoms: C_59  and  C_61
REMARK   38  A    between atoms: O_62  and  C_63
REMARK   39  A    between atoms: C_63  and  C_65
REMARK   40  A    between atoms: C_65  and  C_66
REMARK   41  A    between atoms: C_65  and  N_67
REMARK   42  A    between atoms: N_67  and  C_68
REMARK   43  A    between atoms: N_67  and  C_69
REMARK   44  A    between atoms: O_71  and  C_72
REMARK   45  A    between atoms: O_75  and  C_76
REMARK                            x       y       z     vdW  Elec       q    Type
REMARK                         _______ _______ _______ _____ _____    ______ ____
ROOT
ATOM      1  C   UNL     1     155.281 165.679 188.706  0.00  0.00    -0.017 C 
ATOM      2  C   UNL     1     154.247 164.588 189.063  0.00  0.00    -0.045 C 
ATOM      3  C   UNL     1     152.794 164.940 188.695  0.00  0.00    -0.022 C 
ATOM      4  C   UNL     1     151.780 164.879 189.866  0.00  0.00    +0.079 C 
ATOM      5  C   UNL     1     151.325 163.479 190.290  0.00  0.00    -0.048 C 
ATOM      6  C   UNL     1     150.003 163.208 190.375  0.00  0.00    -0.082 C 
ATOM      7  C   UNL     1     149.334 161.941 190.832  0.00  0.00    -0.032 C 
ATOM      8  C   UNL     1     149.013 160.923 189.717  0.00  0.00    -0.038 C 
ATOM      9  C   UNL     1     148.103 161.500 188.602  0.00  0.00    -0.020 C 
ATOM     10  C   UNL     1     148.881 162.215 187.485  0.00  0.00    +0.077 C 
ATOM     11  C   UNL     1     147.937 162.799 186.468  0.00  0.00    -0.059 C 
ATOM     12  C   UNL     1     147.553 164.086 186.422  0.00  0.00    -0.082 C 
ATOM     13  C   UNL     1     146.722 164.643 185.293  0.00  0.00    +0.003 C 
ATOM     14  C   UNL     1     147.260 165.959 184.679  0.00  0.00    +0.112 C 
ATOM     15  O   UNL     1     148.709 165.915 184.611  0.00  0.00    -0.458 OA
ATOM     16  C   UNL     1     149.307 165.085 183.728  0.00  0.00    +0.332 C 
ATOM     17  O   UNL     1     148.774 164.364 182.906  0.00  0.00    -0.246 OA
ATOM     18  C   UNL     1     150.752 165.219 183.983  0.00  0.00    +0.022 C 
ATOM     19  C   UNL     1     151.661 164.341 183.540  0.00  0.00    -0.055 C 
ATOM     20  C   UNL     1     153.049 164.536 183.878  0.00  0.00    -0.065 C 
ATOM     21  C   UNL     1     154.083 163.812 183.425  0.00  0.00    -0.081 C 
ATOM     22  C   UNL     1     155.551 164.090 183.692  0.00  0.00    +0.003 C 
ATOM     23  C   UNL     1     155.954 165.162 184.747  0.00  0.00    +0.111 C 
ATOM     24  C   UNL     1     155.675 164.710 186.223  0.00  0.00    +0.020 C 
ATOM     25  C   UNL     1     155.503 165.925 187.184  0.00  0.00    +0.064 C 
ATOM     26  H   UNL     1     154.891 166.629 189.104  0.00  0.00    +0.032 HD
ATOM     27  H   UNL     1     154.322 164.394 190.137  0.00  0.00    +0.027 HD
ATOM     28  H   UNL     1     154.517 163.643 188.580  0.00  0.00    +0.027 HD
ATOM     29  H   UNL     1     152.767 165.964 188.305  0.00  0.00    +0.029 HD
ATOM     30  H   UNL     1     152.454 164.293 187.877  0.00  0.00    +0.029 HD
ATOM     31  H   UNL     1     150.905 165.445 189.517  0.00  0.00    +0.064 HD
ATOM     32  H   UNL     1     149.296 164.000 190.122  0.00  0.00    +0.057 HD
ATOM     33  H   UNL     1     148.405 162.228 191.343  0.00  0.00    +0.031 HD
ATOM     34  H   UNL     1     149.937 161.455 191.610  0.00  0.00    +0.031 HD
ATOM     35  H   UNL     1     149.956 160.575 189.277  0.00  0.00    +0.030 HD
ATOM     36  H   UNL     1     147.358 162.175 189.045  0.00  0.00    +0.030 HD
ATOM     37  H   UNL     1     147.546 160.671 188.143  0.00  0.00    +0.030 HD
ATOM     38  H   UNL     1     149.517 163.005 187.892  0.00  0.00    +0.064 HD
ATOM     39  H   UNL     1     147.603 162.110 185.693  0.00  0.00    +0.059 HD
ATOM     40  H   UNL     1     147.872 164.783 187.193  0.00  0.00    +0.057 HD
ATOM     41  H   UNL     1     145.681 164.741 185.608  0.00  0.00    +0.034 HD
ATOM     42  H   UNL     1     146.702 163.897 184.485  0.00  0.00    +0.034 HD
ATOM     43  H   UNL     1     146.869 166.040 183.656  0.00  0.00    +0.074 HD
ATOM     44  H   UNL     1     151.045 166.077 184.582  0.00  0.00    +0.069 HD
ATOM     45  H   UNL     1     151.371 163.490 182.931  0.00  0.00    +0.062 HD
ATOM     46  H   UNL     1     153.229 165.387 184.529  0.00  0.00    +0.061 HD
ATOM     47  H   UNL     1     153.888 162.977 182.755  0.00  0.00    +0.057 HD
ATOM     48  H   UNL     1     156.031 163.137 183.940  0.00  0.00    +0.034 HD
ATOM     49  H   UNL     1     155.974 164.394 182.726  0.00  0.00    +0.034 HD
ATOM     50  H   UNL     1     157.033 165.347 184.657  0.00  0.00    +0.074 HD
ATOM     51  H   UNL     1     154.728 164.156 186.243  0.00  0.00    +0.036 HD
ATOM     52  H   UNL     1     154.604 166.455 186.844  0.00  0.00    +0.060 HD
ENDROOT
BRANCH   1  53
ATOM     53  C   UNL     1     156.575 165.453 189.508  0.00  0.00    -0.060 C 
ATOM     54  H   UNL     1     156.475 165.881 190.513  0.00  0.00    +0.023 HD
ATOM     55  H   UNL     1     157.429 165.955 189.043  0.00  0.00    +0.023 HD
ATOM     56  H   UNL     1     156.818 164.398 189.629  0.00  0.00    +0.023 HD
ENDBRANCH   1  53
BRANCH   5  57
ATOM     57  C   UNL     1     152.391 162.476 190.637  0.00  0.00    -0.041 C 
ATOM     58  H   UNL     1     152.923 162.154 189.738  0.00  0.00    +0.028 HD
ATOM     59  H   UNL     1     153.109 162.908 191.343  0.00  0.00    +0.028 HD
ATOM     60  H   UNL     1     151.999 161.568 191.102  0.00  0.00    +0.028 HD
ENDBRANCH   5  57
BRANCH  24  61
ATOM     61  C   UNL     1     156.780 163.737 186.657  0.00  0.00    -0.057 C 
ATOM     62  H   UNL     1     157.590 163.688 185.924  0.00  0.00    +0.023 HD
ATOM     63  H   UNL     1     157.220 164.034 187.613  0.00  0.00    +0.023 HD
ATOM     64  H   UNL     1     156.398 162.718 186.752  0.00  0.00    +0.023 HD
ENDBRANCH  24  61
BRANCH   8  65
ATOM     65  C   UNL     1     148.330 159.704 190.349  0.00  0.00    -0.062 C 
ATOM     66  H   UNL     1     148.550 158.790 189.788  0.00  0.00    +0.023 HD
ATOM     67  H   UNL     1     147.242 159.834 190.376  0.00  0.00    +0.023 HD
ATOM     68  H   UNL     1     148.670 159.560 191.381  0.00  0.00    +0.023 HD
ENDBRANCH   8  65
BRANCH  14  69
ATOM     69  C   UNL     1     146.920 167.297 185.421  0.00  0.00    +0.020 C 
ATOM     70  H   UNL     1     147.258 168.128 184.786  0.00  0.00    +0.036 HD
BRANCH  69  71
ATOM     71  C   UNL     1     145.382 167.392 185.516  0.00  0.00    -0.057 C 
ATOM     72  H   UNL     1     144.886 166.864 184.697  0.00  0.00    +0.023 HD
ATOM     73  H   UNL     1     145.052 168.438 185.502  0.00  0.00    +0.023 HD
ATOM     74  H   UNL     1     144.998 166.937 186.436  0.00  0.00    +0.023 HD
ENDBRANCH  69  71
BRANCH  69  75
ATOM     75  C   UNL     1     147.614 167.408 186.806  0.00  0.00    +0.064 C 
ATOM     76  H   UNL     1     148.028 166.421 187.052  0.00  0.00    +0.060 HD
BRANCH  75  77
ATOM     77  C   UNL     1     146.727 167.865 187.994  0.00  0.00    -0.017 C 
ATOM     78  H   UNL     1     145.896 168.447 187.577  0.00  0.00    +0.032 HD
BRANCH  77  79
ATOM     79  C   UNL     1     146.043 166.662 188.671  0.00  0.00    -0.060 C 
ATOM     80  H   UNL     1     145.309 166.956 189.424  0.00  0.00    +0.023 HD
ATOM     81  H   UNL     1     146.790 166.036 189.175  0.00  0.00    +0.023 HD
ATOM     82  H   UNL     1     145.538 166.036 187.927  0.00  0.00    +0.023 HD
ENDBRANCH  77  79
BRANCH  77  83
ATOM     83  C   UNL     1     147.417 168.783 189.037  0.00  0.00    -0.045 C 
ATOM     84  H   UNL     1     146.688 169.563 189.293  0.00  0.00    +0.027 HD
ATOM     85  H   UNL     1     148.259 169.303 188.567  0.00  0.00    +0.027 HD
BRANCH  83  86
ATOM     86  C   UNL     1     147.917 168.121 190.325  0.00  0.00    -0.015 C 
ATOM     87  H   UNL     1     148.794 167.501 190.111  0.00  0.00    +0.030 HD
ATOM     88  H   UNL     1     147.173 167.412 190.699  0.00  0.00    +0.030 HD
BRANCH  86  89
ATOM     89  C   UNL     1     148.221 169.132 191.453  0.00  0.00    +0.109 C 
ATOM     90  H   UNL     1     147.282 169.384 191.967  0.00  0.00    +0.074 HD
BRANCH  89  91
ATOM     91  C   UNL     1     148.892 170.481 191.049  0.00  0.00    +0.031 C 
ATOM     92  H   UNL     1     149.009 170.405 189.959  0.00  0.00    +0.037 HD
BRANCH  91  93
ATOM     93  C   UNL     1     150.300 170.583 191.645  0.00  0.00    -0.056 C 
ATOM     94  H   UNL     1     150.971 171.156 190.995  0.00  0.00    +0.023 HD
ATOM     95  H   UNL     1     150.745 169.597 191.808  0.00  0.00    +0.023 HD
ATOM     96  H   UNL     1     150.282 171.113 192.600  0.00  0.00    +0.023 HD
ENDBRANCH  91  93
BRANCH  91  97
ATOM     97  C   UNL     1     148.035 171.754 191.333  0.00  0.00    +0.115 C 
ATOM     98  H   UNL     1     148.679 172.631 191.179  0.00  0.00    +0.074 HD
BRANCH  97  99
ATOM     99  C   UNL     1     146.732 171.933 190.485  0.00  0.00    +0.013 C 
ATOM    100  H   UNL     1     146.886 171.374 189.550  0.00  0.00    +0.038 HD
BRANCH  99 101
ATOM    101  C   UNL     1     146.490 173.375 190.026  0.00  0.00    -0.056 C 
ATOM    102  H   UNL     1     146.052 173.970 190.837  0.00  0.00    +0.024 HD
ATOM    103  H   UNL     1     145.791 173.406 189.183  0.00  0.00    +0.024 HD
ATOM    104  H   UNL     1     147.416 173.873 189.724  0.00  0.00    +0.024 HD
ENDBRANCH  99 101
BRANCH  99 105
ATOM    105  C   UNL     1     145.488 171.365 191.140  0.00  0.00    -0.064 C 
ATOM    106  C   UNL     1     144.579 170.657 190.453  0.00  0.00    -0.005 C 
ATOM    107  H   UNL     1     145.347 171.594 192.190  0.00  0.00    +0.059 HD
ATOM    108  H   UNL     1     144.759 170.473 189.393  0.00  0.00    +0.078 HD
BRANCH 106 109
ATOM    109  N   UNL     1     143.403 170.098 190.931  0.00  0.00    -0.284 N 
ATOM    110  C   UNL     1     143.145 168.738 191.036  0.00  0.00    +0.206 C 
ATOM    111  O   UNL     1     142.104 168.225 191.433  0.00  0.00    -0.279 OA
ATOM    112  H   UNL     1     143.979 168.103 190.710  0.00  0.00    +0.126 HD
BRANCH 109 113
ATOM    113  C   UNL     1     142.345 171.024 191.326  0.00  0.00    +0.007 C 
ATOM    114  H   UNL     1     141.634 170.563 192.019  0.00  0.00    +0.043 HD
ATOM    115  H   UNL     1     142.792 171.896 191.815  0.00  0.00    +0.043 HD
ATOM    116  H   UNL     1     141.802 171.341 190.431  0.00  0.00    +0.043 HD
ENDBRANCH 109 113
ENDBRANCH 106 109
ENDBRANCH  99 105
ENDBRANCH  97  99
BRANCH  97 117
ATOM    117  O   UNL     1     147.632 171.718 192.728  0.00  0.00    -0.461 OA
BRANCH 117 118
ATOM    118  C   UNL     1     147.812 172.856 193.451  0.00  0.00    +0.304 C 
ATOM    119  O   UNL     1     146.931 173.638 193.783  0.00  0.00    -0.251 OA
BRANCH 118 120
ATOM    120  C   UNL     1     149.260 173.016 193.793  0.00  0.00    +0.033 C 
ATOM    121  H   UNL     1     149.861 172.910 192.885  0.00  0.00    +0.034 HD
ATOM    122  H   UNL     1     149.435 174.012 194.210  0.00  0.00    +0.034 HD
ATOM    123  H   UNL     1     149.559 172.243 194.505  0.00  0.00    +0.034 HD
ENDBRANCH 118 120
ENDBRANCH 117 118
ENDBRANCH  97 117
ENDBRANCH  91  97
ENDBRANCH  89  91
BRANCH  89 124
ATOM    124  O   UNL     1     149.079 168.484 192.429  0.00  0.00    -0.460 OA
BRANCH 124 125
ATOM    125  C   UNL     1     148.495 167.511 193.190  0.00  0.00    +0.324 C 
ATOM    126  O   UNL     1     147.350 167.562 193.625  0.00  0.00    -0.249 OA
BRANCH 125 127
ATOM    127  C   UNL     1     149.479 166.344 193.391  0.00  0.00    +0.105 C 
ATOM    128  H   UNL     1     150.218 166.364 192.580  0.00  0.00    +0.058 HD
BRANCH 127 129
ATOM    129  C   UNL     1     148.644 165.066 193.263  0.00  0.00    -0.039 C 
ATOM    130  H   UNL     1     148.931 164.490 192.375  0.00  0.00    +0.025 HD
ATOM    131  H   UNL     1     147.573 165.288 193.199  0.00  0.00    +0.025 HD
ATOM    132  H   UNL     1     148.791 164.414 194.132  0.00  0.00    +0.025 HD
ENDBRANCH 127 129
BRANCH 127 133
ATOM    133  N   UNL     1     150.182 166.466 194.701  0.00  0.00    -0.296 NA
BRANCH 133 134
ATOM    134  C   UNL     1     149.432 165.846 195.796  0.00  0.00    -0.012 C 
ATOM    135  H   UNL     1     150.115 165.437 196.548  0.00  0.00    +0.039 HD
ATOM    136  H   UNL     1     148.786 165.034 195.442  0.00  0.00    +0.039 HD
ATOM    137  H   UNL     1     148.817 166.582 196.322  0.00  0.00    +0.039 HD
ENDBRANCH 133 134
BRANCH 133 138
ATOM    138  C   UNL     1     151.524 165.871 194.639  0.00  0.00    -0.012 C 
ATOM    139  H   UNL     1     152.064 166.234 193.758  0.00  0.00    +0.039 HD
ATOM    140  H   UNL     1     152.118 166.108 195.529  0.00  0.00    +0.039 HD
ATOM    141  H   UNL     1     151.479 164.783 194.534  0.00  0.00    +0.039 HD
ENDBRANCH 133 138
ENDBRANCH 127 133
ENDBRANCH 125 127
ENDBRANCH 124 125
ENDBRANCH  89 124
ENDBRANCH  86  89
ENDBRANCH  83  86
ENDBRANCH  77  83
ENDBRANCH  75  77
BRANCH  75 142
ATOM    142  O   UNL     1     148.717 168.306 186.666  0.00  0.00    -0.391 OA
ATOM    143  H   UNL     1     149.434 167.996 187.243  0.00  0.00    +0.210 HD
ENDBRANCH  75 142
ENDBRANCH  69  75
ENDBRANCH  14  69
BRANCH  25 144
ATOM    144  O   UNL     1     156.576 166.856 187.005  0.00  0.00    -0.391 OA
ATOM    145  H   UNL     1     156.974 166.701 186.133  0.00  0.00    +0.210 HD
ENDBRANCH  25 144
BRANCH  23 146
ATOM    146  O   UNL     1     155.246 166.384 184.463  0.00  0.00    -0.460 OA
BRANCH 146 147
ATOM    147  C   UNL     1     155.747 167.214 183.514  0.00  0.00    +0.327 C 
ATOM    148  O   UNL     1     155.073 167.814 182.681  0.00  0.00    -0.249 OA
BRANCH 147 149
ATOM    149  C   UNL     1     157.268 167.379 183.651  0.00  0.00    +0.131 C 
ATOM    150  H   UNL     1     157.576 166.619 184.384  0.00  0.00    +0.060 HD
BRANCH 149 151
ATOM    151  C   UNL     1     157.554 168.751 184.311  0.00  0.00    +0.073 C 
ATOM    152  H   UNL     1     158.006 169.435 183.580  0.00  0.00    +0.058 HD
ATOM    153  H   UNL     1     156.606 169.193 184.643  0.00  0.00    +0.058 HD
BRANCH 151 154
ATOM    154  O   UNL     1     158.417 168.645 185.452  0.00  0.00    -0.381 OA
BRANCH 154 155
ATOM    155  C   UNL     1     159.513 169.545 185.353  0.00  0.00    +0.037 C 
ATOM    156  H   UNL     1     159.346 170.420 185.986  0.00  0.00    +0.052 HD
ATOM    157  H   UNL     1     160.445 169.044 185.633  0.00  0.00    +0.052 HD
ATOM    158  H   UNL     1     159.592 169.876 184.314  0.00  0.00    +0.052 HD
ENDBRANCH 154 155
ENDBRANCH 151 154
ENDBRANCH 149 151
BRANCH 149 159
ATOM    159  N   UNL     1     157.959 167.107 182.350  0.00  0.00    -0.294 NA
BRANCH 159 160
ATOM    160  C   UNL     1     158.875 165.966 182.458  0.00  0.00    -0.012 C 
ATOM    161  H   UNL     1     159.690 166.022 181.725  0.00  0.00    +0.039 HD
ATOM    162  H   UNL     1     158.339 165.023 182.298  0.00  0.00    +0.039 HD
ATOM    163  H   UNL     1     159.311 165.894 183.459  0.00  0.00    +0.039 HD
ENDBRANCH 159 160
BRANCH 159 164
ATOM    164  C   UNL     1     158.691 168.277 181.863  0.00  0.00    -0.012 C 
ATOM    165  H   UNL     1     158.521 168.418 180.788  0.00  0.00    +0.039 HD
ATOM    166  H   UNL     1     158.342 169.199 182.339  0.00  0.00    +0.039 HD
ATOM    167  H   UNL     1     159.770 168.186 182.028  0.00  0.00    +0.039 HD
ENDBRANCH 159 164
ENDBRANCH 149 159
ENDBRANCH 147 149
ENDBRANCH 146 147
ENDBRANCH  23 146
BRANCH   4 168
ATOM    168  O   UNL     1     152.340 165.589 190.983  0.00  0.00    -0.376 OA
BRANCH 168 169
ATOM    169  C   UNL     1     152.119 166.994 190.925  0.00  0.00    +0.037 C 
ATOM    170  H   UNL     1     151.766 167.319 191.906  0.00  0.00    +0.052 HD
ATOM    171  H   UNL     1     151.345 167.235 190.192  0.00  0.00    +0.052 HD
ATOM    172  H   UNL     1     153.042 167.528 190.694  0.00  0.00    +0.052 HD
ENDBRANCH 168 169
ENDBRANCH   4 168
BRANCH  10 173
ATOM    173  O   UNL     1     149.702 161.230 186.840  0.00  0.00    -0.376 OA
BRANCH 173 174
ATOM    174  C   UNL     1     151.043 161.656 186.650  0.00  0.00    +0.037 C 
ATOM    175  H   UNL     1     151.710 160.796 186.560  0.00  0.00    +0.052 HD
ATOM    176  H   UNL     1     151.347 162.236 187.526  0.00  0.00    +0.052 HD
ATOM    177  H   UNL     1     151.121 162.298 185.768  0.00  0.00    +0.052 HD
ENDBRANCH 173 174
ENDBRANCH  10 173
TORSDOF 45
ENDMDL
