MODEL 1
REMARK VINA RESULT:      -5.0      0.000      0.000
REMARK  Name = Aplyronine A_conf1
REMARK  45 active torsions:
REMARK  status: ('A' for Active; 'I' for Inactive)
REMARK    1  A    between atoms: C_1  and  C_2
REMARK    2  A    between atoms: C_5  and  O_75
REMARK    3  A    between atoms: C_6  and  C_74
REMARK    4  A    between atoms: C_9  and  C_73
REMARK    5  A    between atoms: C_11  and  O_71
REMARK    6  A    between atoms: C_15  and  C_39
REMARK    7  A    between atoms: C_24  and  O_29
REMARK    8  A    between atoms: C_25  and  C_28
REMARK    9  A    between atoms: C_26  and  O_27
REMARK   10  A    between atoms: O_29  and  C_30
REMARK   11  A    between atoms: C_30  and  C_32
REMARK   12  A    between atoms: C_32  and  C_33
REMARK   13  A    between atoms: C_32  and  N_36
REMARK   14  A    between atoms: C_33  and  O_34
REMARK   15  A    between atoms: O_34  and  C_35
REMARK   16  A    between atoms: N_36  and  C_37
REMARK   17  A    between atoms: N_36  and  C_38
REMARK   18  A    between atoms: C_39  and  C_40
REMARK   19  A    between atoms: C_39  and  C_41
REMARK   20  A    between atoms: C_41  and  C_42
REMARK   21  A    between atoms: C_41  and  O_70
REMARK   22  A    between atoms: C_42  and  C_43
REMARK   23  A    between atoms: C_42  and  C_44
REMARK   24  A    between atoms: C_44  and  C_45
REMARK   25  A    between atoms: C_45  and  C_46
REMARK   26  A    between atoms: C_46  and  C_47
REMARK   27  A    between atoms: C_46  and  O_62
REMARK   28  A    between atoms: C_47  and  C_48
REMARK   29  A    between atoms: C_47  and  C_49
REMARK   30  A    between atoms: C_49  and  C_50
REMARK   31  A    between atoms: C_49  and  O_58
REMARK   32  A    between atoms: C_50  and  C_51
REMARK   33  A    between atoms: C_50  and  C_52
REMARK   34  A    between atoms: C_53  and  N_54
REMARK   35  A    between atoms: N_54  and  C_55
REMARK   36  A    between atoms: O_58  and  C_59
REMARK   37  A    between atoms: C_59  and  C_61
REMARK   38  A    between atoms: O_62  and  C_63
REMARK   39  A    between atoms: C_63  and  C_65
REMARK   40  A    between atoms: C_65  and  C_66
REMARK   41  A    between atoms: C_65  and  N_67
REMARK   42  A    between atoms: N_67  and  C_68
REMARK   43  A    between atoms: N_67  and  C_69
REMARK   44  A    between atoms: O_71  and  C_72
REMARK   45  A    between atoms: O_75  and  C_76
REMARK                            x       y       z     vdW  Elec       q    Type
REMARK                         _______ _______ _______ _____ _____    ______ ____
ROOT
ATOM      1  C   UNL     1     145.621 167.143 189.130  0.00  0.00    -0.017 C 
ATOM      2  C   UNL     1     144.394 167.354 190.040  0.00  0.00    -0.045 C 
ATOM      3  C   UNL     1     143.488 166.129 190.289  0.00  0.00    -0.022 C 
ATOM      4  C   UNL     1     142.883 165.375 189.085  0.00  0.00    +0.079 C 
ATOM      5  C   UNL     1     142.046 166.169 188.076  0.00  0.00    -0.048 C 
ATOM      6  C   UNL     1     141.430 167.331 188.384  0.00  0.00    -0.082 C 
ATOM      7  C   UNL     1     140.552 168.177 187.499  0.00  0.00    -0.032 C 
ATOM      8  C   UNL     1     141.302 169.356 186.851  0.00  0.00    -0.038 C 
ATOM      9  C   UNL     1     141.828 170.435 187.832  0.00  0.00    -0.020 C 
ATOM     10  C   UNL     1     140.772 171.079 188.755  0.00  0.00    +0.077 C 
ATOM     11  C   UNL     1     141.299 172.381 189.309  0.00  0.00    -0.059 C 
ATOM     12  C   UNL     1     140.699 173.575 189.154  0.00  0.00    -0.082 C 
ATOM     13  C   UNL     1     141.201 174.885 189.721  0.00  0.00    +0.003 C 
ATOM     14  C   UNL     1     141.263 175.005 191.270  0.00  0.00    +0.112 C 
ATOM     15  O   UNL     1     142.405 174.202 191.656  0.00  0.00    -0.458 OA
ATOM     16  C   UNL     1     143.298 174.745 192.521  0.00  0.00    +0.332 C 
ATOM     17  O   UNL     1     143.127 175.720 193.233  0.00  0.00    -0.246 OA
ATOM     18  C   UNL     1     144.584 174.020 192.450  0.00  0.00    +0.022 C 
ATOM     19  C   UNL     1     145.043 173.598 191.263  0.00  0.00    -0.055 C 
ATOM     20  C   UNL     1     146.331 173.005 191.011  0.00  0.00    -0.065 C 
ATOM     21  C   UNL     1     146.841 171.944 191.650  0.00  0.00    -0.081 C 
ATOM     22  C   UNL     1     148.141 171.306 191.216  0.00  0.00    +0.003 C 
ATOM     23  C   UNL     1     148.035 169.801 190.858  0.00  0.00    +0.111 C 
ATOM     24  C   UNL     1     146.823 169.381 189.966  0.00  0.00    +0.020 C 
ATOM     25  C   UNL     1     146.885 167.851 189.700  0.00  0.00    +0.064 C 
ATOM     26  H   UNL     1     145.881 166.075 189.131  0.00  0.00    +0.032 HD
ATOM     27  H   UNL     1     143.798 168.195 189.677  0.00  0.00    +0.027 HD
ATOM     28  H   UNL     1     144.738 167.659 191.037  0.00  0.00    +0.027 HD
ATOM     29  H   UNL     1     144.082 165.415 190.874  0.00  0.00    +0.029 HD
ATOM     30  H   UNL     1     142.671 166.449 190.950  0.00  0.00    +0.029 HD
ATOM     31  H   UNL     1     142.200 164.612 189.488  0.00  0.00    +0.064 HD
ATOM     32  H   UNL     1     141.528 167.736 189.388  0.00  0.00    +0.057 HD
ATOM     33  H   UNL     1     139.700 168.533 188.087  0.00  0.00    +0.031 HD
ATOM     34  H   UNL     1     140.096 167.562 186.719  0.00  0.00    +0.031 HD
ATOM     35  H   UNL     1     142.186 168.948 186.339  0.00  0.00    +0.030 HD
ATOM     36  H   UNL     1     142.315 171.216 187.232  0.00  0.00    +0.030 HD
ATOM     37  H   UNL     1     142.619 169.987 188.448  0.00  0.00    +0.030 HD
ATOM     38  H   UNL     1     139.842 171.242 188.200  0.00  0.00    +0.064 HD
ATOM     39  H   UNL     1     142.222 172.305 189.882  0.00  0.00    +0.059 HD
ATOM     40  H   UNL     1     139.770 173.633 188.591  0.00  0.00    +0.057 HD
ATOM     41  H   UNL     1     140.579 175.685 189.302  0.00  0.00    +0.034 HD
ATOM     42  H   UNL     1     142.205 175.058 189.308  0.00  0.00    +0.034 HD
ATOM     43  H   UNL     1     141.474 176.057 191.507  0.00  0.00    +0.074 HD
ATOM     44  H   UNL     1     145.162 173.965 193.364  0.00  0.00    +0.069 HD
ATOM     45  H   UNL     1     144.457 173.776 190.362  0.00  0.00    +0.062 HD
ATOM     46  H   UNL     1     146.864 173.427 190.158  0.00  0.00    +0.061 HD
ATOM     47  H   UNL     1     146.319 171.478 192.484  0.00  0.00    +0.057 HD
ATOM     48  H   UNL     1     148.856 171.435 192.040  0.00  0.00    +0.034 HD
ATOM     49  H   UNL     1     148.560 171.842 190.357  0.00  0.00    +0.034 HD
ATOM     50  H   UNL     1     148.951 169.530 190.315  0.00  0.00    +0.074 HD
ATOM     51  H   UNL     1     145.907 169.590 190.529  0.00  0.00    +0.036 HD
ATOM     52  H   UNL     1     147.089 167.344 190.650  0.00  0.00    +0.060 HD
ENDROOT
BRANCH   1  53
ATOM     53  C   UNL     1     145.325 167.503 187.666  0.00  0.00    -0.060 C 
ATOM     54  H   UNL     1     145.538 168.554 187.470  0.00  0.00    +0.023 HD
ATOM     55  H   UNL     1     144.276 167.347 187.406  0.00  0.00    +0.023 HD
ATOM     56  H   UNL     1     145.939 166.926 186.972  0.00  0.00    +0.023 HD
ENDBRANCH   1  53
BRANCH   5  57
ATOM     57  C   UNL     1     141.928 165.507 186.723  0.00  0.00    -0.041 C 
ATOM     58  H   UNL     1     140.904 165.443 186.349  0.00  0.00    +0.028 HD
ATOM     59  H   UNL     1     142.497 166.062 185.970  0.00  0.00    +0.028 HD
ATOM     60  H   UNL     1     142.316 164.483 186.769  0.00  0.00    +0.028 HD
ENDBRANCH   5  57
BRANCH  24  61
ATOM     61  C   UNL     1     146.793 170.199 188.667  0.00  0.00    -0.057 C 
ATOM     62  H   UNL     1     147.758 170.166 188.156  0.00  0.00    +0.023 HD
ATOM     63  H   UNL     1     146.533 171.248 188.847  0.00  0.00    +0.023 HD
ATOM     64  H   UNL     1     146.071 169.812 187.945  0.00  0.00    +0.023 HD
ENDBRANCH  24  61
BRANCH   8  65
ATOM     65  C   UNL     1     140.431 169.991 185.761  0.00  0.00    -0.062 C 
ATOM     66  H   UNL     1     140.100 170.995 186.044  0.00  0.00    +0.023 HD
ATOM     67  H   UNL     1     140.980 170.066 184.816  0.00  0.00    +0.023 HD
ATOM     68  H   UNL     1     139.538 169.385 185.578  0.00  0.00    +0.023 HD
ENDBRANCH   8  65
BRANCH  14  69
ATOM     69  C   UNL     1     139.968 174.559 191.998  0.00  0.00    +0.020 C 
ATOM     70  H   UNL     1     139.207 174.362 191.238  0.00  0.00    +0.036 HD
BRANCH  69  71
ATOM     71  C   UNL     1     140.139 173.220 192.734  0.00  0.00    -0.057 C 
ATOM     72  H   UNL     1     139.493 172.445 192.306  0.00  0.00    +0.023 HD
ATOM     73  H   UNL     1     141.166 172.850 192.654  0.00  0.00    +0.023 HD
ATOM     74  H   UNL     1     139.884 173.314 193.794  0.00  0.00    +0.023 HD
ENDBRANCH  69  71
BRANCH  69  75
ATOM     75  C   UNL     1     139.418 175.618 193.000  0.00  0.00    +0.064 C 
ATOM     76  H   UNL     1     139.467 175.173 194.002  0.00  0.00    +0.060 HD
BRANCH  75  77
ATOM     77  C   UNL     1     137.940 176.023 192.719  0.00  0.00    -0.017 C 
ATOM     78  H   UNL     1     137.912 177.118 192.657  0.00  0.00    +0.032 HD
BRANCH  77  79
ATOM     79  C   UNL     1     137.491 175.518 191.341  0.00  0.00    -0.060 C 
ATOM     80  H   UNL     1     136.547 174.969 191.386  0.00  0.00    +0.023 HD
ATOM     81  H   UNL     1     138.244 174.845 190.918  0.00  0.00    +0.023 HD
ATOM     82  H   UNL     1     137.367 176.352 190.642  0.00  0.00    +0.023 HD
ENDBRANCH  77  79
BRANCH  77  83
ATOM     83  C   UNL     1     136.905 175.634 193.811  0.00  0.00    -0.045 C 
ATOM     84  H   UNL     1     136.003 175.287 193.294  0.00  0.00    +0.027 HD
ATOM     85  H   UNL     1     136.605 176.530 194.363  0.00  0.00    +0.027 HD
BRANCH  83  86
ATOM     86  C   UNL     1     137.334 174.558 194.824  0.00  0.00    -0.015 C 
ATOM     87  H   UNL     1     137.878 173.770 194.294  0.00  0.00    +0.030 HD
ATOM     88  H   UNL     1     138.003 175.008 195.562  0.00  0.00    +0.030 HD
BRANCH  86  89
ATOM     89  C   UNL     1     136.139 173.935 195.582  0.00  0.00    +0.109 C 
ATOM     90  H   UNL     1     136.237 172.843 195.536  0.00  0.00    +0.074 HD
BRANCH  89  91
ATOM     91  C   UNL     1     134.772 174.324 194.941  0.00  0.00    +0.031 C 
ATOM     92  H   UNL     1     135.004 175.072 194.169  0.00  0.00    +0.037 HD
BRANCH  91  93
ATOM     93  C   UNL     1     133.823 174.968 195.962  0.00  0.00    -0.056 C 
ATOM     94  H   UNL     1     134.109 174.723 196.989  0.00  0.00    +0.023 HD
ATOM     95  H   UNL     1     132.789 174.640 195.809  0.00  0.00    +0.023 HD
ATOM     96  H   UNL     1     133.842 176.059 195.898  0.00  0.00    +0.023 HD
ENDBRANCH  91  93
BRANCH  91  97
ATOM     97  C   UNL     1     134.094 173.094 194.251  0.00  0.00    +0.115 C 
ATOM     98  H   UNL     1     133.040 173.079 194.560  0.00  0.00    +0.074 HD
BRANCH  97  99
ATOM     99  C   UNL     1     134.143 173.138 192.692  0.00  0.00    +0.013 C 
ATOM    100  H   UNL     1     134.077 174.189 192.385  0.00  0.00    +0.038 HD
BRANCH  99 101
ATOM    101  C   UNL     1     132.943 172.435 192.042  0.00  0.00    -0.056 C 
ATOM    102  H   UNL     1     133.254 171.907 191.132  0.00  0.00    +0.024 HD
ATOM    103  H   UNL     1     132.486 171.694 192.708  0.00  0.00    +0.024 HD
ATOM    104  H   UNL     1     132.177 173.163 191.754  0.00  0.00    +0.024 HD
ENDBRANCH  99 101
BRANCH  99 105
ATOM    105  C   UNL     1     135.416 172.532 192.138  0.00  0.00    -0.064 C 
ATOM    106  C   UNL     1     135.424 171.524 191.253  0.00  0.00    -0.005 C 
ATOM    107  H   UNL     1     136.341 172.979 192.490  0.00  0.00    +0.059 HD
ATOM    108  H   UNL     1     134.481 171.093 190.920  0.00  0.00    +0.078 HD
BRANCH 106 109
ATOM    109  N   UNL     1     136.556 170.947 190.694  0.00  0.00    -0.284 N 
ATOM    110  C   UNL     1     136.974 169.689 191.123  0.00  0.00    +0.206 C 
ATOM    111  O   UNL     1     136.432 168.986 191.969  0.00  0.00    -0.279 OA
ATOM    112  H   UNL     1     137.889 169.349 190.609  0.00  0.00    +0.126 HD
BRANCH 109 113
ATOM    113  C   UNL     1     137.316 171.626 189.656  0.00  0.00    +0.007 C 
ATOM    114  H   UNL     1     138.386 171.478 189.835  0.00  0.00    +0.043 HD
ATOM    115  H   UNL     1     137.076 171.231 188.663  0.00  0.00    +0.043 HD
ATOM    116  H   UNL     1     137.075 172.695 189.665  0.00  0.00    +0.043 HD
ENDBRANCH 109 113
ENDBRANCH 106 109
ENDBRANCH  99 105
ENDBRANCH  97  99
BRANCH  97 117
ATOM    117  O   UNL     1     134.769 171.896 194.720  0.00  0.00    -0.461 OA
BRANCH 117 118
ATOM    118  C   UNL     1     133.985 170.823 195.015  0.00  0.00    +0.304 C 
ATOM    119  O   UNL     1     133.985 169.754 194.423  0.00  0.00    -0.251 OA
BRANCH 118 120
ATOM    120  C   UNL     1     133.142 171.113 196.218  0.00  0.00    +0.033 C 
ATOM    121  H   UNL     1     132.319 170.395 196.284  0.00  0.00    +0.034 HD
ATOM    122  H   UNL     1     133.753 171.009 197.118  0.00  0.00    +0.034 HD
ATOM    123  H   UNL     1     132.763 172.135 196.160  0.00  0.00    +0.034 HD
ENDBRANCH 118 120
ENDBRANCH 117 118
ENDBRANCH  97 117
ENDBRANCH  91  97
ENDBRANCH  89  91
BRANCH  89 124
ATOM    124  O   UNL     1     136.151 174.409 196.944  0.00  0.00    -0.460 OA
BRANCH 124 125
ATOM    125  C   UNL     1     136.297 173.492 197.941  0.00  0.00    +0.324 C 
ATOM    126  O   UNL     1     136.713 172.349 197.772  0.00  0.00    -0.249 OA
BRANCH 125 127
ATOM    127  C   UNL     1     135.817 174.017 199.309  0.00  0.00    +0.105 C 
ATOM    128  H   UNL     1     134.775 174.339 199.177  0.00  0.00    +0.058 HD
BRANCH 127 129
ATOM    129  C   UNL     1     136.672 175.251 199.618  0.00  0.00    -0.039 C 
ATOM    130  H   UNL     1     136.073 176.166 199.580  0.00  0.00    +0.025 HD
ATOM    131  H   UNL     1     137.104 175.175 200.621  0.00  0.00    +0.025 HD
ATOM    132  H   UNL     1     137.511 175.355 198.923  0.00  0.00    +0.025 HD
ENDBRANCH 127 129
BRANCH 127 133
ATOM    133  N   UNL     1     135.858 172.970 200.376  0.00  0.00    -0.296 NA
BRANCH 133 134
ATOM    134  C   UNL     1     134.521 172.741 200.943  0.00  0.00    -0.012 C 
ATOM    135  H   UNL     1     134.337 171.678 201.125  0.00  0.00    +0.039 HD
ATOM    136  H   UNL     1     133.731 173.122 200.286  0.00  0.00    +0.039 HD
ATOM    137  H   UNL     1     134.430 173.238 201.917  0.00  0.00    +0.039 HD
ENDBRANCH 133 134
BRANCH 133 138
ATOM    138  C   UNL     1     136.779 173.321 201.462  0.00  0.00    -0.012 C 
ATOM    139  H   UNL     1     137.309 174.254 201.236  0.00  0.00    +0.039 HD
ATOM    140  H   UNL     1     136.239 173.506 202.397  0.00  0.00    +0.039 HD
ATOM    141  H   UNL     1     137.527 172.536 201.634  0.00  0.00    +0.039 HD
ENDBRANCH 133 138
ENDBRANCH 127 133
ENDBRANCH 125 127
ENDBRANCH 124 125
ENDBRANCH  89 124
ENDBRANCH  86  89
ENDBRANCH  83  86
ENDBRANCH  77  83
ENDBRANCH  75  77
BRANCH  75 142
ATOM    142  O   UNL     1     140.255 176.764 193.063  0.00  0.00    -0.391 OA
ATOM    143  H   UNL     1     139.723 177.539 192.811  0.00  0.00    +0.210 HD
ENDBRANCH  75 142
ENDBRANCH  69  75
ENDBRANCH  14  69
BRANCH  25 144
ATOM    144  O   UNL     1     148.020 167.565 188.870  0.00  0.00    -0.391 OA
ATOM    145  H   UNL     1     148.559 166.898 189.326  0.00  0.00    +0.210 HD
ENDBRANCH  25 144
BRANCH  23 146
ATOM    146  O   UNL     1     147.968 169.067 192.112  0.00  0.00    -0.460 OA
BRANCH 146 147
ATOM    147  C   UNL     1     149.082 168.333 192.420  0.00  0.00    +0.327 C 
ATOM    148  O   UNL     1     150.233 168.761 192.376  0.00  0.00    -0.249 OA
BRANCH 147 149
ATOM    149  C   UNL     1     148.701 166.893 192.797  0.00  0.00    +0.131 C 
ATOM    150  H   UNL     1     148.509 166.348 191.863  0.00  0.00    +0.060 HD
BRANCH 149 151
ATOM    151  C   UNL     1     147.365 166.943 193.559  0.00  0.00    +0.073 C 
ATOM    152  H   UNL     1     147.477 166.461 194.537  0.00  0.00    +0.058 HD
ATOM    153  H   UNL     1     147.026 167.973 193.716  0.00  0.00    +0.058 HD
BRANCH 151 154
ATOM    154  O   UNL     1     146.379 166.208 192.821  0.00  0.00    -0.381 OA
BRANCH 154 155
ATOM    155  C   UNL     1     145.143 166.143 193.521  0.00  0.00    +0.037 C 
ATOM    156  H   UNL     1     144.751 167.147 193.707  0.00  0.00    +0.052 HD
ATOM    157  H   UNL     1     145.318 165.653 194.483  0.00  0.00    +0.052 HD
ATOM    158  H   UNL     1     144.414 165.551 192.959  0.00  0.00    +0.052 HD
ENDBRANCH 154 155
ENDBRANCH 151 154
ENDBRANCH 149 151
BRANCH 149 159
ATOM    159  N   UNL     1     149.753 166.184 193.589  0.00  0.00    -0.294 NA
BRANCH 159 160
ATOM    160  C   UNL     1     149.447 166.194 195.017  0.00  0.00    -0.012 C 
ATOM    161  H   UNL     1     148.724 165.426 195.303  0.00  0.00    +0.039 HD
ATOM    162  H   UNL     1     149.055 167.170 195.308  0.00  0.00    +0.039 HD
ATOM    163  H   UNL     1     150.353 166.044 195.614  0.00  0.00    +0.039 HD
ENDBRANCH 159 160
BRANCH 159 164
ATOM    164  C   UNL     1     150.029 164.825 193.122  0.00  0.00    -0.012 C 
ATOM    165  H   UNL     1     149.225 164.425 192.494  0.00  0.00    +0.039 HD
ATOM    166  H   UNL     1     150.146 164.148 193.975  0.00  0.00    +0.039 HD
ATOM    167  H   UNL     1     150.967 164.778 192.562  0.00  0.00    +0.039 HD
ENDBRANCH 159 164
ENDBRANCH 149 159
ENDBRANCH 147 149
ENDBRANCH 146 147
ENDBRANCH  23 146
BRANCH   4 168
ATOM    168  O   UNL     1     143.949 164.707 188.392  0.00  0.00    -0.376 OA
BRANCH 168 169
ATOM    169  C   UNL     1     144.068 163.331 188.732  0.00  0.00    +0.037 C 
ATOM    170  H   UNL     1     143.454 162.755 188.035  0.00  0.00    +0.052 HD
ATOM    171  H   UNL     1     143.695 163.165 189.746  0.00  0.00    +0.052 HD
ATOM    172  H   UNL     1     145.104 162.991 188.647  0.00  0.00    +0.052 HD
ENDBRANCH 168 169
ENDBRANCH   4 168
BRANCH  10 173
ATOM    173  O   UNL     1     140.534 170.183 189.845  0.00  0.00    -0.376 OA
BRANCH 173 174
ATOM    174  C   UNL     1     141.614 170.122 190.772  0.00  0.00    +0.037 C 
ATOM    175  H   UNL     1     142.212 171.029 190.659  0.00  0.00    +0.052 HD
ATOM    176  H   UNL     1     141.239 170.086 191.798  0.00  0.00    +0.052 HD
ATOM    177  H   UNL     1     142.255 169.257 190.570  0.00  0.00    +0.052 HD
ENDBRANCH 173 174
ENDBRANCH  10 173
TORSDOF 45
ENDMDL
MODEL 2
REMARK VINA RESULT:      -4.8      2.431     12.974
REMARK  Name = Aplyronine A_conf1
REMARK  45 active torsions:
REMARK  status: ('A' for Active; 'I' for Inactive)
REMARK    1  A    between atoms: C_1  and  C_2
REMARK    2  A    between atoms: C_5  and  O_75
REMARK    3  A    between atoms: C_6  and  C_74
REMARK    4  A    between atoms: C_9  and  C_73
REMARK    5  A    between atoms: C_11  and  O_71
REMARK    6  A    between atoms: C_15  and  C_39
REMARK    7  A    between atoms: C_24  and  O_29
REMARK    8  A    between atoms: C_25  and  C_28
REMARK    9  A    between atoms: C_26  and  O_27
REMARK   10  A    between atoms: O_29  and  C_30
REMARK   11  A    between atoms: C_30  and  C_32
REMARK   12  A    between atoms: C_32  and  C_33
REMARK   13  A    between atoms: C_32  and  N_36
REMARK   14  A    between atoms: C_33  and  O_34
REMARK   15  A    between atoms: O_34  and  C_35
REMARK   16  A    between atoms: N_36  and  C_37
REMARK   17  A    between atoms: N_36  and  C_38
REMARK   18  A    between atoms: C_39  and  C_40
REMARK   19  A    between atoms: C_39  and  C_41
REMARK   20  A    between atoms: C_41  and  C_42
REMARK   21  A    between atoms: C_41  and  O_70
REMARK   22  A    between atoms: C_42  and  C_43
REMARK   23  A    between atoms: C_42  and  C_44
REMARK   24  A    between atoms: C_44  and  C_45
REMARK   25  A    between atoms: C_45  and  C_46
REMARK   26  A    between atoms: C_46  and  C_47
REMARK   27  A    between atoms: C_46  and  O_62
REMARK   28  A    between atoms: C_47  and  C_48
REMARK   29  A    between atoms: C_47  and  C_49
REMARK   30  A    between atoms: C_49  and  C_50
REMARK   31  A    between atoms: C_49  and  O_58
REMARK   32  A    between atoms: C_50  and  C_51
REMARK   33  A    between atoms: C_50  and  C_52
REMARK   34  A    between atoms: C_53  and  N_54
REMARK   35  A    between atoms: N_54  and  C_55
REMARK   36  A    between atoms: O_58  and  C_59
REMARK   37  A    between atoms: C_59  and  C_61
REMARK   38  A    between atoms: O_62  and  C_63
REMARK   39  A    between atoms: C_63  and  C_65
REMARK   40  A    between atoms: C_65  and  C_66
REMARK   41  A    between atoms: C_65  and  N_67
REMARK   42  A    between atoms: N_67  and  C_68
REMARK   43  A    between atoms: N_67  and  C_69
REMARK   44  A    between atoms: O_71  and  C_72
REMARK   45  A    between atoms: O_75  and  C_76
REMARK                            x       y       z     vdW  Elec       q    Type
REMARK                         _______ _______ _______ _____ _____    ______ ____
ROOT
ATOM      1  C   UNL     1     135.944 175.514 194.973  0.00  0.00    -0.017 C 
ATOM      2  C   UNL     1     137.393 175.026 195.171  0.00  0.00    -0.045 C 
ATOM      3  C   UNL     1     138.159 175.583 196.389  0.00  0.00    -0.022 C 
ATOM      4  C   UNL     1     138.297 177.110 196.566  0.00  0.00    +0.079 C 
ATOM      5  C   UNL     1     138.916 177.922 195.423  0.00  0.00    -0.048 C 
ATOM      6  C   UNL     1     139.744 177.382 194.502  0.00  0.00    -0.082 C 
ATOM      7  C   UNL     1     140.444 178.079 193.364  0.00  0.00    -0.032 C 
ATOM      8  C   UNL     1     139.708 177.932 192.020  0.00  0.00    -0.038 C 
ATOM      9  C   UNL     1     139.627 176.491 191.453  0.00  0.00    -0.020 C 
ATOM     10  C   UNL     1     140.976 175.765 191.264  0.00  0.00    +0.077 C 
ATOM     11  C   UNL     1     140.804 174.602 190.316  0.00  0.00    -0.059 C 
ATOM     12  C   UNL     1     141.491 174.444 189.170  0.00  0.00    -0.082 C 
ATOM     13  C   UNL     1     141.348 173.274 188.221  0.00  0.00    +0.003 C 
ATOM     14  C   UNL     1     141.739 171.871 188.766  0.00  0.00    +0.112 C 
ATOM     15  O   UNL     1     140.654 171.506 189.654  0.00  0.00    -0.458 OA
ATOM     16  C   UNL     1     140.120 170.266 189.523  0.00  0.00    +0.332 C 
ATOM     17  O   UNL     1     140.612 169.314 188.941  0.00  0.00    -0.246 OA
ATOM     18  C   UNL     1     138.781 170.219 190.146  0.00  0.00    +0.022 C 
ATOM     19  C   UNL     1     137.955 171.269 190.026  0.00  0.00    -0.055 C 
ATOM     20  C   UNL     1     136.581 171.323 190.453  0.00  0.00    -0.065 C 
ATOM     21  C   UNL     1     136.133 171.040 191.682  0.00  0.00    -0.081 C 
ATOM     22  C   UNL     1     134.689 171.266 192.073  0.00  0.00    +0.003 C 
ATOM     23  C   UNL     1     134.489 172.210 193.286  0.00  0.00    +0.111 C 
ATOM     24  C   UNL     1     135.335 173.523 193.294  0.00  0.00    +0.020 C 
ATOM     25  C   UNL     1     134.997 174.347 194.568  0.00  0.00    +0.064 C 
ATOM     26  H   UNL     1     135.554 175.860 195.940  0.00  0.00    +0.032 HD
ATOM     27  H   UNL     1     137.971 175.187 194.256  0.00  0.00    +0.027 HD
ATOM     28  H   UNL     1     137.386 173.937 195.314  0.00  0.00    +0.027 HD
ATOM     29  H   UNL     1     137.663 175.180 197.281  0.00  0.00    +0.029 HD
ATOM     30  H   UNL     1     139.165 175.138 196.381  0.00  0.00    +0.029 HD
ATOM     31  H   UNL     1     138.957 177.280 197.430  0.00  0.00    +0.064 HD
ATOM     32  H   UNL     1     139.986 176.324 194.559  0.00  0.00    +0.057 HD
ATOM     33  H   UNL     1     141.466 177.694 193.293  0.00  0.00    +0.031 HD
ATOM     34  H   UNL     1     140.577 179.140 193.594  0.00  0.00    +0.031 HD
ATOM     35  H   UNL     1     138.669 178.262 192.170  0.00  0.00    +0.030 HD
ATOM     36  H   UNL     1     139.101 176.544 190.491  0.00  0.00    +0.030 HD
ATOM     37  H   UNL     1     138.988 175.894 192.117  0.00  0.00    +0.030 HD
ATOM     38  H   UNL     1     141.726 176.467 190.884  0.00  0.00    +0.064 HD
ATOM     39  H   UNL     1     140.077 173.852 190.624  0.00  0.00    +0.059 HD
ATOM     40  H   UNL     1     142.224 175.194 188.883  0.00  0.00    +0.057 HD
ATOM     41  H   UNL     1     141.929 173.508 187.321  0.00  0.00    +0.034 HD
ATOM     42  H   UNL     1     140.302 173.249 187.886  0.00  0.00    +0.034 HD
ATOM     43  H   UNL     1     141.746 171.180 187.912  0.00  0.00    +0.074 HD
ATOM     44  H   UNL     1     138.480 169.273 190.581  0.00  0.00    +0.069 HD
ATOM     45  H   UNL     1     138.284 172.156 189.486  0.00  0.00    +0.062 HD
ATOM     46  H   UNL     1     135.892 171.724 189.708  0.00  0.00    +0.061 HD
ATOM     47  H   UNL     1     136.800 170.669 192.459  0.00  0.00    +0.057 HD
ATOM     48  H   UNL     1     134.258 170.281 192.301  0.00  0.00    +0.034 HD
ATOM     49  H   UNL     1     134.123 171.661 191.223  0.00  0.00    +0.034 HD
ATOM     50  H   UNL     1     133.429 172.502 193.299  0.00  0.00    +0.074 HD
ATOM     51  H   UNL     1     136.391 173.238 193.345  0.00  0.00    +0.036 HD
ATOM     52  H   UNL     1     135.001 173.667 195.428  0.00  0.00    +0.060 HD
ENDROOT
BRANCH   1  53
ATOM     53  C   UNL     1     135.863 176.723 194.030  0.00  0.00    -0.060 C 
ATOM     54  H   UNL     1     135.575 176.417 193.023  0.00  0.00    +0.023 HD
ATOM     55  H   UNL     1     136.822 177.236 193.933  0.00  0.00    +0.023 HD
ATOM     56  H   UNL     1     135.118 177.450 194.359  0.00  0.00    +0.023 HD
ENDBRANCH   1  53
BRANCH   5  57
ATOM     57  C   UNL     1     138.561 179.391 195.452  0.00  0.00    -0.041 C 
ATOM     58  H   UNL     1     138.856 179.935 194.552  0.00  0.00    +0.028 HD
ATOM     59  H   UNL     1     137.478 179.525 195.551  0.00  0.00    +0.028 HD
ATOM     60  H   UNL     1     139.053 179.881 196.299  0.00  0.00    +0.028 HD
ENDBRANCH   5  57
BRANCH  24  61
ATOM     61  C   UNL     1     135.109 174.325 192.004  0.00  0.00    -0.057 C 
ATOM     62  H   UNL     1     135.827 175.144 191.916  0.00  0.00    +0.023 HD
ATOM     63  H   UNL     1     134.098 174.745 191.952  0.00  0.00    +0.023 HD
ATOM     64  H   UNL     1     135.249 173.721 191.106  0.00  0.00    +0.023 HD
ENDBRANCH  24  61
BRANCH   8  65
ATOM     65  C   UNL     1     140.316 178.887 190.986  0.00  0.00    -0.062 C 
ATOM     66  H   UNL     1     140.391 179.908 191.375  0.00  0.00    +0.023 HD
ATOM     67  H   UNL     1     141.319 178.559 190.693  0.00  0.00    +0.023 HD
ATOM     68  H   UNL     1     139.700 178.920 190.081  0.00  0.00    +0.023 HD
ENDBRANCH   8  65
BRANCH  14  69
ATOM     69  C   UNL     1     143.115 171.824 189.482  0.00  0.00    +0.020 C 
ATOM     70  H   UNL     1     143.638 172.759 189.264  0.00  0.00    +0.036 HD
BRANCH  69  71
ATOM     71  C   UNL     1     142.979 171.803 191.014  0.00  0.00    -0.057 C 
ATOM     72  H   UNL     1     142.096 171.235 191.327  0.00  0.00    +0.023 HD
ATOM     73  H   UNL     1     143.843 171.325 191.484  0.00  0.00    +0.023 HD
ATOM     74  H   UNL     1     142.880 172.816 191.417  0.00  0.00    +0.023 HD
ENDBRANCH  69  71
BRANCH  69  75
ATOM     75  C   UNL     1     144.010 170.629 189.039  0.00  0.00    +0.064 C 
ATOM     76  H   UNL     1     144.214 170.027 189.933  0.00  0.00    +0.060 HD
BRANCH  75  77
ATOM     77  C   UNL     1     145.372 171.072 188.429  0.00  0.00    -0.017 C 
ATOM     78  H   UNL     1     145.448 170.611 187.437  0.00  0.00    +0.032 HD
BRANCH  77  79
ATOM     79  C   UNL     1     145.391 172.588 188.183  0.00  0.00    -0.060 C 
ATOM     80  H   UNL     1     146.159 173.096 188.772  0.00  0.00    +0.023 HD
ATOM     81  H   UNL     1     144.424 173.028 188.451  0.00  0.00    +0.023 HD
ATOM     82  H   UNL     1     145.570 172.808 187.126  0.00  0.00    +0.023 HD
ENDBRANCH  77  79
BRANCH  77  83
ATOM     83  C   UNL     1     146.645 170.626 189.202  0.00  0.00    -0.045 C 
ATOM     84  H   UNL     1     147.359 171.457 189.160  0.00  0.00    +0.027 HD
ATOM     85  H   UNL     1     147.122 169.798 188.669  0.00  0.00    +0.027 HD
BRANCH  83  86
ATOM     86  C   UNL     1     146.458 170.215 190.672  0.00  0.00    -0.015 C 
ATOM     87  H   UNL     1     147.019 170.908 191.307  0.00  0.00    +0.030 HD
ATOM     88  H   UNL     1     145.398 170.285 190.932  0.00  0.00    +0.030 HD
BRANCH  86  89
ATOM     89  C   UNL     1     146.923 168.769 190.957  0.00  0.00    +0.109 C 
ATOM     90  H   UNL     1     147.096 168.670 192.036  0.00  0.00    +0.074 HD
BRANCH  89  91
ATOM     91  C   UNL     1     148.255 168.427 190.222  0.00  0.00    +0.031 C 
ATOM     92  H   UNL     1     148.523 169.327 189.652  0.00  0.00    +0.037 HD
BRANCH  91  93
ATOM     93  C   UNL     1     148.082 167.267 189.232  0.00  0.00    -0.056 C 
ATOM     94  H   UNL     1     148.794 167.334 188.403  0.00  0.00    +0.023 HD
ATOM     95  H   UNL     1     147.071 167.248 188.810  0.00  0.00    +0.023 HD
ATOM     96  H   UNL     1     148.267 166.300 189.707  0.00  0.00    +0.023 HD
ENDBRANCH  91  93
BRANCH  91  97
ATOM     97  C   UNL     1     149.406 168.124 191.238  0.00  0.00    +0.115 C 
ATOM     98  H   UNL     1     149.951 167.245 190.869  0.00  0.00    +0.074 HD
BRANCH  97  99
ATOM     99  C   UNL     1     150.426 169.294 191.405  0.00  0.00    +0.013 C 
ATOM    100  H   UNL     1     150.694 169.649 190.403  0.00  0.00    +0.038 HD
BRANCH  99 101
ATOM    101  C   UNL     1     151.740 168.844 192.058  0.00  0.00    -0.056 C 
ATOM    102  H   UNL     1     151.552 168.437 193.059  0.00  0.00    +0.024 HD
ATOM    103  H   UNL     1     152.245 168.063 191.478  0.00  0.00    +0.024 HD
ATOM    104  H   UNL     1     152.425 169.691 192.171  0.00  0.00    +0.024 HD
ENDBRANCH  99 101
BRANCH  99 105
ATOM    105  C   UNL     1     149.856 170.443 192.210  0.00  0.00    -0.064 C 
ATOM    106  C   UNL     1     149.601 171.651 191.686  0.00  0.00    -0.005 C 
ATOM    107  H   UNL     1     149.644 170.227 193.253  0.00  0.00    +0.059 HD
ATOM    108  H   UNL     1     149.827 171.841 190.637  0.00  0.00    +0.078 HD
BRANCH 106 109
ATOM    109  N   UNL     1     149.057 172.731 192.367  0.00  0.00    -0.284 N 
ATOM    110  C   UNL     1     148.222 173.623 191.695  0.00  0.00    +0.206 C 
ATOM    111  O   UNL     1     147.880 173.561 190.519  0.00  0.00    -0.279 OA
ATOM    112  H   UNL     1     147.865 174.439 192.345  0.00  0.00    +0.126 HD
BRANCH 109 113
ATOM    113  C   UNL     1     149.333 172.952 193.779  0.00  0.00    +0.007 C 
ATOM    114  H   UNL     1     148.703 172.287 194.378  0.00  0.00    +0.043 HD
ATOM    115  H   UNL     1     150.380 172.741 194.018  0.00  0.00    +0.043 HD
ATOM    116  H   UNL     1     149.128 173.998 194.033  0.00  0.00    +0.043 HD
ENDBRANCH 109 113
ENDBRANCH 106 109
ENDBRANCH  99 105
ENDBRANCH  97  99
BRANCH  97 117
ATOM    117  O   UNL     1     148.796 167.830 192.523  0.00  0.00    -0.461 OA
BRANCH 117 118
ATOM    118  C   UNL     1     148.898 166.549 192.975  0.00  0.00    +0.304 C 
ATOM    119  O   UNL     1     148.396 165.565 192.454  0.00  0.00    -0.251 OA
BRANCH 118 120
ATOM    120  C   UNL     1     149.768 166.498 194.193  0.00  0.00    +0.033 C 
ATOM    121  H   UNL     1     149.727 165.503 194.645  0.00  0.00    +0.034 HD
ATOM    122  H   UNL     1     150.803 166.696 193.903  0.00  0.00    +0.034 HD
ATOM    123  H   UNL     1     149.446 167.262 194.904  0.00  0.00    +0.034 HD
ENDBRANCH 118 120
ENDBRANCH 117 118
ENDBRANCH  97 117
ENDBRANCH  91  97
ENDBRANCH  89  91
BRANCH  89 124
ATOM    124  O   UNL     1     145.907 167.852 190.500  0.00  0.00    -0.460 OA
BRANCH 124 125
ATOM    125  C   UNL     1     145.038 167.347 191.420  0.00  0.00    +0.324 C 
ATOM    126  O   UNL     1     145.372 166.908 192.517  0.00  0.00    -0.249 OA
BRANCH 125 127
ATOM    127  C   UNL     1     143.583 167.319 190.912  0.00  0.00    +0.105 C 
ATOM    128  H   UNL     1     143.609 167.624 189.857  0.00  0.00    +0.058 HD
BRANCH 127 129
ATOM    129  C   UNL     1     142.831 168.391 191.708  0.00  0.00    -0.039 C 
ATOM    130  H   UNL     1     142.965 169.382 191.263  0.00  0.00    +0.025 HD
ATOM    131  H   UNL     1     141.757 168.173 191.723  0.00  0.00    +0.025 HD
ATOM    132  H   UNL     1     143.156 168.432 192.753  0.00  0.00    +0.025 HD
ENDBRANCH 127 129
BRANCH 127 133
ATOM    133  N   UNL     1     142.967 165.958 190.998  0.00  0.00    -0.296 NA
BRANCH 133 134
ATOM    134  C   UNL     1     142.237 165.631 189.765  0.00  0.00    -0.012 C 
ATOM    135  H   UNL     1     141.752 166.513 189.337  0.00  0.00    +0.039 HD
ATOM    136  H   UNL     1     141.473 164.864 189.937  0.00  0.00    +0.039 HD
ATOM    137  H   UNL     1     142.931 165.262 188.998  0.00  0.00    +0.039 HD
ENDBRANCH 133 134
BRANCH 133 138
ATOM    138  C   UNL     1     142.052 165.835 192.137  0.00  0.00    -0.012 C 
ATOM    139  H   UNL     1     141.408 164.954 192.026  0.00  0.00    +0.039 HD
ATOM    140  H   UNL     1     142.602 165.683 193.074  0.00  0.00    +0.039 HD
ATOM    141  H   UNL     1     141.409 166.718 192.243  0.00  0.00    +0.039 HD
ENDBRANCH 133 138
ENDBRANCH 127 133
ENDBRANCH 125 127
ENDBRANCH 124 125
ENDBRANCH  89 124
ENDBRANCH  86  89
ENDBRANCH  83  86
ENDBRANCH  77  83
ENDBRANCH  75  77
BRANCH  75 142
ATOM    142  O   UNL     1     143.319 169.756 188.155  0.00  0.00    -0.391 OA
ATOM    143  H   UNL     1     143.538 170.016 187.244  0.00  0.00    +0.210 HD
ENDBRANCH  75 142
ENDBRANCH  69  75
ENDBRANCH  14  69
BRANCH  25 144
ATOM    144  O   UNL     1     133.647 174.824 194.473  0.00  0.00    -0.391 OA
ATOM    145  H   UNL     1     133.545 175.257 193.610  0.00  0.00    +0.210 HD
ENDBRANCH  25 144
BRANCH  23 146
ATOM    146  O   UNL     1     134.805 171.444 194.481  0.00  0.00    -0.460 OA
BRANCH 146 147
ATOM    147  C   UNL     1     133.775 170.695 194.985  0.00  0.00    +0.327 C 
ATOM    148  O   UNL     1     133.593 169.505 194.738  0.00  0.00    -0.249 OA
BRANCH 147 149
ATOM    149  C   UNL     1     132.861 171.552 195.874  0.00  0.00    +0.131 C 
ATOM    150  H   UNL     1     133.236 172.583 195.837  0.00  0.00    +0.060 HD
BRANCH 149 151
ATOM    151  C   UNL     1     133.032 171.074 197.327  0.00  0.00    +0.073 C 
ATOM    152  H   UNL     1     132.253 171.516 197.958  0.00  0.00    +0.058 HD
ATOM    153  H   UNL     1     132.965 169.983 197.405  0.00  0.00    +0.058 HD
BRANCH 151 154
ATOM    154  O   UNL     1     134.302 171.523 197.820  0.00  0.00    -0.381 OA
BRANCH 154 155
ATOM    155  C   UNL     1     134.345 172.939 197.941  0.00  0.00    +0.037 C 
ATOM    156  H   UNL     1     135.304 173.328 197.588  0.00  0.00    +0.052 HD
ATOM    157  H   UNL     1     134.231 173.197 198.998  0.00  0.00    +0.052 HD
ATOM    158  H   UNL     1     133.523 173.397 197.383  0.00  0.00    +0.052 HD
ENDBRANCH 154 155
ENDBRANCH 151 154
ENDBRANCH 149 151
BRANCH 149 159
ATOM    159  N   UNL     1     131.424 171.522 195.458  0.00  0.00    -0.294 NA
BRANCH 159 160
ATOM    160  C   UNL     1     130.620 170.705 196.363  0.00  0.00    -0.012 C 
ATOM    161  H   UNL     1     129.997 171.301 197.035  0.00  0.00    +0.039 HD
ATOM    162  H   UNL     1     131.269 170.064 196.963  0.00  0.00    +0.039 HD
ATOM    163  H   UNL     1     129.965 170.029 195.803  0.00  0.00    +0.039 HD
ENDBRANCH 159 160
BRANCH 159 164
ATOM    164  C   UNL     1     130.832 172.849 195.285  0.00  0.00    -0.012 C 
ATOM    165  H   UNL     1     131.518 173.557 194.808  0.00  0.00    +0.039 HD
ATOM    166  H   UNL     1     130.551 173.268 196.257  0.00  0.00    +0.039 HD
ATOM    167  H   UNL     1     129.912 172.801 194.695  0.00  0.00    +0.039 HD
ENDBRANCH 159 164
ENDBRANCH 149 159
ENDBRANCH 147 149
ENDBRANCH 146 147
ENDBRANCH  23 146
BRANCH   4 168
ATOM    168  O   UNL     1     137.000 177.645 196.875  0.00  0.00    -0.376 OA
BRANCH 168 169
ATOM    169  C   UNL     1     136.577 177.365 198.204  0.00  0.00    +0.037 C 
ATOM    170  H   UNL     1     135.534 177.680 198.302  0.00  0.00    +0.052 HD
ATOM    171  H   UNL     1     137.181 177.935 198.915  0.00  0.00    +0.052 HD
ATOM    172  H   UNL     1     136.640 176.295 198.422  0.00  0.00    +0.052 HD
ENDBRANCH 168 169
ENDBRANCH   4 168
BRANCH  10 173
ATOM    173  O   UNL     1     141.386 175.258 192.537  0.00  0.00    -0.376 OA
BRANCH 173 174
ATOM    174  C   UNL     1     142.799 175.261 192.719  0.00  0.00    +0.037 C 
ATOM    175  H   UNL     1     143.254 174.761 191.861  0.00  0.00    +0.052 HD
ATOM    176  H   UNL     1     143.180 176.285 192.759  0.00  0.00    +0.052 HD
ATOM    177  H   UNL     1     143.078 174.715 193.626  0.00  0.00    +0.052 HD
ENDBRANCH 173 174
ENDBRANCH  10 173
TORSDOF 45
ENDMDL
MODEL 3
REMARK VINA RESULT:      -4.7      4.278      9.648
REMARK  Name = Aplyronine A_conf1
REMARK  45 active torsions:
REMARK  status: ('A' for Active; 'I' for Inactive)
REMARK    1  A    between atoms: C_1  and  C_2
REMARK    2  A    between atoms: C_5  and  O_75
REMARK    3  A    between atoms: C_6  and  C_74
REMARK    4  A    between atoms: C_9  and  C_73
REMARK    5  A    between atoms: C_11  and  O_71
REMARK    6  A    between atoms: C_15  and  C_39
REMARK    7  A    between atoms: C_24  and  O_29
REMARK    8  A    between atoms: C_25  and  C_28
REMARK    9  A    between atoms: C_26  and  O_27
REMARK   10  A    between atoms: O_29  and  C_30
REMARK   11  A    between atoms: C_30  and  C_32
REMARK   12  A    between atoms: C_32  and  C_33
REMARK   13  A    between atoms: C_32  and  N_36
REMARK   14  A    between atoms: C_33  and  O_34
REMARK   15  A    between atoms: O_34  and  C_35
REMARK   16  A    between atoms: N_36  and  C_37
REMARK   17  A    between atoms: N_36  and  C_38
REMARK   18  A    between atoms: C_39  and  C_40
REMARK   19  A    between atoms: C_39  and  C_41
REMARK   20  A    between atoms: C_41  and  C_42
REMARK   21  A    between atoms: C_41  and  O_70
REMARK   22  A    between atoms: C_42  and  C_43
REMARK   23  A    between atoms: C_42  and  C_44
REMARK   24  A    between atoms: C_44  and  C_45
REMARK   25  A    between atoms: C_45  and  C_46
REMARK   26  A    between atoms: C_46  and  C_47
REMARK   27  A    between atoms: C_46  and  O_62
REMARK   28  A    between atoms: C_47  and  C_48
REMARK   29  A    between atoms: C_47  and  C_49
REMARK   30  A    between atoms: C_49  and  C_50
REMARK   31  A    between atoms: C_49  and  O_58
REMARK   32  A    between atoms: C_50  and  C_51
REMARK   33  A    between atoms: C_50  and  C_52
REMARK   34  A    between atoms: C_53  and  N_54
REMARK   35  A    between atoms: N_54  and  C_55
REMARK   36  A    between atoms: O_58  and  C_59
REMARK   37  A    between atoms: C_59  and  C_61
REMARK   38  A    between atoms: O_62  and  C_63
REMARK   39  A    between atoms: C_63  and  C_65
REMARK   40  A    between atoms: C_65  and  C_66
REMARK   41  A    between atoms: C_65  and  N_67
REMARK   42  A    between atoms: N_67  and  C_68
REMARK   43  A    between atoms: N_67  and  C_69
REMARK   44  A    between atoms: O_71  and  C_72
REMARK   45  A    between atoms: O_75  and  C_76
REMARK                            x       y       z     vdW  Elec       q    Type
REMARK                         _______ _______ _______ _____ _____    ______ ____
ROOT
ATOM      1  C   UNL     1     150.561 164.360 191.989  0.00  0.00    -0.017 C 
ATOM      2  C   UNL     1     150.365 165.871 191.749  0.00  0.00    -0.045 C 
ATOM      3  C   UNL     1     150.693 166.814 192.927  0.00  0.00    -0.022 C 
ATOM      4  C   UNL     1     149.995 166.601 194.287  0.00  0.00    +0.079 C 
ATOM      5  C   UNL     1     148.463 166.591 194.325  0.00  0.00    -0.048 C 
ATOM      6  C   UNL     1     147.700 167.192 193.385  0.00  0.00    -0.082 C 
ATOM      7  C   UNL     1     146.198 167.287 193.336  0.00  0.00    -0.032 C 
ATOM      8  C   UNL     1     145.554 166.225 192.424  0.00  0.00    -0.038 C 
ATOM      9  C   UNL     1     145.889 166.344 190.915  0.00  0.00    -0.020 C 
ATOM     10  C   UNL     1     145.562 167.701 190.258  0.00  0.00    +0.077 C 
ATOM     11  C   UNL     1     145.505 167.543 188.757  0.00  0.00    -0.059 C 
ATOM     12  C   UNL     1     144.436 167.846 187.998  0.00  0.00    -0.082 C 
ATOM     13  C   UNL     1     144.368 167.715 186.492  0.00  0.00    +0.003 C 
ATOM     14  C   UNL     1     145.333 168.609 185.663  0.00  0.00    +0.112 C 
ATOM     15  O   UNL     1     146.636 167.997 185.831  0.00  0.00    -0.458 OA
ATOM     16  C   UNL     1     147.385 167.789 184.719  0.00  0.00    +0.332 C 
ATOM     17  O   UNL     1     147.226 168.299 183.623  0.00  0.00    -0.246 OA
ATOM     18  C   UNL     1     148.430 166.779 184.989  0.00  0.00    +0.022 C 
ATOM     19  C   UNL     1     148.143 165.716 185.754  0.00  0.00    -0.055 C 
ATOM     20  C   UNL     1     149.001 164.585 185.995  0.00  0.00    -0.065 C 
ATOM     21  C   UNL     1     150.260 164.642 186.446  0.00  0.00    -0.081 C 
ATOM     22  C   UNL     1     151.032 163.392 186.804  0.00  0.00    +0.003 C 
ATOM     23  C   UNL     1     151.554 163.351 188.264  0.00  0.00    +0.111 C 
ATOM     24  C   UNL     1     150.548 163.785 189.376  0.00  0.00    +0.020 C 
ATOM     25  C   UNL     1     151.234 163.669 190.766  0.00  0.00    +0.064 C 
ATOM     26  H   UNL     1     151.278 164.223 192.810  0.00  0.00    +0.032 HD
ATOM     27  H   UNL     1     149.354 166.065 191.381  0.00  0.00    +0.027 HD
ATOM     28  H   UNL     1     151.030 166.192 190.936  0.00  0.00    +0.027 HD
ATOM     29  H   UNL     1     151.777 166.750 193.086  0.00  0.00    +0.029 HD
ATOM     30  H   UNL     1     150.501 167.843 192.591  0.00  0.00    +0.029 HD
ATOM     31  H   UNL     1     150.294 167.433 194.941  0.00  0.00    +0.064 HD
ATOM     32  H   UNL     1     148.182 167.704 192.557  0.00  0.00    +0.057 HD
ATOM     33  H   UNL     1     145.921 168.296 193.013  0.00  0.00    +0.031 HD
ATOM     34  H   UNL     1     145.779 167.207 194.342  0.00  0.00    +0.031 HD
ATOM     35  H   UNL     1     145.925 165.241 192.746  0.00  0.00    +0.030 HD
ATOM     36  H   UNL     1     145.348 165.544 190.394  0.00  0.00    +0.030 HD
ATOM     37  H   UNL     1     146.957 166.127 190.780  0.00  0.00    +0.030 HD
ATOM     38  H   UNL     1     144.611 168.083 190.644  0.00  0.00    +0.064 HD
ATOM     39  H   UNL     1     146.416 167.173 188.291  0.00  0.00    +0.059 HD
ATOM     40  H   UNL     1     143.536 168.228 188.477  0.00  0.00    +0.057 HD
ATOM     41  H   UNL     1     143.329 167.898 186.192  0.00  0.00    +0.034 HD
ATOM     42  H   UNL     1     144.554 166.661 186.245  0.00  0.00    +0.034 HD
ATOM     43  H   UNL     1     145.035 168.522 184.610  0.00  0.00    +0.074 HD
ATOM     44  H   UNL     1     149.362 166.888 184.448  0.00  0.00    +0.069 HD
ATOM     45  H   UNL     1     147.148 165.614 186.187  0.00  0.00    +0.062 HD
ATOM     46  H   UNL     1     148.515 163.616 185.877  0.00  0.00    +0.061 HD
ATOM     47  H   UNL     1     150.764 165.594 186.606  0.00  0.00    +0.057 HD
ATOM     48  H   UNL     1     151.882 163.326 186.111  0.00  0.00    +0.034 HD
ATOM     49  H   UNL     1     150.419 162.502 186.626  0.00  0.00    +0.034 HD
ATOM     50  H   UNL     1     151.849 162.313 188.475  0.00  0.00    +0.074 HD
ATOM     51  H   UNL     1     150.299 164.839 189.208  0.00  0.00    +0.036 HD
ATOM     52  H   UNL     1     152.229 164.123 190.697  0.00  0.00    +0.060 HD
ENDROOT
BRANCH   1  53
ATOM     53  C   UNL     1     149.265 163.673 192.442  0.00  0.00    -0.060 C 
ATOM     54  H   UNL     1     148.389 164.184 192.042  0.00  0.00    +0.023 HD
ATOM     55  H   UNL     1     149.154 163.677 193.529  0.00  0.00    +0.023 HD
ATOM     56  H   UNL     1     149.208 162.639 192.097  0.00  0.00    +0.023 HD
ENDBRANCH   1  53
BRANCH   5  57
ATOM     57  C   UNL     1     147.885 165.895 195.536  0.00  0.00    -0.041 C 
ATOM     58  H   UNL     1     148.540 165.133 195.964  0.00  0.00    +0.028 HD
ATOM     59  H   UNL     1     147.685 166.615 196.337  0.00  0.00    +0.028 HD
ATOM     60  H   UNL     1     146.945 165.398 195.271  0.00  0.00    +0.028 HD
ENDBRANCH   5  57
BRANCH  24  61
ATOM     61  C   UNL     1     149.255 162.961 189.293  0.00  0.00    -0.057 C 
ATOM     62  H   UNL     1     148.376 163.607 189.241  0.00  0.00    +0.023 HD
ATOM     63  H   UNL     1     149.140 162.289 190.152  0.00  0.00    +0.023 HD
ATOM     64  H   UNL     1     149.211 162.340 188.397  0.00  0.00    +0.023 HD
ENDBRANCH  24  61
BRANCH   8  65
ATOM     65  C   UNL     1     144.037 166.203 192.642  0.00  0.00    -0.062 C 
ATOM     66  H   UNL     1     143.577 167.159 192.376  0.00  0.00    +0.023 HD
ATOM     67  H   UNL     1     143.566 165.418 192.040  0.00  0.00    +0.023 HD
ATOM     68  H   UNL     1     143.800 166.000 193.692  0.00  0.00    +0.023 HD
ENDBRANCH   8  65
BRANCH  14  69
ATOM     69  C   UNL     1     145.338 170.104 186.079  0.00  0.00    +0.020 C 
ATOM     70  H   UNL     1     144.881 170.177 187.070  0.00  0.00    +0.036 HD
BRANCH  69  71
ATOM     71  C   UNL     1     146.760 170.658 186.265  0.00  0.00    -0.057 C 
ATOM     72  H   UNL     1     146.753 171.584 186.851  0.00  0.00    +0.023 HD
ATOM     73  H   UNL     1     147.396 169.950 186.805  0.00  0.00    +0.023 HD
ATOM     74  H   UNL     1     147.228 170.880 185.301  0.00  0.00    +0.023 HD
ENDBRANCH  69  71
BRANCH  69  75
ATOM     75  C   UNL     1     144.560 171.028 185.096  0.00  0.00    +0.064 C 
ATOM     76  H   UNL     1     145.157 171.940 184.968  0.00  0.00    +0.060 HD
BRANCH  75  77
ATOM     77  C   UNL     1     143.152 171.438 185.618  0.00  0.00    -0.017 C 
ATOM     78  H   UNL     1     142.878 172.372 185.110  0.00  0.00    +0.032 HD
BRANCH  77  79
ATOM     79  C   UNL     1     142.094 170.410 185.193  0.00  0.00    -0.060 C 
ATOM     80  H   UNL     1     141.394 170.175 185.999  0.00  0.00    +0.023 HD
ATOM     81  H   UNL     1     142.574 169.473 184.888  0.00  0.00    +0.023 HD
ATOM     82  H   UNL     1     141.517 170.776 184.337  0.00  0.00    +0.023 HD
ENDBRANCH  77  79
BRANCH  77  83
ATOM     83  C   UNL     1     143.047 171.736 187.139  0.00  0.00    -0.045 C 
ATOM     84  H   UNL     1     142.605 172.734 187.246  0.00  0.00    +0.027 HD
ATOM     85  H   UNL     1     144.052 171.811 187.566  0.00  0.00    +0.027 HD
BRANCH  83  86
ATOM     86  C   UNL     1     142.231 170.746 187.988  0.00  0.00    -0.015 C 
ATOM     87  H   UNL     1     141.269 170.569 187.497  0.00  0.00    +0.030 HD
ATOM     88  H   UNL     1     142.771 169.798 188.050  0.00  0.00    +0.030 HD
BRANCH  86  89
ATOM     89  C   UNL     1     141.984 171.249 189.429  0.00  0.00    +0.109 C 
ATOM     90  H   UNL     1     141.906 172.343 189.402  0.00  0.00    +0.074 HD
BRANCH  89  91
ATOM     91  C   UNL     1     143.154 170.873 190.389  0.00  0.00    +0.031 C 
ATOM     92  H   UNL     1     143.968 170.511 189.744  0.00  0.00    +0.037 HD
BRANCH  91  93
ATOM     93  C   UNL     1     142.766 169.739 191.349  0.00  0.00    -0.056 C 
ATOM     94  H   UNL     1     142.158 168.978 190.850  0.00  0.00    +0.023 HD
ATOM     95  H   UNL     1     142.200 170.118 192.207  0.00  0.00    +0.023 HD
ATOM     96  H   UNL     1     143.646 169.215 191.731  0.00  0.00    +0.023 HD
ENDBRANCH  91  93
BRANCH  91  97
ATOM     97  C   UNL     1     143.667 172.120 191.180  0.00  0.00    +0.115 C 
ATOM     98  H   UNL     1     143.818 171.813 192.224  0.00  0.00    +0.074 HD
BRANCH  97  99
ATOM     99  C   UNL     1     145.013 172.699 190.645  0.00  0.00    +0.013 C 
ATOM    100  H   UNL     1     144.782 173.597 190.060  0.00  0.00    +0.038 HD
BRANCH  99 101
ATOM    101  C   UNL     1     145.728 171.742 189.680  0.00  0.00    -0.056 C 
ATOM    102  H   UNL     1     145.254 170.753 189.700  0.00  0.00    +0.024 HD
ATOM    103  H   UNL     1     145.695 172.098 188.644  0.00  0.00    +0.024 HD
ATOM    104  H   UNL     1     146.775 171.611 189.971  0.00  0.00    +0.024 HD
ENDBRANCH  99 101
BRANCH  99 105
ATOM    105  C   UNL     1     145.970 173.060 191.762  0.00  0.00    -0.064 C 
ATOM    106  C   UNL     1     147.165 172.473 191.925  0.00  0.00    -0.005 C 
ATOM    107  H   UNL     1     145.636 173.850 192.430  0.00  0.00    +0.059 HD
ATOM    108  H   UNL     1     147.472 171.682 191.242  0.00  0.00    +0.078 HD
BRANCH 106 109
ATOM    109  N   UNL     1     148.090 172.780 192.913  0.00  0.00    -0.284 N 
ATOM    110  C   UNL     1     149.377 172.249 192.842  0.00  0.00    +0.206 C 
ATOM    111  O   UNL     1     149.821 171.517 191.965  0.00  0.00    -0.279 OA
ATOM    112  H   UNL     1     150.010 172.561 193.690  0.00  0.00    +0.126 HD
BRANCH 109 113
ATOM    113  C   UNL     1     147.750 173.657 194.022  0.00  0.00    +0.007 C 
ATOM    114  H   UNL     1     147.386 173.055 194.861  0.00  0.00    +0.043 HD
ATOM    115  H   UNL     1     148.620 174.228 194.361  0.00  0.00    +0.043 HD
ATOM    116  H   UNL     1     146.978 174.367 193.704  0.00  0.00    +0.043 HD
ENDBRANCH 109 113
ENDBRANCH 106 109
ENDBRANCH  99 105
ENDBRANCH  97  99
BRANCH  97 117
ATOM    117  O   UNL     1     142.639 173.144 191.106  0.00  0.00    -0.461 OA
BRANCH 117 118
ATOM    118  C   UNL     1     142.279 173.742 192.276  0.00  0.00    +0.304 C 
ATOM    119  O   UNL     1     142.799 174.737 192.759  0.00  0.00    -0.251 OA
BRANCH 118 120
ATOM    120  C   UNL     1     141.105 173.035 192.879  0.00  0.00    +0.033 C 
ATOM    121  H   UNL     1     141.315 172.775 193.920  0.00  0.00    +0.034 HD
ATOM    122  H   UNL     1     140.239 173.702 192.864  0.00  0.00    +0.034 HD
ATOM    123  H   UNL     1     140.877 172.142 192.293  0.00  0.00    +0.034 HD
ENDBRANCH 118 120
ENDBRANCH 117 118
ENDBRANCH  97 117
ENDBRANCH  91  97
ENDBRANCH  89  91
BRANCH  89 124
ATOM    124  O   UNL     1     140.774 170.646 189.933  0.00  0.00    -0.460 OA
BRANCH 124 125
ATOM    125  C   UNL     1     139.592 171.277 189.687  0.00  0.00    +0.324 C 
ATOM    126  O   UNL     1     139.412 172.484 189.826  0.00  0.00    -0.249 OA
BRANCH 125 127
ATOM    127  C   UNL     1     138.470 170.302 189.277  0.00  0.00    +0.105 C 
ATOM    128  H   UNL     1     138.700 169.339 189.751  0.00  0.00    +0.058 HD
BRANCH 127 129
ATOM    129  C   UNL     1     138.581 170.136 187.758  0.00  0.00    -0.039 C 
ATOM    130  H   UNL     1     137.604 170.235 187.276  0.00  0.00    +0.025 HD
ATOM    131  H   UNL     1     139.242 170.902 187.337  0.00  0.00    +0.025 HD
ATOM    132  H   UNL     1     139.010 169.167 187.480  0.00  0.00    +0.025 HD
ENDBRANCH 127 129
BRANCH 127 133
ATOM    133  N   UNL     1     137.119 170.749 189.740  0.00  0.00    -0.296 NA
BRANCH 133 134
ATOM    134  C   UNL     1     136.817 170.217 191.076  0.00  0.00    -0.012 C 
ATOM    135  H   UNL     1     137.666 169.669 191.494  0.00  0.00    +0.039 HD
ATOM    136  H   UNL     1     135.948 169.550 191.060  0.00  0.00    +0.039 HD
ATOM    137  H   UNL     1     136.610 171.037 191.775  0.00  0.00    +0.039 HD
ENDBRANCH 133 134
BRANCH 133 138
ATOM    138  C   UNL     1     136.056 170.345 188.816  0.00  0.00    -0.012 C 
ATOM    139  H   UNL     1     135.141 170.923 188.997  0.00  0.00    +0.039 HD
ATOM    140  H   UNL     1     136.333 170.549 187.775  0.00  0.00    +0.039 HD
ATOM    141  H   UNL     1     135.811 169.280 188.915  0.00  0.00    +0.039 HD
ENDBRANCH 133 138
ENDBRANCH 127 133
ENDBRANCH 125 127
ENDBRANCH 124 125
ENDBRANCH  89 124
ENDBRANCH  86  89
ENDBRANCH  83  86
ENDBRANCH  77  83
ENDBRANCH  75  77
BRANCH  75 142
ATOM    142  O   UNL     1     144.473 170.457 183.797  0.00  0.00    -0.391 OA
ATOM    143  H   UNL     1     144.124 169.554 183.889  0.00  0.00    +0.210 HD
ENDBRANCH  75 142
ENDBRANCH  69  75
ENDBRANCH  14  69
BRANCH  25 144
ATOM    144  O   UNL     1     151.472 162.285 191.058  0.00  0.00    -0.391 OA
ATOM    145  H   UNL     1     150.930 161.757 190.449  0.00  0.00    +0.210 HD
ENDBRANCH  25 144
BRANCH  23 146
ATOM    146  O   UNL     1     152.720 164.218 188.325  0.00  0.00    -0.460 OA
BRANCH 146 147
ATOM    147  C   UNL     1     153.869 163.692 187.797  0.00  0.00    +0.327 C 
ATOM    148  O   UNL     1     154.211 162.517 187.903  0.00  0.00    -0.249 OA
BRANCH 147 149
ATOM    149  C   UNL     1     154.689 164.778 187.083  0.00  0.00    +0.131 C 
ATOM    150  H   UNL     1     155.309 164.279 186.327  0.00  0.00    +0.060 HD
BRANCH 149 151
ATOM    151  C   UNL     1     155.655 165.393 188.110  0.00  0.00    +0.073 C 
ATOM    152  H   UNL     1     155.639 166.486 188.029  0.00  0.00    +0.058 HD
ATOM    153  H   UNL     1     155.387 165.116 189.135  0.00  0.00    +0.058 HD
BRANCH 151 154
ATOM    154  O   UNL     1     156.989 164.953 187.817  0.00  0.00    -0.381 OA
BRANCH 154 155
ATOM    155  C   UNL     1     157.132 164.590 186.450  0.00  0.00    +0.037 C 
ATOM    156  H   UNL     1     158.105 164.122 186.274  0.00  0.00    +0.052 HD
ATOM    157  H   UNL     1     157.068 165.499 185.845  0.00  0.00    +0.052 HD
ATOM    158  H   UNL     1     156.328 163.914 186.146  0.00  0.00    +0.052 HD
ENDBRANCH 154 155
ENDBRANCH 151 154
ENDBRANCH 149 151
BRANCH 149 159
ATOM    159  N   UNL     1     153.847 165.830 186.431  0.00  0.00    -0.294 NA
BRANCH 159 160
ATOM    160  C   UNL     1     154.345 167.172 186.724  0.00  0.00    -0.012 C 
ATOM    161  H   UNL     1     153.579 167.827 187.146  0.00  0.00    +0.039 HD
ATOM    162  H   UNL     1     154.737 167.631 185.815  0.00  0.00    +0.039 HD
ATOM    163  H   UNL     1     155.183 167.134 187.428  0.00  0.00    +0.039 HD
ENDBRANCH 159 160
BRANCH 159 164
ATOM    164  C   UNL     1     153.673 165.639 184.991  0.00  0.00    -0.012 C 
ATOM    165  H   UNL     1     153.987 164.643 184.658  0.00  0.00    +0.039 HD
ATOM    166  H   UNL     1     154.268 166.374 184.437  0.00  0.00    +0.039 HD
ATOM    167  H   UNL     1     152.634 165.798 184.691  0.00  0.00    +0.039 HD
ENDBRANCH 159 164
ENDBRANCH 149 159
ENDBRANCH 147 149
ENDBRANCH 146 147
ENDBRANCH  23 146
BRANCH   4 168
ATOM    168  O   UNL     1     150.489 165.378 194.858  0.00  0.00    -0.376 OA
BRANCH 168 169
ATOM    169  C   UNL     1     151.795 165.499 195.408  0.00  0.00    +0.037 C 
ATOM    170  H   UNL     1     152.055 166.561 195.433  0.00  0.00    +0.052 HD
ATOM    171  H   UNL     1     152.516 164.977 194.774  0.00  0.00    +0.052 HD
ATOM    172  H   UNL     1     151.831 165.108 196.429  0.00  0.00    +0.052 HD
ENDBRANCH 168 169
ENDBRANCH   4 168
BRANCH  10 173
ATOM    173  O   UNL     1     146.617 168.613 190.580  0.00  0.00    -0.376 OA
BRANCH 173 174
ATOM    174  C   UNL     1     147.789 168.423 189.792  0.00  0.00    +0.037 C 
ATOM    175  H   UNL     1     148.128 167.393 189.929  0.00  0.00    +0.052 HD
ATOM    176  H   UNL     1     147.569 168.571 188.732  0.00  0.00    +0.052 HD
ATOM    177  H   UNL     1     148.590 169.097 190.114  0.00  0.00    +0.052 HD
ENDBRANCH 173 174
ENDBRANCH  10 173
TORSDOF 45
ENDMDL
MODEL 4
REMARK VINA RESULT:      -4.7      1.869      3.132
REMARK  Name = Aplyronine A_conf1
REMARK  45 active torsions:
REMARK  status: ('A' for Active; 'I' for Inactive)
REMARK    1  A    between atoms: C_1  and  C_2
REMARK    2  A    between atoms: C_5  and  O_75
REMARK    3  A    between atoms: C_6  and  C_74
REMARK    4  A    between atoms: C_9  and  C_73
REMARK    5  A    between atoms: C_11  and  O_71
REMARK    6  A    between atoms: C_15  and  C_39
REMARK    7  A    between atoms: C_24  and  O_29
REMARK    8  A    between atoms: C_25  and  C_28
REMARK    9  A    between atoms: C_26  and  O_27
REMARK   10  A    between atoms: O_29  and  C_30
REMARK   11  A    between atoms: C_30  and  C_32
REMARK   12  A    between atoms: C_32  and  C_33
REMARK   13  A    between atoms: C_32  and  N_36
REMARK   14  A    between atoms: C_33  and  O_34
REMARK   15  A    between atoms: O_34  and  C_35
REMARK   16  A    between atoms: N_36  and  C_37
REMARK   17  A    between atoms: N_36  and  C_38
REMARK   18  A    between atoms: C_39  and  C_40
REMARK   19  A    between atoms: C_39  and  C_41
REMARK   20  A    between atoms: C_41  and  C_42
REMARK   21  A    between atoms: C_41  and  O_70
REMARK   22  A    between atoms: C_42  and  C_43
REMARK   23  A    between atoms: C_42  and  C_44
REMARK   24  A    between atoms: C_44  and  C_45
REMARK   25  A    between atoms: C_45  and  C_46
REMARK   26  A    between atoms: C_46  and  C_47
REMARK   27  A    between atoms: C_46  and  O_62
REMARK   28  A    between atoms: C_47  and  C_48
REMARK   29  A    between atoms: C_47  and  C_49
REMARK   30  A    between atoms: C_49  and  C_50
REMARK   31  A    between atoms: C_49  and  O_58
REMARK   32  A    between atoms: C_50  and  C_51
REMARK   33  A    between atoms: C_50  and  C_52
REMARK   34  A    between atoms: C_53  and  N_54
REMARK   35  A    between atoms: N_54  and  C_55
REMARK   36  A    between atoms: O_58  and  C_59
REMARK   37  A    between atoms: C_59  and  C_61
REMARK   38  A    between atoms: O_62  and  C_63
REMARK   39  A    between atoms: C_63  and  C_65
REMARK   40  A    between atoms: C_65  and  C_66
REMARK   41  A    between atoms: C_65  and  N_67
REMARK   42  A    between atoms: N_67  and  C_68
REMARK   43  A    between atoms: N_67  and  C_69
REMARK   44  A    between atoms: O_71  and  C_72
REMARK   45  A    between atoms: O_75  and  C_76
REMARK                            x       y       z     vdW  Elec       q    Type
REMARK                         _______ _______ _______ _____ _____    ______ ____
ROOT
ATOM      1  C   UNL     1     145.325 167.332 189.094  0.00  0.00    -0.017 C 
ATOM      2  C   UNL     1     144.142 167.551 190.059  0.00  0.00    -0.045 C 
ATOM      3  C   UNL     1     143.200 166.351 190.295  0.00  0.00    -0.022 C 
ATOM      4  C   UNL     1     142.521 165.670 189.087  0.00  0.00    +0.079 C 
ATOM      5  C   UNL     1     141.678 166.535 188.144  0.00  0.00    -0.048 C 
ATOM      6  C   UNL     1     141.119 167.706 188.523  0.00  0.00    -0.082 C 
ATOM      7  C   UNL     1     140.242 168.619 187.707  0.00  0.00    -0.032 C 
ATOM      8  C   UNL     1     141.011 169.796 187.078  0.00  0.00    -0.038 C 
ATOM      9  C   UNL     1     141.615 170.814 188.079  0.00  0.00    -0.020 C 
ATOM     10  C   UNL     1     140.620 171.457 189.069  0.00  0.00    +0.077 C 
ATOM     11  C   UNL     1     141.218 172.714 189.653  0.00  0.00    -0.059 C 
ATOM     12  C   UNL     1     140.659 173.935 189.570  0.00  0.00    -0.082 C 
ATOM     13  C   UNL     1     141.233 175.201 190.168  0.00  0.00    +0.003 C 
ATOM     14  C   UNL     1     141.358 175.255 191.717  0.00  0.00    +0.112 C 
ATOM     15  O   UNL     1     142.482 174.394 192.026  0.00  0.00    -0.458 OA
ATOM     16  C   UNL     1     143.427 174.868 192.875  0.00  0.00    +0.332 C 
ATOM     17  O   UNL     1     143.321 175.818 193.632  0.00  0.00    -0.246 OA
ATOM     18  C   UNL     1     144.680 174.099 192.725  0.00  0.00    +0.022 C 
ATOM     19  C   UNL     1     145.077 173.710 191.504  0.00  0.00    -0.055 C 
ATOM     20  C   UNL     1     146.331 173.081 191.179  0.00  0.00    -0.065 C 
ATOM     21  C   UNL     1     146.823 171.976 191.754  0.00  0.00    -0.081 C 
ATOM     22  C   UNL     1     148.081 171.309 191.244  0.00  0.00    +0.003 C 
ATOM     23  C   UNL     1     147.903 169.826 190.830  0.00  0.00    +0.111 C 
ATOM     24  C   UNL     1     146.643 169.488 189.971  0.00  0.00    +0.020 C 
ATOM     25  C   UNL     1     146.636 167.969 189.641  0.00  0.00    +0.064 C 
ATOM     26  H   UNL     1     145.543 166.257 189.042  0.00  0.00    +0.032 HD
ATOM     27  H   UNL     1     143.566 168.428 189.754  0.00  0.00    +0.027 HD
ATOM     28  H   UNL     1     144.536 167.801 191.053  0.00  0.00    +0.027 HD
ATOM     29  H   UNL     1     143.788 165.592 190.827  0.00  0.00    +0.029 HD
ATOM     30  H   UNL     1     142.421 166.673 191.000  0.00  0.00    +0.029 HD
ATOM     31  H   UNL     1     141.825 164.917 189.486  0.00  0.00    +0.064 HD
ATOM     32  H   UNL     1     141.271 168.065 189.537  0.00  0.00    +0.057 HD
ATOM     33  H   UNL     1     139.427 168.982 188.342  0.00  0.00    +0.031 HD
ATOM     34  H   UNL     1     139.732 168.054 186.921  0.00  0.00    +0.031 HD
ATOM     35  H   UNL     1     141.859 169.377 186.515  0.00  0.00    +0.030 HD
ATOM     36  H   UNL     1     142.108 171.600 187.493  0.00  0.00    +0.030 HD
ATOM     37  H   UNL     1     142.411 170.312 188.646  0.00  0.00    +0.030 HD
ATOM     38  H   UNL     1     139.677 171.678 188.557  0.00  0.00    +0.064 HD
ATOM     39  H   UNL     1     142.158 172.581 190.186  0.00  0.00    +0.059 HD
ATOM     40  H   UNL     1     139.712 174.051 189.046  0.00  0.00    +0.057 HD
ATOM     41  H   UNL     1     140.626 176.040 189.807  0.00  0.00    +0.034 HD
ATOM     42  H   UNL     1     142.225 175.355 189.723  0.00  0.00    +0.034 HD
ATOM     43  H   UNL     1     141.618 176.287 191.988  0.00  0.00    +0.074 HD
ATOM     44  H   UNL     1     145.290 173.985 193.613  0.00  0.00    +0.069 HD
ATOM     45  H   UNL     1     144.465 173.947 190.635  0.00  0.00    +0.062 HD
ATOM     46  H   UNL     1     146.847 173.518 190.323  0.00  0.00    +0.061 HD
ATOM     47  H   UNL     1     146.316 171.496 192.588  0.00  0.00    +0.057 HD
ATOM     48  H   UNL     1     148.831 171.378 192.043  0.00  0.00    +0.034 HD
ATOM     49  H   UNL     1     148.487 171.865 190.391  0.00  0.00    +0.034 HD
ATOM     50  H   UNL     1     148.787 169.544 190.241  0.00  0.00    +0.074 HD
ATOM     51  H   UNL     1     145.758 169.707 190.578  0.00  0.00    +0.036 HD
ATOM     52  H   UNL     1     146.856 167.416 190.562  0.00  0.00    +0.060 HD
ENDROOT
BRANCH   1  53
ATOM     53  C   UNL     1     144.988 167.763 187.659  0.00  0.00    -0.060 C 
ATOM     54  H   UNL     1     145.334 167.024 186.935  0.00  0.00    +0.023 HD
ATOM     55  H   UNL     1     145.468 168.707 187.388  0.00  0.00    +0.023 HD
ATOM     56  H   UNL     1     143.913 167.870 187.505  0.00  0.00    +0.023 HD
ENDBRANCH   1  53
BRANCH   5  57
ATOM     57  C   UNL     1     141.483 165.935 186.771  0.00  0.00    -0.041 C 
ATOM     58  H   UNL     1     140.657 165.222 186.712  0.00  0.00    +0.028 HD
ATOM     59  H   UNL     1     141.269 166.716 186.034  0.00  0.00    +0.028 HD
ATOM     60  H   UNL     1     142.389 165.402 186.461  0.00  0.00    +0.028 HD
ENDBRANCH   5  57
BRANCH  24  61
ATOM     61  C   UNL     1     146.595 170.360 188.707  0.00  0.00    -0.057 C 
ATOM     62  H   UNL     1     145.685 170.174 188.133  0.00  0.00    +0.023 HD
ATOM     63  H   UNL     1     147.458 170.184 188.054  0.00  0.00    +0.023 HD
ATOM     64  H   UNL     1     146.581 171.427 188.936  0.00  0.00    +0.023 HD
ENDBRANCH  24  61
BRANCH   8  65
ATOM     65  C   UNL     1     140.125 170.507 186.050  0.00  0.00    -0.062 C 
ATOM     66  H   UNL     1     139.508 169.798 185.489  0.00  0.00    +0.023 HD
ATOM     67  H   UNL     1     139.458 171.227 186.538  0.00  0.00    +0.023 HD
ATOM     68  H   UNL     1     140.736 171.060 185.328  0.00  0.00    +0.023 HD
ENDBRANCH   8  65
BRANCH  14  69
ATOM     69  C   UNL     1     140.074 174.827 192.478  0.00  0.00    +0.020 C 
ATOM     70  H   UNL     1     139.296 174.629 191.736  0.00  0.00    +0.036 HD
BRANCH  69  71
ATOM     71  C   UNL     1     140.250 173.493 193.222  0.00  0.00    -0.057 C 
ATOM     72  H   UNL     1     139.730 173.505 194.187  0.00  0.00    +0.023 HD
ATOM     73  H   UNL     1     139.832 172.660 192.650  0.00  0.00    +0.023 HD
ATOM     74  H   UNL     1     141.306 173.285 193.419  0.00  0.00    +0.023 HD
ENDBRANCH  69  71
BRANCH  69  75
ATOM     75  C   UNL     1     139.555 175.900 193.481  0.00  0.00    +0.064 C 
ATOM     76  H   UNL     1     140.199 176.782 193.373  0.00  0.00    +0.060 HD
BRANCH  75  77
ATOM     77  C   UNL     1     139.612 175.435 194.965  0.00  0.00    -0.017 C 
ATOM     78  H   UNL     1     139.807 174.355 194.958  0.00  0.00    +0.032 HD
BRANCH  77  79
ATOM     79  C   UNL     1     140.810 176.067 195.688  0.00  0.00    -0.060 C 
ATOM     80  H   UNL     1     140.644 177.120 195.928  0.00  0.00    +0.023 HD
ATOM     81  H   UNL     1     141.707 176.009 195.061  0.00  0.00    +0.023 HD
ATOM     82  H   UNL     1     141.027 175.535 196.620  0.00  0.00    +0.023 HD
ENDBRANCH  77  79
BRANCH  77  83
ATOM     83  C   UNL     1     138.310 175.625 195.792  0.00  0.00    -0.045 C 
ATOM     84  H   UNL     1     138.021 174.639 196.175  0.00  0.00    +0.027 HD
ATOM     85  H   UNL     1     137.498 175.934 195.126  0.00  0.00    +0.027 HD
BRANCH  83  86
ATOM     86  C   UNL     1     138.372 176.609 196.972  0.00  0.00    -0.015 C 
ATOM     87  H   UNL     1     139.402 176.654 197.341  0.00  0.00    +0.030 HD
ATOM     88  H   UNL     1     138.083 177.604 196.624  0.00  0.00    +0.030 HD
BRANCH  86  89
ATOM     89  C   UNL     1     137.430 176.218 198.133  0.00  0.00    +0.109 C 
ATOM     90  H   UNL     1     137.933 175.458 198.743  0.00  0.00    +0.074 HD
BRANCH  89  91
ATOM     91  C   UNL     1     136.088 175.613 197.620  0.00  0.00    +0.031 C 
ATOM     92  H   UNL     1     136.298 175.228 196.612  0.00  0.00    +0.037 HD
BRANCH  91  93
ATOM     93  C   UNL     1     134.986 176.677 197.504  0.00  0.00    -0.056 C 
ATOM     94  H   UNL     1     134.573 176.938 198.483  0.00  0.00    +0.023 HD
ATOM     95  H   UNL     1     134.163 176.332 196.869  0.00  0.00    +0.023 HD
ATOM     96  H   UNL     1     135.369 177.610 197.083  0.00  0.00    +0.023 HD
ENDBRANCH  91  93
BRANCH  91  97
ATOM     97  C   UNL     1     135.618 174.422 198.517  0.00  0.00    +0.115 C 
ATOM     98  H   UNL     1     134.595 174.642 198.854  0.00  0.00    +0.074 HD
BRANCH  97  99
ATOM     99  C   UNL     1     135.602 173.045 197.783  0.00  0.00    +0.013 C 
ATOM    100  H   UNL     1     135.284 172.284 198.506  0.00  0.00    +0.038 HD
BRANCH  99 101
ATOM    101  C   UNL     1     136.995 172.613 197.304  0.00  0.00    -0.056 C 
ATOM    102  H   UNL     1     137.725 172.703 198.118  0.00  0.00    +0.024 HD
ATOM    103  H   UNL     1     137.012 171.570 196.966  0.00  0.00    +0.024 HD
ATOM    104  H   UNL     1     137.337 173.251 196.483  0.00  0.00    +0.024 HD
ENDBRANCH  99 101
BRANCH  99 105
ATOM    105  C   UNL     1     134.661 173.036 196.596  0.00  0.00    -0.064 C 
ATOM    106  C   UNL     1     134.138 171.913 196.081  0.00  0.00    -0.005 C 
ATOM    107  H   UNL     1     134.412 174.011 196.187  0.00  0.00    +0.059 HD
ATOM    108  H   UNL     1     134.408 170.949 196.511  0.00  0.00    +0.078 HD
BRANCH 106 109
ATOM    109  N   UNL     1     133.253 171.847 195.014  0.00  0.00    -0.284 N 
ATOM    110  C   UNL     1     133.233 170.714 194.202  0.00  0.00    +0.206 C 
ATOM    111  O   UNL     1     133.929 169.711 194.327  0.00  0.00    -0.279 OA
ATOM    112  H   UNL     1     132.495 170.790 193.387  0.00  0.00    +0.126 HD
BRANCH 109 113
ATOM    113  C   UNL     1     132.332 172.935 194.727  0.00  0.00    +0.007 C 
ATOM    114  H   UNL     1     132.201 173.023 193.644  0.00  0.00    +0.043 HD
ATOM    115  H   UNL     1     131.350 172.756 195.179  0.00  0.00    +0.043 HD
ATOM    116  H   UNL     1     132.731 173.870 195.137  0.00  0.00    +0.043 HD
ENDBRANCH 109 113
ENDBRANCH 106 109
ENDBRANCH  99 105
ENDBRANCH  97  99
BRANCH  97 117
ATOM    117  O   UNL     1     136.513 174.348 199.659  0.00  0.00    -0.461 OA
BRANCH 117 118
ATOM    118  C   UNL     1     136.067 173.664 200.749  0.00  0.00    +0.304 C 
ATOM    119  O   UNL     1     136.623 172.707 201.268  0.00  0.00    -0.251 OA
BRANCH 118 120
ATOM    120  C   UNL     1     134.807 174.282 201.268  0.00  0.00    +0.033 C 
ATOM    121  H   UNL     1     135.003 174.808 202.207  0.00  0.00    +0.034 HD
ATOM    122  H   UNL     1     134.440 175.013 200.542  0.00  0.00    +0.034 HD
ATOM    123  H   UNL     1     134.049 173.508 201.407  0.00  0.00    +0.034 HD
ENDBRANCH 118 120
ENDBRANCH 117 118
ENDBRANCH  97 117
ENDBRANCH  91  97
ENDBRANCH  89  91
BRANCH  89 124
ATOM    124  O   UNL     1     137.126 177.398 198.907  0.00  0.00    -0.460 OA
BRANCH 124 125
ATOM    125  C   UNL     1     137.954 177.717 199.941  0.00  0.00    +0.324 C 
ATOM    126  O   UNL     1     138.963 178.409 199.830  0.00  0.00    -0.249 OA
BRANCH 125 127
ATOM    127  C   UNL     1     137.529 177.059 201.269  0.00  0.00    +0.105 C 
ATOM    128  H   UNL     1     137.257 176.021 201.035  0.00  0.00    +0.058 HD
BRANCH 127 129
ATOM    129  C   UNL     1     136.270 177.800 201.730  0.00  0.00    -0.039 C 
ATOM    130  H   UNL     1     135.384 177.446 201.194  0.00  0.00    +0.025 HD
ATOM    131  H   UNL     1     136.101 177.637 202.800  0.00  0.00    +0.025 HD
ATOM    132  H   UNL     1     136.353 178.882 201.589  0.00  0.00    +0.025 HD
ENDBRANCH 127 129
BRANCH 127 133
ATOM    133  N   UNL     1     138.629 177.044 202.283  0.00  0.00    -0.296 NA
BRANCH 133 134
ATOM    134  C   UNL     1     138.710 175.739 202.954  0.00  0.00    -0.012 C 
ATOM    135  H   UNL     1     138.176 174.965 202.396  0.00  0.00    +0.039 HD
ATOM    136  H   UNL     1     138.301 175.778 203.970  0.00  0.00    +0.039 HD
ATOM    137  H   UNL     1     139.754 175.406 203.014  0.00  0.00    +0.039 HD
ENDBRANCH 133 134
BRANCH 133 138
ATOM    138  C   UNL     1     138.460 178.089 203.298  0.00  0.00    -0.012 C 
ATOM    139  H   UNL     1     138.778 177.729 204.285  0.00  0.00    +0.039 HD
ATOM    140  H   UNL     1     139.092 178.958 203.084  0.00  0.00    +0.039 HD
ATOM    141  H   UNL     1     137.417 178.420 203.375  0.00  0.00    +0.039 HD
ENDBRANCH 133 138
ENDBRANCH 127 133
ENDBRANCH 125 127
ENDBRANCH 124 125
ENDBRANCH  89 124
ENDBRANCH  86  89
ENDBRANCH  83  86
ENDBRANCH  77  83
ENDBRANCH  75  77
BRANCH  75 142
ATOM    142  O   UNL     1     138.251 176.349 193.139  0.00  0.00    -0.391 OA
ATOM    143  H   UNL     1     137.914 175.779 192.428  0.00  0.00    +0.210 HD
ENDBRANCH  75 142
ENDBRANCH  69  75
ENDBRANCH  14  69
BRANCH  25 144
ATOM    144  O   UNL     1     147.727 167.676 188.757  0.00  0.00    -0.391 OA
ATOM    145  H   UNL     1     148.488 167.416 189.301  0.00  0.00    +0.210 HD
ENDBRANCH  25 144
BRANCH  23 146
ATOM    146  O   UNL     1     147.856 169.043 192.055  0.00  0.00    -0.460 OA
BRANCH 146 147
ATOM    147  C   UNL     1     148.984 168.317 192.330  0.00  0.00    +0.327 C 
ATOM    148  O   UNL     1     150.131 168.709 192.129  0.00  0.00    -0.249 OA
BRANCH 147 149
ATOM    149  C   UNL     1     148.620 166.935 192.892  0.00  0.00    +0.131 C 
ATOM    150  H   UNL     1     148.006 166.424 192.139  0.00  0.00    +0.060 HD
BRANCH 149 151
ATOM    151  C   UNL     1     147.722 167.147 194.123  0.00  0.00    +0.073 C 
ATOM    152  H   UNL     1     148.314 167.037 195.039  0.00  0.00    +0.058 HD
ATOM    153  H   UNL     1     147.262 168.141 194.123  0.00  0.00    +0.058 HD
BRANCH 151 154
ATOM    154  O   UNL     1     146.703 166.137 194.137  0.00  0.00    -0.381 OA
BRANCH 154 155
ATOM    155  C   UNL     1     145.860 166.228 192.996  0.00  0.00    +0.037 C 
ATOM    156  H   UNL     1     146.206 167.017 192.322  0.00  0.00    +0.052 HD
ATOM    157  H   UNL     1     144.850 166.477 193.334  0.00  0.00    +0.052 HD
ATOM    158  H   UNL     1     145.822 165.271 192.469  0.00  0.00    +0.052 HD
ENDBRANCH 154 155
ENDBRANCH 151 154
ENDBRANCH 149 151
BRANCH 149 159
ATOM    159  N   UNL     1     149.811 166.093 193.227  0.00  0.00    -0.294 NA
BRANCH 159 160
ATOM    160  C   UNL     1     150.171 166.211 194.638  0.00  0.00    -0.012 C 
ATOM    161  H   UNL     1     149.360 166.611 195.252  0.00  0.00    +0.039 HD
ATOM    162  H   UNL     1     151.045 166.856 194.748  0.00  0.00    +0.039 HD
ATOM    163  H   UNL     1     150.461 165.239 195.051  0.00  0.00    +0.039 HD
ENDBRANCH 159 160
BRANCH 159 164
ATOM    164  C   UNL     1     149.672 164.690 192.838  0.00  0.00    -0.012 C 
ATOM    165  H   UNL     1     148.746 164.240 193.213  0.00  0.00    +0.039 HD
ATOM    166  H   UNL     1     150.507 164.102 193.233  0.00  0.00    +0.039 HD
ATOM    167  H   UNL     1     149.702 164.573 191.751  0.00  0.00    +0.039 HD
ENDBRANCH 159 164
ENDBRANCH 149 159
ENDBRANCH 147 149
ENDBRANCH 146 147
ENDBRANCH  23 146
BRANCH   4 168
ATOM    168  O   UNL     1     143.534 164.992 188.326  0.00  0.00    -0.376 OA
BRANCH 168 169
ATOM    169  C   UNL     1     143.786 163.667 188.777  0.00  0.00    +0.037 C 
ATOM    170  H   UNL     1     143.255 163.524 189.721  0.00  0.00    +0.052 HD
ATOM    171  H   UNL     1     144.856 163.531 188.953  0.00  0.00    +0.052 HD
ATOM    172  H   UNL     1     143.421 162.929 188.057  0.00  0.00    +0.052 HD
ENDBRANCH 168 169
ENDBRANCH   4 168
BRANCH  10 173
ATOM    173  O   UNL     1     140.390 170.526 190.130  0.00  0.00    -0.376 OA
BRANCH 173 174
ATOM    174  C   UNL     1     139.069 170.585 190.659  0.00  0.00    +0.037 C 
ATOM    175  H   UNL     1     138.546 171.415 190.177  0.00  0.00    +0.052 HD
ATOM    176  H   UNL     1     138.524 169.664 190.436  0.00  0.00    +0.052 HD
ATOM    177  H   UNL     1     139.087 170.766 191.738  0.00  0.00    +0.052 HD
ENDBRANCH 173 174
ENDBRANCH  10 173
TORSDOF 45
ENDMDL
MODEL 5
REMARK VINA RESULT:      -4.7      1.535      4.735
REMARK  Name = Aplyronine A_conf1
REMARK  45 active torsions:
REMARK  status: ('A' for Active; 'I' for Inactive)
REMARK    1  A    between atoms: C_1  and  C_2
REMARK    2  A    between atoms: C_5  and  O_75
REMARK    3  A    between atoms: C_6  and  C_74
REMARK    4  A    between atoms: C_9  and  C_73
REMARK    5  A    between atoms: C_11  and  O_71
REMARK    6  A    between atoms: C_15  and  C_39
REMARK    7  A    between atoms: C_24  and  O_29
REMARK    8  A    between atoms: C_25  and  C_28
REMARK    9  A    between atoms: C_26  and  O_27
REMARK   10  A    between atoms: O_29  and  C_30
REMARK   11  A    between atoms: C_30  and  C_32
REMARK   12  A    between atoms: C_32  and  C_33
REMARK   13  A    between atoms: C_32  and  N_36
REMARK   14  A    between atoms: C_33  and  O_34
REMARK   15  A    between atoms: O_34  and  C_35
REMARK   16  A    between atoms: N_36  and  C_37
REMARK   17  A    between atoms: N_36  and  C_38
REMARK   18  A    between atoms: C_39  and  C_40
REMARK   19  A    between atoms: C_39  and  C_41
REMARK   20  A    between atoms: C_41  and  C_42
REMARK   21  A    between atoms: C_41  and  O_70
REMARK   22  A    between atoms: C_42  and  C_43
REMARK   23  A    between atoms: C_42  and  C_44
REMARK   24  A    between atoms: C_44  and  C_45
REMARK   25  A    between atoms: C_45  and  C_46
REMARK   26  A    between atoms: C_46  and  C_47
REMARK   27  A    between atoms: C_46  and  O_62
REMARK   28  A    between atoms: C_47  and  C_48
REMARK   29  A    between atoms: C_47  and  C_49
REMARK   30  A    between atoms: C_49  and  C_50
REMARK   31  A    between atoms: C_49  and  O_58
REMARK   32  A    between atoms: C_50  and  C_51
REMARK   33  A    between atoms: C_50  and  C_52
REMARK   34  A    between atoms: C_53  and  N_54
REMARK   35  A    between atoms: N_54  and  C_55
REMARK   36  A    between atoms: O_58  and  C_59
REMARK   37  A    between atoms: C_59  and  C_61
REMARK   38  A    between atoms: O_62  and  C_63
REMARK   39  A    between atoms: C_63  and  C_65
REMARK   40  A    between atoms: C_65  and  C_66
REMARK   41  A    between atoms: C_65  and  N_67
REMARK   42  A    between atoms: N_67  and  C_68
REMARK   43  A    between atoms: N_67  and  C_69
REMARK   44  A    between atoms: O_71  and  C_72
REMARK   45  A    between atoms: O_75  and  C_76
REMARK                            x       y       z     vdW  Elec       q    Type
REMARK                         _______ _______ _______ _____ _____    ______ ____
ROOT
ATOM      1  C   UNL     1     145.582 166.930 189.105  0.00  0.00    -0.017 C 
ATOM      2  C   UNL     1     144.348 167.181 189.995  0.00  0.00    -0.045 C 
ATOM      3  C   UNL     1     143.406 165.983 190.240  0.00  0.00    -0.022 C 
ATOM      4  C   UNL     1     142.799 165.235 189.033  0.00  0.00    +0.079 C 
ATOM      5  C   UNL     1     141.998 166.043 188.006  0.00  0.00    -0.048 C 
ATOM      6  C   UNL     1     141.409 167.224 188.296  0.00  0.00    -0.082 C 
ATOM      7  C   UNL     1     140.568 168.085 187.390  0.00  0.00    -0.032 C 
ATOM      8  C   UNL     1     141.358 169.239 186.745  0.00  0.00    -0.038 C 
ATOM      9  C   UNL     1     141.898 170.312 187.725  0.00  0.00    -0.020 C 
ATOM     10  C   UNL     1     140.846 170.991 188.628  0.00  0.00    +0.077 C 
ATOM     11  C   UNL     1     141.400 172.282 189.180  0.00  0.00    -0.059 C 
ATOM     12  C   UNL     1     140.835 173.491 189.007  0.00  0.00    -0.082 C 
ATOM     13  C   UNL     1     141.363 174.792 189.571  0.00  0.00    +0.003 C 
ATOM     14  C   UNL     1     141.405 174.923 191.120  0.00  0.00    +0.112 C 
ATOM     15  O   UNL     1     142.520 174.092 191.529  0.00  0.00    -0.458 OA
ATOM     16  C   UNL     1     143.414 174.619 192.403  0.00  0.00    +0.332 C 
ATOM     17  O   UNL     1     143.258 175.603 193.105  0.00  0.00    -0.246 OA
ATOM     18  C   UNL     1     144.680 173.859 192.357  0.00  0.00    +0.022 C 
ATOM     19  C   UNL     1     145.145 173.415 191.180  0.00  0.00    -0.055 C 
ATOM     20  C   UNL     1     146.421 172.786 190.952  0.00  0.00    -0.065 C 
ATOM     21  C   UNL     1     146.893 171.717 191.606  0.00  0.00    -0.081 C 
ATOM     22  C   UNL     1     148.182 171.041 191.197  0.00  0.00    +0.003 C 
ATOM     23  C   UNL     1     148.041 169.537 190.848  0.00  0.00    +0.111 C 
ATOM     24  C   UNL     1     146.831 169.142 189.942  0.00  0.00    +0.020 C 
ATOM     25  C   UNL     1     146.856 167.609 189.688  0.00  0.00    +0.064 C 
ATOM     26  H   UNL     1     145.813 165.856 189.118  0.00  0.00    +0.032 HD
ATOM     27  H   UNL     1     143.780 168.035 189.616  0.00  0.00    +0.027 HD
ATOM     28  H   UNL     1     144.686 167.485 190.995  0.00  0.00    +0.027 HD
ATOM     29  H   UNL     1     143.973 165.258 190.839  0.00  0.00    +0.029 HD
ATOM     30  H   UNL     1     142.588 166.330 190.886  0.00  0.00    +0.029 HD
ATOM     31  H   UNL     1     142.090 164.495 189.432  0.00  0.00    +0.064 HD
ATOM     32  H   UNL     1     141.504 167.634 189.298  0.00  0.00    +0.057 HD
ATOM     33  H   UNL     1     139.717 168.469 187.963  0.00  0.00    +0.031 HD
ATOM     34  H   UNL     1     140.106 167.477 186.608  0.00  0.00    +0.031 HD
ATOM     35  H   UNL     1     142.239 168.804 186.250  0.00  0.00    +0.030 HD
ATOM     36  H   UNL     1     142.414 171.074 187.127  0.00  0.00    +0.030 HD
ATOM     37  H   UNL     1     142.667 169.848 188.357  0.00  0.00    +0.030 HD
ATOM     38  H   UNL     1     139.929 171.175 188.057  0.00  0.00    +0.064 HD
ATOM     39  H   UNL     1     142.311 172.187 189.767  0.00  0.00    +0.059 HD
ATOM     40  H   UNL     1     139.916 173.570 188.429  0.00  0.00    +0.057 HD
ATOM     41  H   UNL     1     140.769 175.604 189.137  0.00  0.00    +0.034 HD
ATOM     42  H   UNL     1     142.377 174.935 189.171  0.00  0.00    +0.034 HD
ATOM     43  H   UNL     1     141.641 175.970 191.352  0.00  0.00    +0.074 HD
ATOM     44  H   UNL     1     145.243 173.796 193.280  0.00  0.00    +0.069 HD
ATOM     45  H   UNL     1     144.578 173.602 190.269  0.00  0.00    +0.062 HD
ATOM     46  H   UNL     1     146.978 173.187 190.104  0.00  0.00    +0.061 HD
ATOM     47  H   UNL     1     146.346 171.272 192.436  0.00  0.00    +0.057 HD
ATOM     48  H   UNL     1     148.888 171.158 192.030  0.00  0.00    +0.034 HD
ATOM     49  H   UNL     1     148.627 171.559 190.340  0.00  0.00    +0.034 HD
ATOM     50  H   UNL     1     148.957 169.238 190.321  0.00  0.00    +0.074 HD
ATOM     51  H   UNL     1     145.913 169.380 190.490  0.00  0.00    +0.036 HD
ATOM     52  H   UNL     1     147.032 167.105 190.645  0.00  0.00    +0.060 HD
ENDROOT
BRANCH   1  53
ATOM     53  C   UNL     1     145.318 167.286 187.635  0.00  0.00    -0.060 C 
ATOM     54  H   UNL     1     144.845 166.456 187.108  0.00  0.00    +0.023 HD
ATOM     55  H   UNL     1     146.240 167.510 187.092  0.00  0.00    +0.023 HD
ATOM     56  H   UNL     1     144.647 168.141 187.535  0.00  0.00    +0.023 HD
ENDBRANCH   1  53
BRANCH   5  57
ATOM     57  C   UNL     1     141.883 165.374 186.655  0.00  0.00    -0.041 C 
ATOM     58  H   UNL     1     142.389 164.407 186.596  0.00  0.00    +0.028 HD
ATOM     59  H   UNL     1     140.834 165.188 186.404  0.00  0.00    +0.028 HD
ATOM     60  H   UNL     1     142.321 166.012 185.880  0.00  0.00    +0.028 HD
ENDBRANCH   5  57
BRANCH  24  61
ATOM     61  C   UNL     1     146.842 169.950 188.636  0.00  0.00    -0.057 C 
ATOM     62  H   UNL     1     147.854 170.041 188.235  0.00  0.00    +0.023 HD
ATOM     63  H   UNL     1     146.433 170.958 188.772  0.00  0.00    +0.023 HD
ATOM     64  H   UNL     1     146.260 169.474 187.845  0.00  0.00    +0.023 HD
ENDBRANCH  24  61
BRANCH   8  65
ATOM     65  C   UNL     1     140.521 169.888 185.638  0.00  0.00    -0.062 C 
ATOM     66  H   UNL     1     140.312 170.941 185.855  0.00  0.00    +0.023 HD
ATOM     67  H   UNL     1     141.038 169.834 184.673  0.00  0.00    +0.023 HD
ATOM     68  H   UNL     1     139.560 169.374 185.527  0.00  0.00    +0.023 HD
ENDBRANCH   8  65
BRANCH  14  69
ATOM     69  C   UNL     1     140.088 174.517 191.832  0.00  0.00    +0.020 C 
ATOM     70  H   UNL     1     139.326 174.361 191.064  0.00  0.00    +0.036 HD
BRANCH  69  71
ATOM     71  C   UNL     1     140.201 173.162 192.549  0.00  0.00    -0.057 C 
ATOM     72  H   UNL     1     140.167 172.330 191.835  0.00  0.00    +0.023 HD
ATOM     73  H   UNL     1     141.149 173.074 193.088  0.00  0.00    +0.023 HD
ATOM     74  H   UNL     1     139.382 173.020 193.260  0.00  0.00    +0.023 HD
ENDBRANCH  69  71
BRANCH  69  75
ATOM     75  C   UNL     1     139.572 175.582 192.845  0.00  0.00    +0.064 C 
ATOM     76  H   UNL     1     139.509 175.094 193.826  0.00  0.00    +0.060 HD
BRANCH  75  77
ATOM     77  C   UNL     1     138.162 176.139 192.489  0.00  0.00    -0.017 C 
ATOM     78  H   UNL     1     138.161 177.205 192.748  0.00  0.00    +0.032 HD
BRANCH  77  79
ATOM     79  C   UNL     1     137.921 176.082 190.974  0.00  0.00    -0.060 C 
ATOM     80  H   UNL     1     137.016 175.524 190.717  0.00  0.00    +0.023 HD
ATOM     81  H   UNL     1     138.764 175.592 190.473  0.00  0.00    +0.023 HD
ATOM     82  H   UNL     1     137.831 177.089 190.555  0.00  0.00    +0.023 HD
ENDBRANCH  77  79
BRANCH  77  83
ATOM     83  C   UNL     1     136.965 175.515 193.259  0.00  0.00    -0.045 C 
ATOM     84  H   UNL     1     136.318 175.032 192.518  0.00  0.00    +0.027 HD
ATOM     85  H   UNL     1     136.362 176.313 193.704  0.00  0.00    +0.027 HD
BRANCH  83  86
ATOM     86  C   UNL     1     137.302 174.491 194.356  0.00  0.00    -0.015 C 
ATOM     87  H   UNL     1     137.263 173.485 193.925  0.00  0.00    +0.030 HD
ATOM     88  H   UNL     1     138.316 174.675 194.719  0.00  0.00    +0.030 HD
BRANCH  86  89
ATOM     89  C   UNL     1     136.342 174.566 195.566  0.00  0.00    +0.109 C 
ATOM     90  H   UNL     1     135.711 175.455 195.448  0.00  0.00    +0.074 HD
BRANCH  89  91
ATOM     91  C   UNL     1     137.111 174.694 196.916  0.00  0.00    +0.031 C 
ATOM     92  H   UNL     1     138.140 174.370 196.708  0.00  0.00    +0.037 HD
BRANCH  91  93
ATOM     93  C   UNL     1     136.529 173.772 197.998  0.00  0.00    -0.056 C 
ATOM     94  H   UNL     1     135.460 173.952 198.148  0.00  0.00    +0.023 HD
ATOM     95  H   UNL     1     137.036 173.913 198.958  0.00  0.00    +0.023 HD
ATOM     96  H   UNL     1     136.619 172.719 197.720  0.00  0.00    +0.023 HD
ENDBRANCH  91  93
BRANCH  91  97
ATOM     97  C   UNL     1     137.149 176.177 197.412  0.00  0.00    +0.115 C 
ATOM     98  H   UNL     1     136.680 176.799 196.638  0.00  0.00    +0.074 HD
BRANCH  97  99
ATOM     99  C   UNL     1     136.388 176.415 198.754  0.00  0.00    +0.013 C 
ATOM    100  H   UNL     1     135.863 175.487 199.010  0.00  0.00    +0.038 HD
BRANCH  99 101
ATOM    101  C   UNL     1     135.301 177.493 198.635  0.00  0.00    -0.056 C 
ATOM    102  H   UNL     1     134.697 177.331 197.734  0.00  0.00    +0.024 HD
ATOM    103  H   UNL     1     134.617 177.488 199.491  0.00  0.00    +0.024 HD
ATOM    104  H   UNL     1     135.751 178.488 198.555  0.00  0.00    +0.024 HD
ENDBRANCH  99 101
BRANCH  99 105
ATOM    105  C   UNL     1     137.321 176.794 199.886  0.00  0.00    -0.064 C 
ATOM    106  C   UNL     1     137.292 176.204 201.090  0.00  0.00    -0.005 C 
ATOM    107  H   UNL     1     138.042 177.573 199.659  0.00  0.00    +0.059 HD
ATOM    108  H   UNL     1     136.555 175.427 201.290  0.00  0.00    +0.078 HD
BRANCH 106 109
ATOM    109  N   UNL     1     138.136 176.492 202.153  0.00  0.00    -0.284 N 
ATOM    110  C   UNL     1     138.577 175.462 202.983  0.00  0.00    +0.206 C 
ATOM    111  O   UNL     1     138.307 174.270 202.879  0.00  0.00    -0.279 OA
ATOM    112  H   UNL     1     139.232 175.823 203.793  0.00  0.00    +0.126 HD
BRANCH 109 113
ATOM    113  C   UNL     1     138.584 177.850 202.418  0.00  0.00    +0.007 C 
ATOM    114  H   UNL     1     137.890 178.557 201.951  0.00  0.00    +0.043 HD
ATOM    115  H   UNL     1     138.614 178.057 203.493  0.00  0.00    +0.043 HD
ATOM    116  H   UNL     1     139.593 177.988 202.014  0.00  0.00    +0.043 HD
ENDBRANCH 109 113
ENDBRANCH 106 109
ENDBRANCH  99 105
ENDBRANCH  97  99
BRANCH  97 117
ATOM    117  O   UNL     1     138.543 176.553 197.576  0.00  0.00    -0.461 OA
BRANCH 117 118
ATOM    118  C   UNL     1     139.217 176.927 196.453  0.00  0.00    +0.304 C 
ATOM    119  O   UNL     1     140.278 176.459 196.068  0.00  0.00    -0.251 OA
BRANCH 118 120
ATOM    120  C   UNL     1     138.445 177.974 195.711  0.00  0.00    +0.033 C 
ATOM    121  H   UNL     1     139.102 178.806 195.440  0.00  0.00    +0.034 HD
ATOM    122  H   UNL     1     138.049 177.541 194.789  0.00  0.00    +0.034 HD
ATOM    123  H   UNL     1     137.613 178.320 196.328  0.00  0.00    +0.034 HD
ENDBRANCH 118 120
ENDBRANCH 117 118
ENDBRANCH  97 117
ENDBRANCH  91  97
ENDBRANCH  89  91
BRANCH  89 124
ATOM    124  O   UNL     1     135.550 173.360 195.610  0.00  0.00    -0.460 OA
BRANCH 124 125
ATOM    125  C   UNL     1     134.368 173.345 194.933  0.00  0.00    +0.324 C 
ATOM    126  O   UNL     1     133.535 174.246 194.977  0.00  0.00    -0.249 OA
BRANCH 125 127
ATOM    127  C   UNL     1     134.148 172.035 194.149  0.00  0.00    +0.105 C 
ATOM    128  H   UNL     1     133.096 172.029 193.833  0.00  0.00    +0.058 HD
BRANCH 127 129
ATOM    129  C   UNL     1     134.360 170.895 195.151  0.00  0.00    -0.039 C 
ATOM    130  H   UNL     1     133.605 170.113 195.027  0.00  0.00    +0.025 HD
ATOM    131  H   UNL     1     135.344 170.437 195.006  0.00  0.00    +0.025 HD
ATOM    132  H   UNL     1     134.330 171.247 196.187  0.00  0.00    +0.025 HD
ENDBRANCH 127 129
BRANCH 127 133
ATOM    133  N   UNL     1     135.010 171.939 192.931  0.00  0.00    -0.296 NA
BRANCH 133 134
ATOM    134  C   UNL     1     134.621 172.941 191.929  0.00  0.00    -0.012 C 
ATOM    135  H   UNL     1     133.559 172.869 191.678  0.00  0.00    +0.039 HD
ATOM    136  H   UNL     1     135.203 172.839 191.005  0.00  0.00    +0.039 HD
ATOM    137  H   UNL     1     134.774 173.953 192.323  0.00  0.00    +0.039 HD
ENDBRANCH 133 134
BRANCH 133 138
ATOM    138  C   UNL     1     134.956 170.608 192.317  0.00  0.00    -0.012 C 
ATOM    139  H   UNL     1     135.591 170.565 191.424  0.00  0.00    +0.039 HD
ATOM    140  H   UNL     1     135.347 169.841 192.995  0.00  0.00    +0.039 HD
ATOM    141  H   UNL     1     133.935 170.334 192.024  0.00  0.00    +0.039 HD
ENDBRANCH 133 138
ENDBRANCH 127 133
ENDBRANCH 125 127
ENDBRANCH 124 125
ENDBRANCH  89 124
ENDBRANCH  86  89
ENDBRANCH  83  86
ENDBRANCH  77  83
ENDBRANCH  75  77
BRANCH  75 142
ATOM    142  O   UNL     1     140.506 176.639 193.017  0.00  0.00    -0.391 OA
ATOM    143  H   UNL     1     141.374 176.244 193.210  0.00  0.00    +0.210 HD
ENDBRANCH  75 142
ENDBRANCH  69  75
ENDBRANCH  14  69
BRANCH  25 144
ATOM    144  O   UNL     1     147.995 167.286 188.878  0.00  0.00    -0.391 OA
ATOM    145  H   UNL     1     148.686 166.937 189.464  0.00  0.00    +0.210 HD
ENDBRANCH  25 144
BRANCH  23 146
ATOM    146  O   UNL     1     147.936 168.815 192.107  0.00  0.00    -0.460 OA
BRANCH 146 147
ATOM    147  C   UNL     1     149.038 168.079 192.453  0.00  0.00    +0.327 C 
ATOM    148  O   UNL     1     150.199 168.420 192.240  0.00  0.00    -0.249 OA
BRANCH 147 149
ATOM    149  C   UNL     1     148.624 166.755 193.113  0.00  0.00    +0.131 C 
ATOM    150  H   UNL     1     148.539 166.002 192.318  0.00  0.00    +0.060 HD
BRANCH 149 151
ATOM    151  C   UNL     1     147.213 166.939 193.698  0.00  0.00    +0.073 C 
ATOM    152  H   UNL     1     147.196 166.606 194.742  0.00  0.00    +0.058 HD
ATOM    153  H   UNL     1     146.893 167.987 193.662  0.00  0.00    +0.058 HD
BRANCH 151 154
ATOM    154  O   UNL     1     146.292 166.121 192.962  0.00  0.00    -0.381 OA
BRANCH 154 155
ATOM    155  C   UNL     1     145.003 166.115 193.562  0.00  0.00    +0.037 C 
ATOM    156  H   UNL     1     144.391 165.305 193.154  0.00  0.00    +0.052 HD
ATOM    157  H   UNL     1     144.515 167.068 193.337  0.00  0.00    +0.052 HD
ATOM    158  H   UNL     1     145.085 166.017 194.648  0.00  0.00    +0.052 HD
ENDBRANCH 154 155
ENDBRANCH 151 154
ENDBRANCH 149 151
BRANCH 149 159
ATOM    159  N   UNL     1     149.587 166.281 194.156  0.00  0.00    -0.294 NA
BRANCH 159 160
ATOM    160  C   UNL     1     148.936 166.123 195.454  0.00  0.00    -0.012 C 
ATOM    161  H   UNL     1     148.324 165.219 195.516  0.00  0.00    +0.039 HD
ATOM    162  H   UNL     1     148.305 166.989 195.663  0.00  0.00    +0.039 HD
ATOM    163  H   UNL     1     149.675 166.087 196.261  0.00  0.00    +0.039 HD
ENDBRANCH 159 160
BRANCH 159 164
ATOM    164  C   UNL     1     150.311 165.066 193.782  0.00  0.00    -0.012 C 
ATOM    165  H   UNL     1     149.978 164.656 192.822  0.00  0.00    +0.039 HD
ATOM    166  H   UNL     1     150.165 164.289 194.541  0.00  0.00    +0.039 HD
ATOM    167  H   UNL     1     151.389 165.244 193.731  0.00  0.00    +0.039 HD
ENDBRANCH 159 164
ENDBRANCH 149 159
ENDBRANCH 147 149
ENDBRANCH 146 147
ENDBRANCH  23 146
BRANCH   4 168
ATOM    168  O   UNL     1     143.857 164.534 188.361  0.00  0.00    -0.376 OA
BRANCH 168 169
ATOM    169  C   UNL     1     143.945 163.162 188.727  0.00  0.00    +0.037 C 
ATOM    170  H   UNL     1     143.841 162.562 187.819  0.00  0.00    +0.052 HD
ATOM    171  H   UNL     1     143.131 162.906 189.410  0.00  0.00    +0.052 HD
ATOM    172  H   UNL     1     144.912 162.937 189.184  0.00  0.00    +0.052 HD
ENDBRANCH 168 169
ENDBRANCH   4 168
BRANCH  10 173
ATOM    173  O   UNL     1     140.569 170.110 189.721  0.00  0.00    -0.376 OA
BRANCH 173 174
ATOM    174  C   UNL     1     141.627 170.039 190.672  0.00  0.00    +0.037 C 
ATOM    175  H   UNL     1     141.748 171.028 191.122  0.00  0.00    +0.052 HD
ATOM    176  H   UNL     1     141.382 169.331 191.468  0.00  0.00    +0.052 HD
ATOM    177  H   UNL     1     142.569 169.760 190.189  0.00  0.00    +0.052 HD
ENDBRANCH 173 174
ENDBRANCH  10 173
TORSDOF 45
ENDMDL
MODEL 6
REMARK VINA RESULT:      -4.6      5.951     13.024
REMARK  Name = Aplyronine A_conf1
REMARK  45 active torsions:
REMARK  status: ('A' for Active; 'I' for Inactive)
REMARK    1  A    between atoms: C_1  and  C_2
REMARK    2  A    between atoms: C_5  and  O_75
REMARK    3  A    between atoms: C_6  and  C_74
REMARK    4  A    between atoms: C_9  and  C_73
REMARK    5  A    between atoms: C_11  and  O_71
REMARK    6  A    between atoms: C_15  and  C_39
REMARK    7  A    between atoms: C_24  and  O_29
REMARK    8  A    between atoms: C_25  and  C_28
REMARK    9  A    between atoms: C_26  and  O_27
REMARK   10  A    between atoms: O_29  and  C_30
REMARK   11  A    between atoms: C_30  and  C_32
REMARK   12  A    between atoms: C_32  and  C_33
REMARK   13  A    between atoms: C_32  and  N_36
REMARK   14  A    between atoms: C_33  and  O_34
REMARK   15  A    between atoms: O_34  and  C_35
REMARK   16  A    between atoms: N_36  and  C_37
REMARK   17  A    between atoms: N_36  and  C_38
REMARK   18  A    between atoms: C_39  and  C_40
REMARK   19  A    between atoms: C_39  and  C_41
REMARK   20  A    between atoms: C_41  and  C_42
REMARK   21  A    between atoms: C_41  and  O_70
REMARK   22  A    between atoms: C_42  and  C_43
REMARK   23  A    between atoms: C_42  and  C_44
REMARK   24  A    between atoms: C_44  and  C_45
REMARK   25  A    between atoms: C_45  and  C_46
REMARK   26  A    between atoms: C_46  and  C_47
REMARK   27  A    between atoms: C_46  and  O_62
REMARK   28  A    between atoms: C_47  and  C_48
REMARK   29  A    between atoms: C_47  and  C_49
REMARK   30  A    between atoms: C_49  and  C_50
REMARK   31  A    between atoms: C_49  and  O_58
REMARK   32  A    between atoms: C_50  and  C_51
REMARK   33  A    between atoms: C_50  and  C_52
REMARK   34  A    between atoms: C_53  and  N_54
REMARK   35  A    between atoms: N_54  and  C_55
REMARK   36  A    between atoms: O_58  and  C_59
REMARK   37  A    between atoms: C_59  and  C_61
REMARK   38  A    between atoms: O_62  and  C_63
REMARK   39  A    between atoms: C_63  and  C_65
REMARK   40  A    between atoms: C_65  and  C_66
REMARK   41  A    between atoms: C_65  and  N_67
REMARK   42  A    between atoms: N_67  and  C_68
REMARK   43  A    between atoms: N_67  and  C_69
REMARK   44  A    between atoms: O_71  and  C_72
REMARK   45  A    between atoms: O_75  and  C_76
REMARK                            x       y       z     vdW  Elec       q    Type
REMARK                         _______ _______ _______ _____ _____    ______ ____
ROOT
ATOM      1  C   UNL     1     143.732 176.629 184.990  0.00  0.00    -0.017 C 
ATOM      2  C   UNL     1     144.980 175.885 185.506  0.00  0.00    -0.045 C 
ATOM      3  C   UNL     1     146.338 176.286 184.891  0.00  0.00    -0.022 C 
ATOM      4  C   UNL     1     146.525 176.226 183.359  0.00  0.00    +0.079 C 
ATOM      5  C   UNL     1     146.250 174.899 182.645  0.00  0.00    -0.048 C 
ATOM      6  C   UNL     1     146.305 173.702 183.269  0.00  0.00    -0.082 C 
ATOM      7  C   UNL     1     146.097 172.335 182.670  0.00  0.00    -0.032 C 
ATOM      8  C   UNL     1     144.673 171.790 182.885  0.00  0.00    -0.038 C 
ATOM      9  C   UNL     1     144.278 171.509 184.358  0.00  0.00    -0.020 C 
ATOM     10  C   UNL     1     145.206 170.550 185.133  0.00  0.00    +0.077 C 
ATOM     11  C   UNL     1     144.491 170.017 186.351  0.00  0.00    -0.059 C 
ATOM     12  C   UNL     1     144.286 168.713 186.606  0.00  0.00    -0.082 C 
ATOM     13  C   UNL     1     143.591 168.160 187.832  0.00  0.00    +0.003 C 
ATOM     14  C   UNL     1     144.270 168.424 189.206  0.00  0.00    +0.112 C 
ATOM     15  O   UNL     1     144.015 169.824 189.480  0.00  0.00    -0.458 OA
ATOM     16  C   UNL     1     143.547 170.153 190.710  0.00  0.00    +0.332 C 
ATOM     17  O   UNL     1     143.572 169.459 191.712  0.00  0.00    -0.246 OA
ATOM     18  C   UNL     1     142.921 171.491 190.676  0.00  0.00    +0.022 C 
ATOM     19  C   UNL     1     142.189 171.854 189.613  0.00  0.00    -0.055 C 
ATOM     20  C   UNL     1     141.407 173.058 189.490  0.00  0.00    -0.065 C 
ATOM     21  C   UNL     1     141.859 174.305 189.678  0.00  0.00    -0.081 C 
ATOM     22  C   UNL     1     140.998 175.513 189.385  0.00  0.00    +0.003 C 
ATOM     23  C   UNL     1     141.602 176.503 188.356  0.00  0.00    +0.111 C 
ATOM     24  C   UNL     1     142.229 175.875 187.070  0.00  0.00    +0.020 C 
ATOM     25  C   UNL     1     142.770 177.008 186.154  0.00  0.00    +0.064 C 
ATOM     26  H   UNL     1     144.046 177.594 184.569  0.00  0.00    +0.032 HD
ATOM     27  H   UNL     1     144.833 174.804 185.423  0.00  0.00    +0.027 HD
ATOM     28  H   UNL     1     145.089 176.075 186.582  0.00  0.00    +0.027 HD
ATOM     29  H   UNL     1     146.537 177.314 185.219  0.00  0.00    +0.029 HD
ATOM     30  H   UNL     1     147.112 175.666 185.364  0.00  0.00    +0.029 HD
ATOM     31  H   UNL     1     147.581 176.451 183.151  0.00  0.00    +0.064 HD
ATOM     32  H   UNL     1     146.549 173.664 184.327  0.00  0.00    +0.057 HD
ATOM     33  H   UNL     1     146.844 171.652 183.088  0.00  0.00    +0.031 HD
ATOM     34  H   UNL     1     146.325 172.351 181.600  0.00  0.00    +0.031 HD
ATOM     35  H   UNL     1     143.967 172.547 182.515  0.00  0.00    +0.030 HD
ATOM     36  H   UNL     1     143.257 171.107 184.354  0.00  0.00    +0.030 HD
ATOM     37  H   UNL     1     144.226 172.468 184.890  0.00  0.00    +0.030 HD
ATOM     38  H   UNL     1     145.523 169.730 184.480  0.00  0.00    +0.064 HD
ATOM     39  H   UNL     1     144.146 170.771 187.058  0.00  0.00    +0.059 HD
ATOM     40  H   UNL     1     144.648 167.970 185.898  0.00  0.00    +0.057 HD
ATOM     41  H   UNL     1     143.455 167.083 187.676  0.00  0.00    +0.034 HD
ATOM     42  H   UNL     1     142.575 168.576 187.849  0.00  0.00    +0.034 HD
ATOM     43  H   UNL     1     143.742 167.815 189.953  0.00  0.00    +0.074 HD
ATOM     44  H   UNL     1     142.989 172.082 191.582  0.00  0.00    +0.069 HD
ATOM     45  H   UNL     1     142.076 171.169 188.774  0.00  0.00    +0.062 HD
ATOM     46  H   UNL     1     140.393 172.902 189.121  0.00  0.00    +0.061 HD
ATOM     47  H   UNL     1     142.876 174.496 190.015  0.00  0.00    +0.057 HD
ATOM     48  H   UNL     1     140.834 176.033 190.339  0.00  0.00    +0.034 HD
ATOM     49  H   UNL     1     140.010 175.199 189.031  0.00  0.00    +0.034 HD
ATOM     50  H   UNL     1     140.792 177.171 188.033  0.00  0.00    +0.074 HD
ATOM     51  H   UNL     1     143.078 175.257 187.382  0.00  0.00    +0.036 HD
ATOM     52  H   UNL     1     143.338 177.710 186.774  0.00  0.00    +0.060 HD
ENDROOT
BRANCH   1  53
ATOM     53  C   UNL     1     143.039 175.875 183.845  0.00  0.00    -0.060 C 
ATOM     54  H   UNL     1     141.972 175.761 184.039  0.00  0.00    +0.023 HD
ATOM     55  H   UNL     1     143.438 174.867 183.714  0.00  0.00    +0.023 HD
ATOM     56  H   UNL     1     143.129 176.404 182.894  0.00  0.00    +0.023 HD
ENDBRANCH   1  53
BRANCH   5  57
ATOM     57  C   UNL     1     145.965 175.046 181.167  0.00  0.00    -0.041 C 
ATOM     58  H   UNL     1     146.095 174.123 180.598  0.00  0.00    +0.028 HD
ATOM     59  H   UNL     1     144.931 175.366 181.003  0.00  0.00    +0.028 HD
ATOM     60  H   UNL     1     146.636 175.792 180.727  0.00  0.00    +0.028 HD
ENDBRANCH   5  57
BRANCH  24  61
ATOM     61  C   UNL     1     141.212 174.977 186.350  0.00  0.00    -0.057 C 
ATOM     62  H   UNL     1     140.232 175.025 186.831  0.00  0.00    +0.023 HD
ATOM     63  H   UNL     1     141.533 173.930 186.324  0.00  0.00    +0.023 HD
ATOM     64  H   UNL     1     141.042 175.284 185.316  0.00  0.00    +0.023 HD
ENDBRANCH  24  61
BRANCH   8  65
ATOM     65  C   UNL     1     144.457 170.543 182.019  0.00  0.00    -0.062 C 
ATOM     66  H   UNL     1     145.256 169.809 182.162  0.00  0.00    +0.023 HD
ATOM     67  H   UNL     1     143.502 170.061 182.258  0.00  0.00    +0.023 HD
ATOM     68  H   UNL     1     144.436 170.810 180.957  0.00  0.00    +0.023 HD
ENDBRANCH   8  65
BRANCH  14  69
ATOM     69  C   UNL     1     145.785 168.093 189.244  0.00  0.00    +0.020 C 
ATOM     70  H   UNL     1     146.040 167.577 188.315  0.00  0.00    +0.036 HD
BRANCH  69  71
ATOM     71  C   UNL     1     146.663 169.355 189.241  0.00  0.00    -0.057 C 
ATOM     72  H   UNL     1     146.769 169.769 190.250  0.00  0.00    +0.023 HD
ATOM     73  H   UNL     1     147.674 169.137 188.883  0.00  0.00    +0.023 HD
ATOM     74  H   UNL     1     146.231 170.136 188.607  0.00  0.00    +0.023 HD
ENDBRANCH  69  71
BRANCH  69  75
ATOM     75  C   UNL     1     146.198 167.195 190.449  0.00  0.00    +0.064 C 
ATOM     76  H   UNL     1     146.927 167.762 191.041  0.00  0.00    +0.060 HD
BRANCH  75  77
ATOM     77  C   UNL     1     146.861 165.853 190.019  0.00  0.00    -0.017 C 
ATOM     78  H   UNL     1     147.462 165.503 190.867  0.00  0.00    +0.032 HD
BRANCH  77  79
ATOM     79  C   UNL     1     145.796 164.770 189.791  0.00  0.00    -0.060 C 
ATOM     80  H   UNL     1     145.506 164.685 188.740  0.00  0.00    +0.023 HD
ATOM     81  H   UNL     1     144.892 164.998 190.366  0.00  0.00    +0.023 HD
ATOM     82  H   UNL     1     146.158 163.792 190.125  0.00  0.00    +0.023 HD
ENDBRANCH  77  79
BRANCH  77  83
ATOM     83  C   UNL     1     147.835 165.928 188.810  0.00  0.00    -0.045 C 
ATOM     84  H   UNL     1     147.731 166.926 188.370  0.00  0.00    +0.027 HD
ATOM     85  H   UNL     1     147.508 165.226 188.036  0.00  0.00    +0.027 HD
BRANCH  83  86
ATOM     86  C   UNL     1     149.324 165.673 189.100  0.00  0.00    -0.015 C 
ATOM     87  H   UNL     1     149.594 164.682 188.720  0.00  0.00    +0.030 HD
ATOM     88  H   UNL     1     149.924 166.422 188.577  0.00  0.00    +0.030 HD
BRANCH  86  89
ATOM     89  C   UNL     1     149.667 165.754 190.605  0.00  0.00    +0.109 C 
ATOM     90  H   UNL     1     148.746 165.981 191.156  0.00  0.00    +0.074 HD
BRANCH  89  91
ATOM     91  C   UNL     1     150.701 166.880 190.910  0.00  0.00    +0.031 C 
ATOM     92  H   UNL     1     150.822 167.439 189.972  0.00  0.00    +0.037 HD
BRANCH  91  93
ATOM     93  C   UNL     1     152.071 166.309 191.307  0.00  0.00    -0.056 C 
ATOM     94  H   UNL     1     152.419 166.720 192.259  0.00  0.00    +0.023 HD
ATOM     95  H   UNL     1     152.829 166.526 190.546  0.00  0.00    +0.023 HD
ATOM     96  H   UNL     1     152.031 165.226 191.445  0.00  0.00    +0.023 HD
ENDBRANCH  91  93
BRANCH  91  97
ATOM     97  C   UNL     1     150.170 167.862 192.006  0.00  0.00    +0.115 C 
ATOM     98  H   UNL     1     150.795 167.732 192.900  0.00  0.00    +0.074 HD
BRANCH  97  99
ATOM     99  C   UNL     1     150.225 169.364 191.589  0.00  0.00    +0.013 C 
ATOM    100  H   UNL     1     150.260 169.406 190.494  0.00  0.00    +0.038 HD
BRANCH  99 101
ATOM    101  C   UNL     1     151.498 170.069 192.078  0.00  0.00    -0.056 C 
ATOM    102  H   UNL     1     152.126 169.374 192.649  0.00  0.00    +0.024 HD
ATOM    103  H   UNL     1     152.106 170.449 191.248  0.00  0.00    +0.024 HD
ATOM    104  H   UNL     1     151.248 170.906 192.738  0.00  0.00    +0.024 HD
ENDBRANCH  99 101
BRANCH  99 105
ATOM    105  C   UNL     1     149.023 170.143 192.083  0.00  0.00    -0.064 C 
ATOM    106  C   UNL     1     148.869 171.460 191.884  0.00  0.00    -0.005 C 
ATOM    107  H   UNL     1     148.268 169.561 192.603  0.00  0.00    +0.059 HD
ATOM    108  H   UNL     1     149.645 172.020 191.361  0.00  0.00    +0.078 HD
BRANCH 106 109
ATOM    109  N   UNL     1     147.780 172.219 192.290  0.00  0.00    -0.284 N 
ATOM    110  C   UNL     1     147.900 173.066 193.391  0.00  0.00    +0.206 C 
ATOM    111  O   UNL     1     148.904 173.242 194.073  0.00  0.00    -0.279 OA
ATOM    112  H   UNL     1     146.964 173.603 193.616  0.00  0.00    +0.126 HD
BRANCH 109 113
ATOM    113  C   UNL     1     146.510 172.158 191.584  0.00  0.00    +0.007 C 
ATOM    114  H   UNL     1     145.841 171.463 192.101  0.00  0.00    +0.043 HD
ATOM    115  H   UNL     1     146.025 173.140 191.550  0.00  0.00    +0.043 HD
ATOM    116  H   UNL     1     146.680 171.825 190.554  0.00  0.00    +0.043 HD
ENDBRANCH 109 113
ENDBRANCH 106 109
ENDBRANCH  99 105
ENDBRANCH  97  99
BRANCH  97 117
ATOM    117  O   UNL     1     148.796 167.494 192.301  0.00  0.00    -0.461 OA
BRANCH 117 118
ATOM    118  C   UNL     1     148.500 167.204 193.599  0.00  0.00    +0.304 C 
ATOM    119  O   UNL     1     147.409 167.343 194.130  0.00  0.00    -0.251 OA
BRANCH 118 120
ATOM    120  C   UNL     1     149.700 166.634 194.288  0.00  0.00    +0.033 C 
ATOM    121  H   UNL     1     149.479 165.632 194.666  0.00  0.00    +0.034 HD
ATOM    122  H   UNL     1     150.521 166.551 193.570  0.00  0.00    +0.034 HD
ATOM    123  H   UNL     1     150.004 167.298 195.101  0.00  0.00    +0.034 HD
ENDBRANCH 118 120
ENDBRANCH 117 118
ENDBRANCH  97 117
ENDBRANCH  91  97
ENDBRANCH  89  91
BRANCH  89 124
ATOM    124  O   UNL     1     150.234 164.495 191.024  0.00  0.00    -0.460 OA
BRANCH 124 125
ATOM    125  C   UNL     1     149.416 163.596 191.639  0.00  0.00    +0.324 C 
ATOM    126  O   UNL     1     148.786 163.827 192.668  0.00  0.00    -0.249 OA
BRANCH 125 127
ATOM    127  C   UNL     1     149.412 162.220 190.944  0.00  0.00    +0.105 C 
ATOM    128  H   UNL     1     149.537 161.466 191.732  0.00  0.00    +0.058 HD
BRANCH 127 129
ATOM    129  C   UNL     1     150.652 162.192 190.043  0.00  0.00    -0.039 C 
ATOM    130  H   UNL     1     150.485 161.567 189.160  0.00  0.00    +0.025 HD
ATOM    131  H   UNL     1     150.896 163.202 189.697  0.00  0.00    +0.025 HD
ATOM    132  H   UNL     1     151.535 161.820 190.571  0.00  0.00    +0.025 HD
ENDBRANCH 127 129
BRANCH 127 133
ATOM    133  N   UNL     1     148.132 161.942 190.220  0.00  0.00    -0.296 NA
BRANCH 133 134
ATOM    134  C   UNL     1     147.659 160.577 190.491  0.00  0.00    -0.012 C 
ATOM    135  H   UNL     1     148.492 159.879 190.613  0.00  0.00    +0.039 HD
ATOM    136  H   UNL     1     147.010 160.206 189.689  0.00  0.00    +0.039 HD
ATOM    137  H   UNL     1     147.096 160.548 191.432  0.00  0.00    +0.039 HD
ENDBRANCH 133 134
BRANCH 133 138
ATOM    138  C   UNL     1     148.265 162.119 188.771  0.00  0.00    -0.012 C 
ATOM    139  H   UNL     1     148.395 163.179 188.519  0.00  0.00    +0.039 HD
ATOM    140  H   UNL     1     149.158 161.613 188.388  0.00  0.00    +0.039 HD
ATOM    141  H   UNL     1     147.386 161.745 188.231  0.00  0.00    +0.039 HD
ENDBRANCH 133 138
ENDBRANCH 127 133
ENDBRANCH 125 127
ENDBRANCH 124 125
ENDBRANCH  89 124
ENDBRANCH  86  89
ENDBRANCH  83  86
ENDBRANCH  77  83
ENDBRANCH  75  77
BRANCH  75 142
ATOM    142  O   UNL     1     145.107 166.963 191.328  0.00  0.00    -0.391 OA
ATOM    143  H   UNL     1     145.084 166.013 191.536  0.00  0.00    +0.210 HD
ENDBRANCH  75 142
ENDBRANCH  69  75
ENDBRANCH  14  69
BRANCH  25 144
ATOM    144  O   UNL     1     141.664 177.767 185.645  0.00  0.00    -0.391 OA
ATOM    145  H   UNL     1     141.861 177.996 184.722  0.00  0.00    +0.210 HD
ENDBRANCH  25 144
BRANCH  23 146
ATOM    146  O   UNL     1     142.627 177.267 189.049  0.00  0.00    -0.460 OA
BRANCH 146 147
ATOM    147  C   UNL     1     142.330 178.587 189.260  0.00  0.00    +0.327 C 
ATOM    148  O   UNL     1     141.336 178.991 189.858  0.00  0.00    -0.249 OA
BRANCH 147 149
ATOM    149  C   UNL     1     143.392 179.495 188.620  0.00  0.00    +0.131 C 
ATOM    150  H   UNL     1     144.047 178.857 188.012  0.00  0.00    +0.060 HD
BRANCH 149 151
ATOM    151  C   UNL     1     144.264 180.071 189.750  0.00  0.00    +0.073 C 
ATOM    152  H   UNL     1     144.059 181.141 189.868  0.00  0.00    +0.058 HD
ATOM    153  H   UNL     1     144.070 179.572 190.706  0.00  0.00    +0.058 HD
BRANCH 151 154
ATOM    154  O   UNL     1     145.646 179.928 189.392  0.00  0.00    -0.381 OA
BRANCH 154 155
ATOM    155  C   UNL     1     146.331 181.172 189.442  0.00  0.00    +0.037 C 
ATOM    156  H   UNL     1     145.865 181.897 188.768  0.00  0.00    +0.052 HD
ATOM    157  H   UNL     1     147.363 181.010 189.119  0.00  0.00    +0.052 HD
ATOM    158  H   UNL     1     146.346 181.563 190.463  0.00  0.00    +0.052 HD
ENDBRANCH 154 155
ENDBRANCH 151 154
ENDBRANCH 149 151
BRANCH 149 159
ATOM    159  N   UNL     1     142.815 180.582 187.770  0.00  0.00    -0.294 NA
BRANCH 159 160
ATOM    160  C   UNL     1     142.736 181.847 188.497  0.00  0.00    -0.012 C 
ATOM    161  H   UNL     1     142.272 182.645 187.913  0.00  0.00    +0.039 HD
ATOM    162  H   UNL     1     143.736 182.167 188.797  0.00  0.00    +0.039 HD
ATOM    163  H   UNL     1     142.166 181.730 189.425  0.00  0.00    +0.039 HD
ENDBRANCH 159 160
BRANCH 159 164
ATOM    164  C   UNL     1     143.499 180.757 186.489  0.00  0.00    -0.012 C 
ATOM    165  H   UNL     1     144.585 180.853 186.602  0.00  0.00    +0.039 HD
ATOM    166  H   UNL     1     143.139 181.662 185.987  0.00  0.00    +0.039 HD
ATOM    167  H   UNL     1     143.290 179.926 185.809  0.00  0.00    +0.039 HD
ENDBRANCH 159 164
ENDBRANCH 149 159
ENDBRANCH 147 149
ENDBRANCH 146 147
ENDBRANCH  23 146
BRANCH   4 168
ATOM    168  O   UNL     1     145.717 177.257 182.768  0.00  0.00    -0.376 OA
BRANCH 168 169
ATOM    169  C   UNL     1     146.160 178.571 183.084  0.00  0.00    +0.037 C 
ATOM    170  H   UNL     1     145.697 179.264 182.377  0.00  0.00    +0.052 HD
ATOM    171  H   UNL     1     147.246 178.634 182.976  0.00  0.00    +0.052 HD
ATOM    172  H   UNL     1     145.861 178.856 184.097  0.00  0.00    +0.052 HD
ENDBRANCH 168 169
ENDBRANCH   4 168
BRANCH  10 173
ATOM    173  O   UNL     1     146.348 171.296 185.566  0.00  0.00    -0.376 OA
BRANCH 173 174
ATOM    174  C   UNL     1     146.055 172.232 186.599  0.00  0.00    +0.037 C 
ATOM    175  H   UNL     1     145.295 171.794 187.249  0.00  0.00    +0.052 HD
ATOM    176  H   UNL     1     146.945 172.432 187.200  0.00  0.00    +0.052 HD
ATOM    177  H   UNL     1     145.659 173.163 186.181  0.00  0.00    +0.052 HD
ENDBRANCH 173 174
ENDBRANCH  10 173
TORSDOF 45
ENDMDL
MODEL 7
REMARK VINA RESULT:      -4.6      1.409      2.040
REMARK  Name = Aplyronine A_conf1
REMARK  45 active torsions:
REMARK  status: ('A' for Active; 'I' for Inactive)
REMARK    1  A    between atoms: C_1  and  C_2
REMARK    2  A    between atoms: C_5  and  O_75
REMARK    3  A    between atoms: C_6  and  C_74
REMARK    4  A    between atoms: C_9  and  C_73
REMARK    5  A    between atoms: C_11  and  O_71
REMARK    6  A    between atoms: C_15  and  C_39
REMARK    7  A    between atoms: C_24  and  O_29
REMARK    8  A    between atoms: C_25  and  C_28
REMARK    9  A    between atoms: C_26  and  O_27
REMARK   10  A    between atoms: O_29  and  C_30
REMARK   11  A    between atoms: C_30  and  C_32
REMARK   12  A    between atoms: C_32  and  C_33
REMARK   13  A    between atoms: C_32  and  N_36
REMARK   14  A    between atoms: C_33  and  O_34
REMARK   15  A    between atoms: O_34  and  C_35
REMARK   16  A    between atoms: N_36  and  C_37
REMARK   17  A    between atoms: N_36  and  C_38
REMARK   18  A    between atoms: C_39  and  C_40
REMARK   19  A    between atoms: C_39  and  C_41
REMARK   20  A    between atoms: C_41  and  C_42
REMARK   21  A    between atoms: C_41  and  O_70
REMARK   22  A    between atoms: C_42  and  C_43
REMARK   23  A    between atoms: C_42  and  C_44
REMARK   24  A    between atoms: C_44  and  C_45
REMARK   25  A    between atoms: C_45  and  C_46
REMARK   26  A    between atoms: C_46  and  C_47
REMARK   27  A    between atoms: C_46  and  O_62
REMARK   28  A    between atoms: C_47  and  C_48
REMARK   29  A    between atoms: C_47  and  C_49
REMARK   30  A    between atoms: C_49  and  C_50
REMARK   31  A    between atoms: C_49  and  O_58
REMARK   32  A    between atoms: C_50  and  C_51
REMARK   33  A    between atoms: C_50  and  C_52
REMARK   34  A    between atoms: C_53  and  N_54
REMARK   35  A    between atoms: N_54  and  C_55
REMARK   36  A    between atoms: O_58  and  C_59
REMARK   37  A    between atoms: C_59  and  C_61
REMARK   38  A    between atoms: O_62  and  C_63
REMARK   39  A    between atoms: C_63  and  C_65
REMARK   40  A    between atoms: C_65  and  C_66
REMARK   41  A    between atoms: C_65  and  N_67
REMARK   42  A    between atoms: N_67  and  C_68
REMARK   43  A    between atoms: N_67  and  C_69
REMARK   44  A    between atoms: O_71  and  C_72
REMARK   45  A    between atoms: O_75  and  C_76
REMARK                            x       y       z     vdW  Elec       q    Type
REMARK                         _______ _______ _______ _____ _____    ______ ____
ROOT
ATOM      1  C   UNL     1     145.390 167.319 189.073  0.00  0.00    -0.017 C 
ATOM      2  C   UNL     1     144.201 167.531 190.032  0.00  0.00    -0.045 C 
ATOM      3  C   UNL     1     143.260 166.328 190.255  0.00  0.00    -0.022 C 
ATOM      4  C   UNL     1     142.589 165.653 189.039  0.00  0.00    +0.079 C 
ATOM      5  C   UNL     1     141.751 166.522 188.096  0.00  0.00    -0.048 C 
ATOM      6  C   UNL     1     141.188 167.690 188.476  0.00  0.00    -0.082 C 
ATOM      7  C   UNL     1     140.315 168.606 187.660  0.00  0.00    -0.032 C 
ATOM      8  C   UNL     1     141.087 169.787 187.042  0.00  0.00    -0.038 C 
ATOM      9  C   UNL     1     141.683 170.801 188.053  0.00  0.00    -0.020 C 
ATOM     10  C   UNL     1     140.680 171.437 189.039  0.00  0.00    +0.077 C 
ATOM     11  C   UNL     1     141.273 172.692 189.633  0.00  0.00    -0.059 C 
ATOM     12  C   UNL     1     140.713 173.913 189.553  0.00  0.00    -0.082 C 
ATOM     13  C   UNL     1     141.280 175.177 190.162  0.00  0.00    +0.003 C 
ATOM     14  C   UNL     1     141.395 175.223 191.712  0.00  0.00    +0.112 C 
ATOM     15  O   UNL     1     142.519 174.362 192.023  0.00  0.00    -0.458 OA
ATOM     16  C   UNL     1     143.458 174.833 192.882  0.00  0.00    +0.332 C 
ATOM     17  O   UNL     1     143.345 175.778 193.643  0.00  0.00    -0.246 OA
ATOM     18  C   UNL     1     144.713 174.066 192.735  0.00  0.00    +0.022 C 
ATOM     19  C   UNL     1     145.118 173.684 191.515  0.00  0.00    -0.055 C 
ATOM     20  C   UNL     1     146.375 173.058 191.194  0.00  0.00    -0.065 C 
ATOM     21  C   UNL     1     146.865 171.951 191.767  0.00  0.00    -0.081 C 
ATOM     22  C   UNL     1     148.127 171.288 191.261  0.00  0.00    +0.003 C 
ATOM     23  C   UNL     1     147.954 169.807 190.839  0.00  0.00    +0.111 C 
ATOM     24  C   UNL     1     146.700 169.472 189.970  0.00  0.00    +0.020 C 
ATOM     25  C   UNL     1     146.697 167.955 189.632  0.00  0.00    +0.064 C 
ATOM     26  H   UNL     1     145.611 166.244 189.017  0.00  0.00    +0.032 HD
ATOM     27  H   UNL     1     143.625 168.409 189.727  0.00  0.00    +0.027 HD
ATOM     28  H   UNL     1     144.588 167.777 191.030  0.00  0.00    +0.027 HD
ATOM     29  H   UNL     1     143.845 165.567 190.787  0.00  0.00    +0.029 HD
ATOM     30  H   UNL     1     142.476 166.646 190.957  0.00  0.00    +0.029 HD
ATOM     31  H   UNL     1     141.892 164.897 189.430  0.00  0.00    +0.064 HD
ATOM     32  H   UNL     1     141.333 168.044 189.494  0.00  0.00    +0.057 HD
ATOM     33  H   UNL     1     139.495 168.965 188.291  0.00  0.00    +0.031 HD
ATOM     34  H   UNL     1     139.811 168.045 186.868  0.00  0.00    +0.031 HD
ATOM     35  H   UNL     1     141.939 169.373 186.483  0.00  0.00    +0.030 HD
ATOM     36  H   UNL     1     142.178 171.590 187.473  0.00  0.00    +0.030 HD
ATOM     37  H   UNL     1     142.475 170.297 188.622  0.00  0.00    +0.030 HD
ATOM     38  H   UNL     1     139.740 171.660 188.523  0.00  0.00    +0.064 HD
ATOM     39  H   UNL     1     142.209 172.558 190.172  0.00  0.00    +0.059 HD
ATOM     40  H   UNL     1     139.769 174.031 189.024  0.00  0.00    +0.057 HD
ATOM     41  H   UNL     1     140.675 176.017 189.801  0.00  0.00    +0.034 HD
ATOM     42  H   UNL     1     142.276 175.334 189.724  0.00  0.00    +0.034 HD
ATOM     43  H   UNL     1     141.652 176.254 191.990  0.00  0.00    +0.074 HD
ATOM     44  H   UNL     1     145.317 173.948 193.626  0.00  0.00    +0.069 HD
ATOM     45  H   UNL     1     144.511 173.925 190.643  0.00  0.00    +0.062 HD
ATOM     46  H   UNL     1     146.896 173.501 190.344  0.00  0.00    +0.061 HD
ATOM     47  H   UNL     1     146.353 171.466 192.596  0.00  0.00    +0.057 HD
ATOM     48  H   UNL     1     148.872 171.354 192.066  0.00  0.00    +0.034 HD
ATOM     49  H   UNL     1     148.538 171.849 190.415  0.00  0.00    +0.034 HD
ATOM     50  H   UNL     1     148.842 169.529 190.254  0.00  0.00    +0.074 HD
ATOM     51  H   UNL     1     145.811 169.687 190.572  0.00  0.00    +0.036 HD
ATOM     52  H   UNL     1     146.912 167.398 190.551  0.00  0.00    +0.060 HD
ENDROOT
BRANCH   1  53
ATOM     53  C   UNL     1     145.063 167.757 187.638  0.00  0.00    -0.060 C 
ATOM     54  H   UNL     1     145.450 168.756 187.434  0.00  0.00    +0.023 HD
ATOM     55  H   UNL     1     143.987 167.801 187.455  0.00  0.00    +0.023 HD
ATOM     56  H   UNL     1     145.508 167.093 186.896  0.00  0.00    +0.023 HD
ENDBRANCH   1  53
BRANCH   5  57
ATOM     57  C   UNL     1     141.566 165.929 186.718  0.00  0.00    -0.041 C 
ATOM     58  H   UNL     1     140.640 165.362 186.601  0.00  0.00    +0.028 HD
ATOM     59  H   UNL     1     141.543 166.716 185.957  0.00  0.00    +0.028 HD
ATOM     60  H   UNL     1     142.391 165.245 186.489  0.00  0.00    +0.028 HD
ENDBRANCH   5  57
BRANCH  24  61
ATOM     61  C   UNL     1     146.659 170.350 188.711  0.00  0.00    -0.057 C 
ATOM     62  H   UNL     1     146.658 171.412 188.968  0.00  0.00    +0.023 HD
ATOM     63  H   UNL     1     145.777 170.143 188.094  0.00  0.00    +0.023 HD
ATOM     64  H   UNL     1     147.534 170.208 188.073  0.00  0.00    +0.023 HD
ENDBRANCH  24  61
BRANCH   8  65
ATOM     65  C   UNL     1     140.206 170.503 186.012  0.00  0.00    -0.062 C 
ATOM     66  H   UNL     1     139.451 171.131 186.494  0.00  0.00    +0.023 HD
ATOM     67  H   UNL     1     140.810 171.139 185.354  0.00  0.00    +0.023 HD
ATOM     68  H   UNL     1     139.682 169.778 185.380  0.00  0.00    +0.023 HD
ENDBRANCH   8  65
BRANCH  14  69
ATOM     69  C   UNL     1     140.108 174.789 192.462  0.00  0.00    +0.020 C 
ATOM     70  H   UNL     1     139.292 174.755 191.735  0.00  0.00    +0.036 HD
BRANCH  69  71
ATOM     71  C   UNL     1     140.201 173.355 193.008  0.00  0.00    -0.057 C 
ATOM     72  H   UNL     1     140.686 173.333 193.990  0.00  0.00    +0.023 HD
ATOM     73  H   UNL     1     139.208 172.913 193.139  0.00  0.00    +0.023 HD
ATOM     74  H   UNL     1     140.781 172.713 192.338  0.00  0.00    +0.023 HD
ENDBRANCH  69  71
BRANCH  69  75
ATOM     75  C   UNL     1     139.709 175.746 193.624  0.00  0.00    +0.064 C 
ATOM     76  H   UNL     1     139.699 175.151 194.546  0.00  0.00    +0.060 HD
BRANCH  75  77
ATOM     77  C   UNL     1     138.301 176.385 193.442  0.00  0.00    -0.017 C 
ATOM     78  H   UNL     1     138.390 177.446 193.706  0.00  0.00    +0.032 HD
BRANCH  77  79
ATOM     79  C   UNL     1     137.881 176.361 191.965  0.00  0.00    -0.060 C 
ATOM     80  H   UNL     1     138.697 176.058 191.304  0.00  0.00    +0.023 HD
ATOM     81  H   UNL     1     137.551 177.356 191.647  0.00  0.00    +0.023 HD
ATOM     82  H   UNL     1     137.043 175.673 191.810  0.00  0.00    +0.023 HD
ENDBRANCH  77  79
BRANCH  77  83
ATOM     83  C   UNL     1     137.170 175.817 194.344  0.00  0.00    -0.045 C 
ATOM     84  H   UNL     1     136.309 175.613 193.696  0.00  0.00    +0.027 HD
ATOM     85  H   UNL     1     136.839 176.591 195.043  0.00  0.00    +0.027 HD
BRANCH  83  86
ATOM     86  C   UNL     1     137.493 174.544 195.145  0.00  0.00    -0.015 C 
ATOM     87  H   UNL     1     138.198 173.934 194.571  0.00  0.00    +0.030 HD
ATOM     88  H   UNL     1     137.964 174.826 196.090  0.00  0.00    +0.030 HD
BRANCH  86  89
ATOM     89  C   UNL     1     136.237 173.703 195.472  0.00  0.00    +0.109 C 
ATOM     90  H   UNL     1     136.518 172.643 195.447  0.00  0.00    +0.074 HD
BRANCH  89  91
ATOM     91  C   UNL     1     135.098 173.924 194.430  0.00  0.00    +0.031 C 
ATOM     92  H   UNL     1     135.548 174.500 193.609  0.00  0.00    +0.037 HD
BRANCH  91  93
ATOM     93  C   UNL     1     133.940 174.747 195.013  0.00  0.00    -0.056 C 
ATOM     94  H   UNL     1     133.994 174.804 196.104  0.00  0.00    +0.023 HD
ATOM     95  H   UNL     1     132.969 174.318 194.743  0.00  0.00    +0.023 HD
ATOM     96  H   UNL     1     133.961 175.781 194.658  0.00  0.00    +0.023 HD
ENDBRANCH  91  93
BRANCH  91  97
ATOM     97  C   UNL     1     134.579 172.565 193.854  0.00  0.00    +0.115 C 
ATOM     98  H   UNL     1     133.499 172.667 193.684  0.00  0.00    +0.074 HD
BRANCH  97  99
ATOM     99  C   UNL     1     135.247 172.154 192.505  0.00  0.00    +0.013 C 
ATOM    100  H   UNL     1     135.961 171.349 192.717  0.00  0.00    +0.038 HD
BRANCH  99 101
ATOM    101  C   UNL     1     136.069 173.291 191.881  0.00  0.00    -0.056 C 
ATOM    102  H   UNL     1     136.377 174.009 192.650  0.00  0.00    +0.024 HD
ATOM    103  H   UNL     1     136.981 172.924 191.395  0.00  0.00    +0.024 HD
ATOM    104  H   UNL     1     135.475 173.836 191.140  0.00  0.00    +0.024 HD
ENDBRANCH  99 101
BRANCH  99 105
ATOM    105  C   UNL     1     134.236 171.674 191.485  0.00  0.00    -0.064 C 
ATOM    106  C   UNL     1     134.135 170.394 191.097  0.00  0.00    -0.005 C 
ATOM    107  H   UNL     1     133.570 172.436 191.089  0.00  0.00    +0.059 HD
ATOM    108  H   UNL     1     134.818 169.652 191.510  0.00  0.00    +0.078 HD
BRANCH 106 109
ATOM    109  N   UNL     1     133.213 169.894 190.188  0.00  0.00    -0.284 N 
ATOM    110  C   UNL     1     131.966 169.460 190.636  0.00  0.00    +0.206 C 
ATOM    111  O   UNL     1     131.556 169.477 191.792  0.00  0.00    -0.279 OA
ATOM    112  H   UNL     1     131.333 169.077 189.819  0.00  0.00    +0.126 HD
BRANCH 109 113
ATOM    113  C   UNL     1     133.516 169.820 188.767  0.00  0.00    +0.007 C 
ATOM    114  H   UNL     1     134.595 169.691 188.633  0.00  0.00    +0.043 HD
ATOM    115  H   UNL     1     133.007 168.973 188.295  0.00  0.00    +0.043 HD
ATOM    116  H   UNL     1     133.180 170.738 188.273  0.00  0.00    +0.043 HD
ENDBRANCH 109 113
ENDBRANCH 106 109
ENDBRANCH  99 105
ENDBRANCH  97  99
BRANCH  97 117
ATOM    117  O   UNL     1     134.833 171.538 194.849  0.00  0.00    -0.461 OA
BRANCH 117 118
ATOM    118  C   UNL     1     133.840 170.630 195.064  0.00  0.00    +0.304 C 
ATOM    119  O   UNL     1     133.707 169.566 194.478  0.00  0.00    -0.251 OA
BRANCH 118 120
ATOM    120  C   UNL     1     132.946 171.093 196.172  0.00  0.00    +0.033 C 
ATOM    121  H   UNL     1     133.038 170.427 197.035  0.00  0.00    +0.034 HD
ATOM    122  H   UNL     1     133.251 172.096 196.484  0.00  0.00    +0.034 HD
ATOM    123  H   UNL     1     131.914 171.130 195.817  0.00  0.00    +0.034 HD
ENDBRANCH 118 120
ENDBRANCH 117 118
ENDBRANCH  97 117
ENDBRANCH  91  97
ENDBRANCH  89  91
BRANCH  89 124
ATOM    124  O   UNL     1     135.742 174.088 196.771  0.00  0.00    -0.460 OA
BRANCH 124 125
ATOM    125  C   UNL     1     136.080 173.315 197.841  0.00  0.00    +0.324 C 
ATOM    126  O   UNL     1     136.568 172.191 197.753  0.00  0.00    -0.249 OA
BRANCH 125 127
ATOM    127  C   UNL     1     135.719 173.971 199.188  0.00  0.00    +0.105 C 
ATOM    128  H   UNL     1     134.710 174.390 199.077  0.00  0.00    +0.058 HD
BRANCH 127 129
ATOM    129  C   UNL     1     136.707 175.128 199.379  0.00  0.00    -0.039 C 
ATOM    130  H   UNL     1     137.688 174.762 199.696  0.00  0.00    +0.025 HD
ATOM    131  H   UNL     1     136.841 175.674 198.439  0.00  0.00    +0.025 HD
ATOM    132  H   UNL     1     136.351 175.855 200.115  0.00  0.00    +0.025 HD
ENDBRANCH 127 129
BRANCH 127 133
ATOM    133  N   UNL     1     135.705 172.994 200.321  0.00  0.00    -0.296 NA
BRANCH 133 134
ATOM    134  C   UNL     1     134.381 172.940 200.954  0.00  0.00    -0.012 C 
ATOM    135  H   UNL     1     133.934 173.934 201.040  0.00  0.00    +0.039 HD
ATOM    136  H   UNL     1     134.426 172.492 201.954  0.00  0.00    +0.039 HD
ATOM    137  H   UNL     1     133.689 172.347 200.342  0.00  0.00    +0.039 HD
ENDBRANCH 133 134
BRANCH 133 138
ATOM    138  C   UNL     1     136.707 173.316 201.343  0.00  0.00    -0.012 C 
ATOM    139  H   UNL     1     136.352 174.124 201.995  0.00  0.00    +0.039 HD
ATOM    140  H   UNL     1     136.890 172.462 202.004  0.00  0.00    +0.039 HD
ATOM    141  H   UNL     1     137.659 173.631 200.897  0.00  0.00    +0.039 HD
ENDBRANCH 133 138
ENDBRANCH 127 133
ENDBRANCH 125 127
ENDBRANCH 124 125
ENDBRANCH  89 124
ENDBRANCH  86  89
ENDBRANCH  83  86
ENDBRANCH  77  83
ENDBRANCH  75  77
BRANCH  75 142
ATOM    142  O   UNL     1     140.695 176.746 193.841  0.00  0.00    -0.391 OA
ATOM    143  H   UNL     1     141.565 176.311 193.861  0.00  0.00    +0.210 HD
ENDBRANCH  75 142
ENDBRANCH  69  75
ENDBRANCH  14  69
BRANCH  25 144
ATOM    144  O   UNL     1     147.794 167.668 188.754  0.00  0.00    -0.391 OA
ATOM    145  H   UNL     1     147.526 167.915 187.854  0.00  0.00    +0.210 HD
ENDBRANCH  25 144
BRANCH  23 146
ATOM    146  O   UNL     1     147.900 169.018 192.060  0.00  0.00    -0.460 OA
BRANCH 146 147
ATOM    147  C   UNL     1     148.826 168.013 192.148  0.00  0.00    +0.327 C 
ATOM    148  O   UNL     1     148.673 166.979 192.794  0.00  0.00    -0.249 OA
BRANCH 147 149
ATOM    149  C   UNL     1     150.095 168.368 191.358  0.00  0.00    +0.131 C 
ATOM    150  H   UNL     1     149.801 169.054 190.553  0.00  0.00    +0.060 HD
BRANCH 149 151
ATOM    151  C   UNL     1     150.602 167.084 190.678  0.00  0.00    +0.073 C 
ATOM    152  H   UNL     1     151.599 166.831 191.058  0.00  0.00    +0.058 HD
ATOM    153  H   UNL     1     149.934 166.235 190.865  0.00  0.00    +0.058 HD
BRANCH 151 154
ATOM    154  O   UNL     1     150.717 167.316 189.267  0.00  0.00    -0.381 OA
BRANCH 154 155
ATOM    155  C   UNL     1     152.074 167.316 188.846  0.00  0.00    +0.037 C 
ATOM    156  H   UNL     1     152.742 167.131 189.693  0.00  0.00    +0.052 HD
ATOM    157  H   UNL     1     152.306 168.300 188.429  0.00  0.00    +0.052 HD
ATOM    158  H   UNL     1     152.235 166.565 188.067  0.00  0.00    +0.052 HD
ENDBRANCH 154 155
ENDBRANCH 151 154
ENDBRANCH 149 151
BRANCH 149 159
ATOM    159  N   UNL     1     151.163 168.999 192.194  0.00  0.00    -0.294 NA
BRANCH 159 160
ATOM    160  C   UNL     1     152.230 168.051 192.506  0.00  0.00    -0.012 C 
ATOM    161  H   UNL     1     152.791 167.737 191.622  0.00  0.00    +0.039 HD
ATOM    162  H   UNL     1     151.813 167.166 192.989  0.00  0.00    +0.039 HD
ATOM    163  H   UNL     1     152.938 168.481 193.222  0.00  0.00    +0.039 HD
ENDBRANCH 159 160
BRANCH 159 164
ATOM    164  C   UNL     1     151.707 170.232 191.625  0.00  0.00    -0.012 C 
ATOM    165  H   UNL     1     152.763 170.381 191.877  0.00  0.00    +0.039 HD
ATOM    166  H   UNL     1     151.153 171.099 192.000  0.00  0.00    +0.039 HD
ATOM    167  H   UNL     1     151.602 170.248 190.536  0.00  0.00    +0.039 HD
ENDBRANCH 159 164
ENDBRANCH 149 159
ENDBRANCH 147 149
ENDBRANCH 146 147
ENDBRANCH  23 146
BRANCH   4 168
ATOM    168  O   UNL     1     143.608 164.981 188.281  0.00  0.00    -0.376 OA
BRANCH 168 169
ATOM    169  C   UNL     1     143.891 163.670 188.756  0.00  0.00    +0.037 C 
ATOM    170  H   UNL     1     144.584 163.198 188.054  0.00  0.00    +0.052 HD
ATOM    171  H   UNL     1     142.972 163.080 188.790  0.00  0.00    +0.052 HD
ATOM    172  H   UNL     1     144.362 163.701 189.742  0.00  0.00    +0.052 HD
ENDBRANCH 168 169
ENDBRANCH   4 168
BRANCH  10 173
ATOM    173  O   UNL     1     140.445 170.500 190.094  0.00  0.00    -0.376 OA
BRANCH 173 174
ATOM    174  C   UNL     1     139.127 170.571 190.630  0.00  0.00    +0.037 C 
ATOM    175  H   UNL     1     138.478 171.029 189.880  0.00  0.00    +0.052 HD
ATOM    176  H   UNL     1     138.746 169.571 190.848  0.00  0.00    +0.052 HD
ATOM    177  H   UNL     1     139.105 171.193 191.532  0.00  0.00    +0.052 HD
ENDBRANCH 173 174
ENDBRANCH  10 173
TORSDOF 45
ENDMDL
MODEL 8
REMARK VINA RESULT:      -4.6      1.284      4.422
REMARK  Name = Aplyronine A_conf1
REMARK  45 active torsions:
REMARK  status: ('A' for Active; 'I' for Inactive)
REMARK    1  A    between atoms: C_1  and  C_2
REMARK    2  A    between atoms: C_5  and  O_75
REMARK    3  A    between atoms: C_6  and  C_74
REMARK    4  A    between atoms: C_9  and  C_73
REMARK    5  A    between atoms: C_11  and  O_71
REMARK    6  A    between atoms: C_15  and  C_39
REMARK    7  A    between atoms: C_24  and  O_29
REMARK    8  A    between atoms: C_25  and  C_28
REMARK    9  A    between atoms: C_26  and  O_27
REMARK   10  A    between atoms: O_29  and  C_30
REMARK   11  A    between atoms: C_30  and  C_32
REMARK   12  A    between atoms: C_32  and  C_33
REMARK   13  A    between atoms: C_32  and  N_36
REMARK   14  A    between atoms: C_33  and  O_34
REMARK   15  A    between atoms: O_34  and  C_35
REMARK   16  A    between atoms: N_36  and  C_37
REMARK   17  A    between atoms: N_36  and  C_38
REMARK   18  A    between atoms: C_39  and  C_40
REMARK   19  A    between atoms: C_39  and  C_41
REMARK   20  A    between atoms: C_41  and  C_42
REMARK   21  A    between atoms: C_41  and  O_70
REMARK   22  A    between atoms: C_42  and  C_43
REMARK   23  A    between atoms: C_42  and  C_44
REMARK   24  A    between atoms: C_44  and  C_45
REMARK   25  A    between atoms: C_45  and  C_46
REMARK   26  A    between atoms: C_46  and  C_47
REMARK   27  A    between atoms: C_46  and  O_62
REMARK   28  A    between atoms: C_47  and  C_48
REMARK   29  A    between atoms: C_47  and  C_49
REMARK   30  A    between atoms: C_49  and  C_50
REMARK   31  A    between atoms: C_49  and  O_58
REMARK   32  A    between atoms: C_50  and  C_51
REMARK   33  A    between atoms: C_50  and  C_52
REMARK   34  A    between atoms: C_53  and  N_54
REMARK   35  A    between atoms: N_54  and  C_55
REMARK   36  A    between atoms: O_58  and  C_59
REMARK   37  A    between atoms: C_59  and  C_61
REMARK   38  A    between atoms: O_62  and  C_63
REMARK   39  A    between atoms: C_63  and  C_65
REMARK   40  A    between atoms: C_65  and  C_66
REMARK   41  A    between atoms: C_65  and  N_67
REMARK   42  A    between atoms: N_67  and  C_68
REMARK   43  A    between atoms: N_67  and  C_69
REMARK   44  A    between atoms: O_71  and  C_72
REMARK   45  A    between atoms: O_75  and  C_76
REMARK                            x       y       z     vdW  Elec       q    Type
REMARK                         _______ _______ _______ _____ _____    ______ ____
ROOT
ATOM      1  C   UNL     1     145.423 167.313 189.086  0.00  0.00    -0.017 C 
ATOM      2  C   UNL     1     144.233 167.513 190.046  0.00  0.00    -0.045 C 
ATOM      3  C   UNL     1     143.309 166.298 190.277  0.00  0.00    -0.022 C 
ATOM      4  C   UNL     1     142.646 165.608 189.066  0.00  0.00    +0.079 C 
ATOM      5  C   UNL     1     141.793 166.461 188.120  0.00  0.00    -0.048 C 
ATOM      6  C   UNL     1     141.215 167.623 188.497  0.00  0.00    -0.082 C 
ATOM      7  C   UNL     1     140.327 168.523 187.678  0.00  0.00    -0.032 C 
ATOM      8  C   UNL     1     141.081 169.712 187.054  0.00  0.00    -0.038 C 
ATOM      9  C   UNL     1     141.665 170.738 188.059  0.00  0.00    -0.020 C 
ATOM     10  C   UNL     1     140.656 171.365 189.044  0.00  0.00    +0.077 C 
ATOM     11  C   UNL     1     141.232 172.631 189.632  0.00  0.00    -0.059 C 
ATOM     12  C   UNL     1     140.655 173.843 189.547  0.00  0.00    -0.082 C 
ATOM     13  C   UNL     1     141.206 175.118 190.150  0.00  0.00    +0.003 C 
ATOM     14  C   UNL     1     141.324 175.172 191.699  0.00  0.00    +0.112 C 
ATOM     15  O   UNL     1     142.460 174.328 192.011  0.00  0.00    -0.458 OA
ATOM     16  C   UNL     1     143.394 174.816 192.866  0.00  0.00    +0.332 C 
ATOM     17  O   UNL     1     143.270 175.763 193.623  0.00  0.00    -0.246 OA
ATOM     18  C   UNL     1     144.659 174.066 192.719  0.00  0.00    +0.022 C 
ATOM     19  C   UNL     1     145.067 173.685 191.501  0.00  0.00    -0.055 C 
ATOM     20  C   UNL     1     146.332 173.075 191.179  0.00  0.00    -0.065 C 
ATOM     21  C   UNL     1     146.839 171.978 191.755  0.00  0.00    -0.081 C 
ATOM     22  C   UNL     1     148.109 171.330 191.250  0.00  0.00    +0.003 C 
ATOM     23  C   UNL     1     147.956 169.845 190.835  0.00  0.00    +0.111 C 
ATOM     24  C   UNL     1     146.705 169.489 189.970  0.00  0.00    +0.020 C 
ATOM     25  C   UNL     1     146.722 167.970 189.639  0.00  0.00    +0.064 C 
ATOM     26  H   UNL     1     145.658 166.242 189.034  0.00  0.00    +0.032 HD
ATOM     27  H   UNL     1     143.645 168.381 189.739  0.00  0.00    +0.027 HD
ATOM     28  H   UNL     1     144.619 167.769 191.042  0.00  0.00    +0.027 HD
ATOM     29  H   UNL     1     143.907 165.548 190.811  0.00  0.00    +0.029 HD
ATOM     30  H   UNL     1     142.523 166.608 190.979  0.00  0.00    +0.029 HD
ATOM     31  H   UNL     1     141.960 164.845 189.461  0.00  0.00    +0.064 HD
ATOM     32  H   UNL     1     141.357 167.983 189.513  0.00  0.00    +0.057 HD
ATOM     33  H   UNL     1     139.504 168.873 188.310  0.00  0.00    +0.031 HD
ATOM     34  H   UNL     1     139.830 167.951 186.890  0.00  0.00    +0.031 HD
ATOM     35  H   UNL     1     141.937 169.307 186.495  0.00  0.00    +0.030 HD
ATOM     36  H   UNL     1     142.148 171.532 187.475  0.00  0.00    +0.030 HD
ATOM     37  H   UNL     1     142.466 170.248 188.628  0.00  0.00    +0.030 HD
ATOM     38  H   UNL     1     139.712 171.572 188.529  0.00  0.00    +0.064 HD
ATOM     39  H   UNL     1     142.171 172.512 190.169  0.00  0.00    +0.059 HD
ATOM     40  H   UNL     1     139.708 173.945 189.020  0.00  0.00    +0.057 HD
ATOM     41  H   UNL     1     140.588 175.947 189.786  0.00  0.00    +0.034 HD
ATOM     42  H   UNL     1     142.198 175.286 189.709  0.00  0.00    +0.034 HD
ATOM     43  H   UNL     1     141.567 176.208 191.972  0.00  0.00    +0.074 HD
ATOM     44  H   UNL     1     145.267 173.961 193.610  0.00  0.00    +0.069 HD
ATOM     45  H   UNL     1     144.455 173.913 190.629  0.00  0.00    +0.062 HD
ATOM     46  H   UNL     1     146.845 173.521 190.326  0.00  0.00    +0.061 HD
ATOM     47  H   UNL     1     146.335 171.489 192.588  0.00  0.00    +0.057 HD
ATOM     48  H   UNL     1     148.854 171.410 192.053  0.00  0.00    +0.034 HD
ATOM     49  H   UNL     1     148.510 171.893 190.400  0.00  0.00    +0.034 HD
ATOM     50  H   UNL     1     148.846 169.577 190.249  0.00  0.00    +0.074 HD
ATOM     51  H   UNL     1     145.814 169.694 190.573  0.00  0.00    +0.036 HD
ATOM     52  H   UNL     1     146.947 167.420 190.560  0.00  0.00    +0.060 HD
ENDROOT
BRANCH   1  53
ATOM     53  C   UNL     1     145.086 167.741 187.650  0.00  0.00    -0.060 C 
ATOM     54  H   UNL     1     144.563 168.697 187.637  0.00  0.00    +0.023 HD
ATOM     55  H   UNL     1     144.431 167.025 187.149  0.00  0.00    +0.023 HD
ATOM     56  H   UNL     1     145.982 167.868 187.040  0.00  0.00    +0.023 HD
ENDBRANCH   1  53
BRANCH   5  57
ATOM     57  C   UNL     1     141.614 165.859 186.745  0.00  0.00    -0.041 C 
ATOM     58  H   UNL     1     141.536 166.599 185.945  0.00  0.00    +0.028 HD
ATOM     59  H   UNL     1     142.464 165.218 186.490  0.00  0.00    +0.028 HD
ATOM     60  H   UNL     1     140.699 165.256 186.715  0.00  0.00    +0.028 HD
ENDBRANCH   5  57
BRANCH  24  61
ATOM     61  C   UNL     1     146.649 170.360 188.707  0.00  0.00    -0.057 C 
ATOM     62  H   UNL     1     147.441 170.091 188.005  0.00  0.00    +0.023 HD
ATOM     63  H   UNL     1     146.741 171.428 188.940  0.00  0.00    +0.023 HD
ATOM     64  H   UNL     1     145.717 170.235 188.153  0.00  0.00    +0.023 HD
ENDBRANCH  24  61
BRANCH   8  65
ATOM     65  C   UNL     1     140.188 170.411 186.022  0.00  0.00    -0.062 C 
ATOM     66  H   UNL     1     140.304 169.974 185.026  0.00  0.00    +0.023 HD
ATOM     67  H   UNL     1     139.131 170.338 186.306  0.00  0.00    +0.023 HD
ATOM     68  H   UNL     1     140.438 171.475 185.951  0.00  0.00    +0.023 HD
ENDBRANCH   8  65
BRANCH  14  69
ATOM     69  C   UNL     1     140.044 174.723 192.454  0.00  0.00    +0.020 C 
ATOM     70  H   UNL     1     139.267 174.527 191.710  0.00  0.00    +0.036 HD
BRANCH  69  71
ATOM     71  C   UNL     1     140.231 173.382 193.182  0.00  0.00    -0.057 C 
ATOM     72  H   UNL     1     141.264 173.257 193.527  0.00  0.00    +0.023 HD
ATOM     73  H   UNL     1     139.595 173.320 194.070  0.00  0.00    +0.023 HD
ATOM     74  H   UNL     1     139.997 172.539 192.526  0.00  0.00    +0.023 HD
ENDBRANCH  69  71
BRANCH  69  75
ATOM     75  C   UNL     1     139.515 175.780 193.469  0.00  0.00    +0.064 C 
ATOM     76  H   UNL     1     139.417 175.277 194.439  0.00  0.00    +0.060 HD
BRANCH  75  77
ATOM     77  C   UNL     1     138.125 176.365 193.082  0.00  0.00    -0.017 C 
ATOM     78  H   UNL     1     138.182 177.452 193.219  0.00  0.00    +0.032 HD
BRANCH  77  79
ATOM     79  C   UNL     1     137.841 176.149 191.589  0.00  0.00    -0.060 C 
ATOM     80  H   UNL     1     138.246 176.953 190.968  0.00  0.00    +0.023 HD
ATOM     81  H   UNL     1     136.761 176.106 191.409  0.00  0.00    +0.023 HD
ATOM     82  H   UNL     1     138.270 175.203 191.243  0.00  0.00    +0.023 HD
ENDBRANCH  77  79
BRANCH  77  83
ATOM     83  C   UNL     1     136.920 175.892 193.943  0.00  0.00    -0.045 C 
ATOM     84  H   UNL     1     136.007 176.159 193.399  0.00  0.00    +0.027 HD
ATOM     85  H   UNL     1     136.890 176.468 194.874  0.00  0.00    +0.027 HD
BRANCH  83  86
ATOM     86  C   UNL     1     136.861 174.396 194.296  0.00  0.00    -0.015 C 
ATOM     87  H   UNL     1     136.551 173.836 193.407  0.00  0.00    +0.030 HD
ATOM     88  H   UNL     1     137.858 174.058 194.591  0.00  0.00    +0.030 HD
BRANCH  86  89
ATOM     89  C   UNL     1     135.890 174.089 195.459  0.00  0.00    +0.109 C 
ATOM     90  H   UNL     1     135.156 174.902 195.516  0.00  0.00    +0.074 HD
BRANCH  89  91
ATOM     91  C   UNL     1     136.627 174.008 196.831  0.00  0.00    +0.031 C 
ATOM     92  H   UNL     1     137.651 174.361 196.643  0.00  0.00    +0.037 HD
BRANCH  91  93
ATOM     93  C   UNL     1     136.707 172.566 197.354  0.00  0.00    -0.056 C 
ATOM     94  H   UNL     1     135.907 171.942 196.942  0.00  0.00    +0.023 HD
ATOM     95  H   UNL     1     136.635 172.533 198.447  0.00  0.00    +0.023 HD
ATOM     96  H   UNL     1     137.643 172.083 197.063  0.00  0.00    +0.023 HD
ENDBRANCH  91  93
BRANCH  91  97
ATOM     97  C   UNL     1     135.965 174.948 197.891  0.00  0.00    +0.115 C 
ATOM     98  H   UNL     1     135.887 174.386 198.831  0.00  0.00    +0.074 HD
BRANCH  97  99
ATOM     99  C   UNL     1     136.774 176.253 198.171  0.00  0.00    +0.013 C 
ATOM    100  H   UNL     1     136.174 177.100 197.817  0.00  0.00    +0.038 HD
BRANCH  99 101
ATOM    101  C   UNL     1     138.091 176.314 197.384  0.00  0.00    -0.056 C 
ATOM    102  H   UNL     1     138.003 175.757 196.444  0.00  0.00    +0.024 HD
ATOM    103  H   UNL     1     138.374 177.341 197.128  0.00  0.00    +0.024 HD
ATOM    104  H   UNL     1     138.906 175.862 197.959  0.00  0.00    +0.024 HD
ENDBRANCH  99 101
BRANCH  99 105
ATOM    105  C   UNL     1     137.082 176.435 199.643  0.00  0.00    -0.064 C 
ATOM    106  C   UNL     1     136.774 175.522 200.576  0.00  0.00    -0.005 C 
ATOM    107  H   UNL     1     137.593 177.357 199.905  0.00  0.00    +0.059 HD
ATOM    108  H   UNL     1     136.258 174.608 200.284  0.00  0.00    +0.078 HD
BRANCH 106 109
ATOM    109  N   UNL     1     137.054 175.624 201.931  0.00  0.00    -0.284 N 
ATOM    110  C   UNL     1     137.298 174.470 202.674  0.00  0.00    +0.206 C 
ATOM    111  O   UNL     1     137.309 173.317 202.256  0.00  0.00    -0.279 OA
ATOM    112  H   UNL     1     137.497 174.685 203.737  0.00  0.00    +0.126 HD
BRANCH 109 113
ATOM    113  C   UNL     1     137.109 176.915 202.598  0.00  0.00    +0.007 C 
ATOM    114  H   UNL     1     137.668 177.621 201.975  0.00  0.00    +0.043 HD
ATOM    115  H   UNL     1     136.105 177.322 202.761  0.00  0.00    +0.043 HD
ATOM    116  H   UNL     1     137.595 176.804 203.573  0.00  0.00    +0.043 HD
ENDBRANCH 109 113
ENDBRANCH 106 109
ENDBRANCH  99 105
ENDBRANCH  97  99
BRANCH  97 117
ATOM    117  O   UNL     1     134.641 175.297 197.407  0.00  0.00    -0.461 OA
BRANCH 117 118
ATOM    118  C   UNL     1     133.581 174.733 198.051  0.00  0.00    +0.304 C 
ATOM    119  O   UNL     1     133.014 173.701 197.723  0.00  0.00    -0.251 OA
BRANCH 118 120
ATOM    120  C   UNL     1     133.228 175.532 199.266  0.00  0.00    +0.033 C 
ATOM    121  H   UNL     1     134.107 175.654 199.906  0.00  0.00    +0.034 HD
ATOM    122  H   UNL     1     132.894 176.526 198.957  0.00  0.00    +0.034 HD
ATOM    123  H   UNL     1     132.419 175.037 199.807  0.00  0.00    +0.034 HD
ENDBRANCH 118 120
ENDBRANCH 117 118
ENDBRANCH  97 117
ENDBRANCH  91  97
ENDBRANCH  89  91
BRANCH  89 124
ATOM    124  O   UNL     1     135.253 172.819 195.212  0.00  0.00    -0.460 OA
BRANCH 124 125
ATOM    125  C   UNL     1     134.159 172.797 194.400  0.00  0.00    +0.324 C 
ATOM    126  O   UNL     1     133.278 173.653 194.404  0.00  0.00    -0.249 OA
BRANCH 125 127
ATOM    127  C   UNL     1     134.101 171.538 193.512  0.00  0.00    +0.105 C 
ATOM    128  H   UNL     1     133.144 171.572 192.976  0.00  0.00    +0.058 HD
BRANCH 127 129
ATOM    129  C   UNL     1     134.080 170.340 194.467  0.00  0.00    -0.039 C 
ATOM    130  H   UNL     1     134.523 170.597 195.434  0.00  0.00    +0.025 HD
ATOM    131  H   UNL     1     133.051 170.012 194.647  0.00  0.00    +0.025 HD
ATOM    132  H   UNL     1     134.616 169.478 194.058  0.00  0.00    +0.025 HD
ENDBRANCH 127 129
BRANCH 127 133
ATOM    133  N   UNL     1     135.207 171.490 192.505  0.00  0.00    -0.296 NA
BRANCH 133 134
ATOM    134  C   UNL     1     135.067 172.568 191.516  0.00  0.00    -0.012 C 
ATOM    135  H   UNL     1     134.649 172.200 190.575  0.00  0.00    +0.039 HD
ATOM    136  H   UNL     1     136.027 173.051 191.303  0.00  0.00    +0.039 HD
ATOM    137  H   UNL     1     134.369 173.332 191.881  0.00  0.00    +0.039 HD
ENDBRANCH 133 134
BRANCH 133 138
ATOM    138  C   UNL     1     135.261 170.205 191.802  0.00  0.00    -0.012 C 
ATOM    139  H   UNL     1     135.087 169.373 192.496  0.00  0.00    +0.039 HD
ATOM    140  H   UNL     1     134.469 170.130 191.048  0.00  0.00    +0.039 HD
ATOM    141  H   UNL     1     136.231 170.046 191.314  0.00  0.00    +0.039 HD
ENDBRANCH 133 138
ENDBRANCH 127 133
ENDBRANCH 125 127
ENDBRANCH 124 125
ENDBRANCH  89 124
ENDBRANCH  86  89
ENDBRANCH  83  86
ENDBRANCH  77  83
ENDBRANCH  75  77
BRANCH  75 142
ATOM    142  O   UNL     1     140.460 176.819 193.684  0.00  0.00    -0.391 OA
ATOM    143  H   UNL     1     140.886 177.018 192.833  0.00  0.00    +0.210 HD
ENDBRANCH  75 142
ENDBRANCH  69  75
ENDBRANCH  14  69
BRANCH  25 144
ATOM    144  O   UNL     1     147.821 167.694 188.759  0.00  0.00    -0.391 OA
ATOM    145  H   UNL     1     147.454 167.421 187.903  0.00  0.00    +0.210 HD
ENDBRANCH  25 144
BRANCH  23 146
ATOM    146  O   UNL     1     147.915 169.061 192.059  0.00  0.00    -0.460 OA
BRANCH 146 147
ATOM    147  C   UNL     1     149.027 168.299 192.303  0.00  0.00    +0.327 C 
ATOM    148  O   UNL     1     150.183 168.705 192.217  0.00  0.00    -0.249 OA
BRANCH 147 149
ATOM    149  C   UNL     1     148.632 166.858 192.665  0.00  0.00    +0.131 C 
ATOM    150  H   UNL     1     148.374 166.342 191.731  0.00  0.00    +0.060 HD
BRANCH 149 151
ATOM    151  C   UNL     1     147.345 166.919 193.506  0.00  0.00    +0.073 C 
ATOM    152  H   UNL     1     147.498 166.400 194.459  0.00  0.00    +0.058 HD
ATOM    153  H   UNL     1     147.046 167.951 193.716  0.00  0.00    +0.058 HD
BRANCH 151 154
ATOM    154  O   UNL     1     146.296 166.239 192.802  0.00  0.00    -0.381 OA
BRANCH 154 155
ATOM    155  C   UNL     1     145.098 166.191 193.567  0.00  0.00    +0.037 C 
ATOM    156  H   UNL     1     145.073 167.006 194.295  0.00  0.00    +0.052 HD
ATOM    157  H   UNL     1     145.073 165.240 194.107  0.00  0.00    +0.052 HD
ATOM    158  H   UNL     1     144.223 166.240 192.914  0.00  0.00    +0.052 HD
ENDBRANCH 154 155
ENDBRANCH 151 154
ENDBRANCH 149 151
BRANCH 149 159
ATOM    159  N   UNL     1     149.711 166.104 193.376  0.00  0.00    -0.294 NA
BRANCH 159 160
ATOM    160  C   UNL     1     149.559 166.191 194.827  0.00  0.00    -0.012 C 
ATOM    161  H   UNL     1     148.514 166.191 195.146  0.00  0.00    +0.039 HD
ATOM    162  H   UNL     1     150.039 167.098 195.199  0.00  0.00    +0.039 HD
ATOM    163  H   UNL     1     150.065 165.357 195.324  0.00  0.00    +0.039 HD
ENDBRANCH 159 160
BRANCH 159 164
ATOM    164  C   UNL     1     149.841 164.712 192.946  0.00  0.00    -0.012 C 
ATOM    165  H   UNL     1     150.524 164.137 193.581  0.00  0.00    +0.039 HD
ATOM    166  H   UNL     1     150.227 164.667 191.922  0.00  0.00    +0.039 HD
ATOM    167  H   UNL     1     148.870 164.208 192.930  0.00  0.00    +0.039 HD
ENDBRANCH 159 164
ENDBRANCH 149 159
ENDBRANCH 147 149
ENDBRANCH 146 147
ENDBRANCH  23 146
BRANCH   4 168
ATOM    168  O   UNL     1     143.672 164.947 188.308  0.00  0.00    -0.376 OA
BRANCH 168 169
ATOM    169  C   UNL     1     143.939 163.624 188.756  0.00  0.00    +0.037 C 
ATOM    170  H   UNL     1     143.989 163.638 189.847  0.00  0.00    +0.052 HD
ATOM    171  H   UNL     1     144.902 163.286 188.366  0.00  0.00    +0.052 HD
ATOM    172  H   UNL     1     143.143 162.937 188.454  0.00  0.00    +0.052 HD
ENDBRANCH 168 169
ENDBRANCH   4 168
BRANCH  10 173
ATOM    173  O   UNL     1     140.436 170.429 190.104  0.00  0.00    -0.376 OA
BRANCH 173 174
ATOM    174  C   UNL     1     139.113 170.472 190.631  0.00  0.00    +0.037 C 
ATOM    175  H   UNL     1     138.441 170.809 189.838  0.00  0.00    +0.052 HD
ATOM    176  H   UNL     1     138.793 169.476 190.948  0.00  0.00    +0.052 HD
ATOM    177  H   UNL     1     139.047 171.178 191.465  0.00  0.00    +0.052 HD
ENDBRANCH 173 174
ENDBRANCH  10 173
TORSDOF 45
ENDMDL
MODEL 9
REMARK VINA RESULT:      -4.6      4.144     12.759
REMARK  Name = Aplyronine A_conf1
REMARK  45 active torsions:
REMARK  status: ('A' for Active; 'I' for Inactive)
REMARK    1  A    between atoms: C_1  and  C_2
REMARK    2  A    between atoms: C_5  and  O_75
REMARK    3  A    between atoms: C_6  and  C_74
REMARK    4  A    between atoms: C_9  and  C_73
REMARK    5  A    between atoms: C_11  and  O_71
REMARK    6  A    between atoms: C_15  and  C_39
REMARK    7  A    between atoms: C_24  and  O_29
REMARK    8  A    between atoms: C_25  and  C_28
REMARK    9  A    between atoms: C_26  and  O_27
REMARK   10  A    between atoms: O_29  and  C_30
REMARK   11  A    between atoms: C_30  and  C_32
REMARK   12  A    between atoms: C_32  and  C_33
REMARK   13  A    between atoms: C_32  and  N_36
REMARK   14  A    between atoms: C_33  and  O_34
REMARK   15  A    between atoms: O_34  and  C_35
REMARK   16  A    between atoms: N_36  and  C_37
REMARK   17  A    between atoms: N_36  and  C_38
REMARK   18  A    between atoms: C_39  and  C_40
REMARK   19  A    between atoms: C_39  and  C_41
REMARK   20  A    between atoms: C_41  and  C_42
REMARK   21  A    between atoms: C_41  and  O_70
REMARK   22  A    between atoms: C_42  and  C_43
REMARK   23  A    between atoms: C_42  and  C_44
REMARK   24  A    between atoms: C_44  and  C_45
REMARK   25  A    between atoms: C_45  and  C_46
REMARK   26  A    between atoms: C_46  and  C_47
REMARK   27  A    between atoms: C_46  and  O_62
REMARK   28  A    between atoms: C_47  and  C_48
REMARK   29  A    between atoms: C_47  and  C_49
REMARK   30  A    between atoms: C_49  and  C_50
REMARK   31  A    between atoms: C_49  and  O_58
REMARK   32  A    between atoms: C_50  and  C_51
REMARK   33  A    between atoms: C_50  and  C_52
REMARK   34  A    between atoms: C_53  and  N_54
REMARK   35  A    between atoms: N_54  and  C_55
REMARK   36  A    between atoms: O_58  and  C_59
REMARK   37  A    between atoms: C_59  and  C_61
REMARK   38  A    between atoms: O_62  and  C_63
REMARK   39  A    between atoms: C_63  and  C_65
REMARK   40  A    between atoms: C_65  and  C_66
REMARK   41  A    between atoms: C_65  and  N_67
REMARK   42  A    between atoms: N_67  and  C_68
REMARK   43  A    between atoms: N_67  and  C_69
REMARK   44  A    between atoms: O_71  and  C_72
REMARK   45  A    between atoms: O_75  and  C_76
REMARK                            x       y       z     vdW  Elec       q    Type
REMARK                         _______ _______ _______ _____ _____    ______ ____
ROOT
ATOM      1  C   UNL     1     140.957 175.664 186.999  0.00  0.00    -0.017 C 
ATOM      2  C   UNL     1     142.471 175.388 187.104  0.00  0.00    -0.045 C 
ATOM      3  C   UNL     1     143.416 176.407 186.431  0.00  0.00    -0.022 C 
ATOM      4  C   UNL     1     143.241 176.729 184.932  0.00  0.00    +0.079 C 
ATOM      5  C   UNL     1     143.282 175.571 183.929  0.00  0.00    -0.048 C 
ATOM      6  C   UNL     1     143.896 174.395 184.188  0.00  0.00    -0.082 C 
ATOM      7  C   UNL     1     144.039 173.206 183.274  0.00  0.00    -0.032 C 
ATOM      8  C   UNL     1     142.989 172.111 183.537  0.00  0.00    -0.038 C 
ATOM      9  C   UNL     1     143.080 171.413 184.919  0.00  0.00    -0.020 C 
ATOM     10  C   UNL     1     144.439 170.766 185.259  0.00  0.00    +0.077 C 
ATOM     11  C   UNL     1     144.266 169.765 186.376  0.00  0.00    -0.059 C 
ATOM     12  C   UNL     1     144.594 168.463 186.291  0.00  0.00    -0.082 C 
ATOM     13  C   UNL     1     144.449 167.451 187.407  0.00  0.00    +0.003 C 
ATOM     14  C   UNL     1     145.301 167.685 188.686  0.00  0.00    +0.112 C 
ATOM     15  O   UNL     1     144.649 168.786 189.366  0.00  0.00    -0.458 OA
ATOM     16  C   UNL     1     144.404 168.653 190.694  0.00  0.00    +0.332 C 
ATOM     17  O   UNL     1     144.907 167.843 191.454  0.00  0.00    -0.246 OA
ATOM     18  C   UNL     1     143.364 169.613 191.119  0.00  0.00    +0.022 C 
ATOM     19  C   UNL     1     142.320 169.859 190.315  0.00  0.00    -0.055 C 
ATOM     20  C   UNL     1     141.164 170.654 190.641  0.00  0.00    -0.065 C 
ATOM     21  C   UNL     1     141.185 171.914 191.094  0.00  0.00    -0.081 C 
ATOM     22  C   UNL     1     139.914 172.715 191.271  0.00  0.00    +0.003 C 
ATOM     23  C   UNL     1     139.873 174.045 190.475  0.00  0.00    +0.111 C 
ATOM     24  C   UNL     1     140.353 173.983 188.990  0.00  0.00    +0.020 C 
ATOM     25  C   UNL     1     140.231 175.394 188.349  0.00  0.00    +0.064 C 
ATOM     26  H   UNL     1     140.806 176.737 186.817  0.00  0.00    +0.032 HD
ATOM     27  H   UNL     1     142.693 174.378 186.752  0.00  0.00    +0.027 HD
ATOM     28  H   UNL     1     142.760 175.390 188.163  0.00  0.00    +0.027 HD
ATOM     29  H   UNL     1     143.318 177.343 186.995  0.00  0.00    +0.029 HD
ATOM     30  H   UNL     1     144.447 176.064 186.599  0.00  0.00    +0.029 HD
ATOM     31  H   UNL     1     144.071 177.390 184.641  0.00  0.00    +0.064 HD
ATOM     32  H   UNL     1     144.383 174.250 185.148  0.00  0.00    +0.057 HD
ATOM     33  H   UNL     1     145.053 172.805 183.377  0.00  0.00    +0.031 HD
ATOM     34  H   UNL     1     143.985 173.521 182.229  0.00  0.00    +0.031 HD
ATOM     35  H   UNL     1     141.997 172.584 183.496  0.00  0.00    +0.030 HD
ATOM     36  H   UNL     1     142.292 170.649 184.954  0.00  0.00    +0.030 HD
ATOM     37  H   UNL     1     142.827 172.147 185.695  0.00  0.00    +0.030 HD
ATOM     38  H   UNL     1     144.856 170.285 184.368  0.00  0.00    +0.064 HD
ATOM     39  H   UNL     1     143.861 170.165 187.303  0.00  0.00    +0.059 HD
ATOM     40  H   UNL     1     145.011 168.080 185.362  0.00  0.00    +0.057 HD
ATOM     41  H   UNL     1     144.662 166.462 186.984  0.00  0.00    +0.034 HD
ATOM     42  H   UNL     1     143.386 167.419 187.685  0.00  0.00    +0.034 HD
ATOM     43  H   UNL     1     145.212 166.783 189.307  0.00  0.00    +0.074 HD
ATOM     44  H   UNL     1     143.436 169.991 192.132  0.00  0.00    +0.069 HD
ATOM     45  H   UNL     1     142.255 169.365 189.346  0.00  0.00    +0.062 HD
ATOM     46  H   UNL     1     140.210 170.186 190.394  0.00  0.00    +0.061 HD
ATOM     47  H   UNL     1     142.121 172.421 191.318  0.00  0.00    +0.057 HD
ATOM     48  H   UNL     1     139.813 172.928 192.344  0.00  0.00    +0.034 HD
ATOM     49  H   UNL     1     139.043 172.112 190.992  0.00  0.00    +0.034 HD
ATOM     50  H   UNL     1     138.829 174.388 190.469  0.00  0.00    +0.074 HD
ATOM     51  H   UNL     1     141.412 173.703 188.993  0.00  0.00    +0.036 HD
ATOM     52  H   UNL     1     140.651 176.126 189.048  0.00  0.00    +0.060 HD
ENDROOT
BRANCH   1  53
ATOM     53  C   UNL     1     140.317 174.940 185.805  0.00  0.00    -0.060 C 
ATOM     54  H   UNL     1     141.047 174.317 185.287  0.00  0.00    +0.023 HD
ATOM     55  H   UNL     1     139.924 175.637 185.062  0.00  0.00    +0.023 HD
ATOM     56  H   UNL     1     139.507 174.278 186.115  0.00  0.00    +0.023 HD
ENDBRANCH   1  53
BRANCH   5  57
ATOM     57  C   UNL     1     142.619 175.882 182.606  0.00  0.00    -0.041 C 
ATOM     58  H   UNL     1     142.862 176.871 182.212  0.00  0.00    +0.028 HD
ATOM     59  H   UNL     1     142.926 175.162 181.841  0.00  0.00    +0.028 HD
ATOM     60  H   UNL     1     141.530 175.837 182.711  0.00  0.00    +0.028 HD
ENDBRANCH   5  57
BRANCH  24  61
ATOM     61  C   UNL     1     139.570 172.918 188.208  0.00  0.00    -0.057 C 
ATOM     62  H   UNL     1     138.837 173.376 187.540  0.00  0.00    +0.023 HD
ATOM     63  H   UNL     1     139.045 172.223 188.873  0.00  0.00    +0.023 HD
ATOM     64  H   UNL     1     140.213 172.316 187.563  0.00  0.00    +0.023 HD
ENDBRANCH  24  61
BRANCH   8  65
ATOM     65  C   UNL     1     143.019 171.078 182.405  0.00  0.00    -0.062 C 
ATOM     66  H   UNL     1     143.603 171.433 181.551  0.00  0.00    +0.023 HD
ATOM     67  H   UNL     1     143.454 170.133 182.748  0.00  0.00    +0.023 HD
ATOM     68  H   UNL     1     142.005 170.865 182.049  0.00  0.00    +0.023 HD
ENDBRANCH   8  65
BRANCH  14  69
ATOM     69  C   UNL     1     146.800 167.980 188.412  0.00  0.00    +0.020 C 
ATOM     70  H   UNL     1     146.992 167.780 187.354  0.00  0.00    +0.036 HD
BRANCH  69  71
ATOM     71  C   UNL     1     147.150 169.465 188.597  0.00  0.00    -0.057 C 
ATOM     72  H   UNL     1     148.104 169.587 189.121  0.00  0.00    +0.023 HD
ATOM     73  H   UNL     1     147.254 169.973 187.634  0.00  0.00    +0.023 HD
ATOM     74  H   UNL     1     146.383 169.983 189.182  0.00  0.00    +0.023 HD
ENDBRANCH  69  71
BRANCH  69  75
ATOM     75  C   UNL     1     147.773 167.120 189.273  0.00  0.00    +0.064 C 
ATOM     76  H   UNL     1     148.255 167.797 189.989  0.00  0.00    +0.060 HD
BRANCH  75  77
ATOM     77  C   UNL     1     148.886 166.425 188.435  0.00  0.00    -0.017 C 
ATOM     78  H   UNL     1     148.928 165.378 188.760  0.00  0.00    +0.032 HD
BRANCH  77  79
ATOM     79  C   UNL     1     148.503 166.383 186.949  0.00  0.00    -0.060 C 
ATOM     80  H   UNL     1     147.591 165.807 186.771  0.00  0.00    +0.023 HD
ATOM     81  H   UNL     1     149.304 165.922 186.362  0.00  0.00    +0.023 HD
ATOM     82  H   UNL     1     148.349 167.394 186.558  0.00  0.00    +0.023 HD
ENDBRANCH  77  79
BRANCH  77  83
ATOM     83  C   UNL     1     150.326 166.982 188.615  0.00  0.00    -0.045 C 
ATOM     84  H   UNL     1     150.234 168.039 188.892  0.00  0.00    +0.027 HD
ATOM     85  H   UNL     1     150.843 166.973 187.650  0.00  0.00    +0.027 HD
BRANCH  83  86
ATOM     86  C   UNL     1     151.220 166.280 189.652  0.00  0.00    -0.015 C 
ATOM     87  H   UNL     1     151.527 165.308 189.253  0.00  0.00    +0.030 HD
ATOM     88  H   UNL     1     152.114 166.886 189.822  0.00  0.00    +0.030 HD
BRANCH  86  89
ATOM     89  C   UNL     1     150.516 166.076 191.013  0.00  0.00    +0.109 C 
ATOM     90  H   UNL     1     149.441 166.242 190.872  0.00  0.00    +0.074 HD
BRANCH  89  91
ATOM     91  C   UNL     1     151.023 167.082 192.091  0.00  0.00    +0.031 C 
ATOM     92  H   UNL     1     151.852 167.632 191.623  0.00  0.00    +0.037 HD
BRANCH  91  93
ATOM     93  C   UNL     1     151.567 166.365 193.335  0.00  0.00    -0.056 C 
ATOM     94  H   UNL     1     151.532 167.008 194.219  0.00  0.00    +0.023 HD
ATOM     95  H   UNL     1     152.605 166.044 193.189  0.00  0.00    +0.023 HD
ATOM     96  H   UNL     1     150.973 165.482 193.583  0.00  0.00    +0.023 HD
ENDBRANCH  91  93
BRANCH  91  97
ATOM     97  C   UNL     1     149.908 168.107 192.484  0.00  0.00    +0.115 C 
ATOM     98  H   UNL     1     150.052 168.365 193.542  0.00  0.00    +0.074 HD
BRANCH  97  99
ATOM     99  C   UNL     1     149.943 169.428 191.653  0.00  0.00    +0.013 C 
ATOM    100  H   UNL     1     149.724 169.172 190.609  0.00  0.00    +0.038 HD
BRANCH  99 101
ATOM    101  C   UNL     1     151.330 170.085 191.643  0.00  0.00    -0.056 C 
ATOM    102  H   UNL     1     151.709 170.197 192.666  0.00  0.00    +0.024 HD
ATOM    103  H   UNL     1     152.065 169.493 191.086  0.00  0.00    +0.024 HD
ATOM    104  H   UNL     1     151.280 171.085 191.199  0.00  0.00    +0.024 HD
ENDBRANCH  99 101
BRANCH  99 105
ATOM    105  C   UNL     1     148.931 170.443 192.144  0.00  0.00    -0.064 C 
ATOM    106  C   UNL     1     149.083 171.766 191.985  0.00  0.00    -0.005 C 
ATOM    107  H   UNL     1     148.049 170.032 192.626  0.00  0.00    +0.059 HD
ATOM    108  H   UNL     1     149.980 172.151 191.501  0.00  0.00    +0.078 HD
BRANCH 106 109
ATOM    109  N   UNL     1     148.179 172.739 192.391  0.00  0.00    -0.284 N 
ATOM    110  C   UNL     1     147.262 173.254 191.476  0.00  0.00    +0.206 C 
ATOM    111  O   UNL     1     147.139 172.929 190.300  0.00  0.00    -0.279 OA
ATOM    112  H   UNL     1     146.610 174.024 191.920  0.00  0.00    +0.126 HD
BRANCH 109 113
ATOM    113  C   UNL     1     148.161 173.230 193.760  0.00  0.00    +0.007 C 
ATOM    114  H   UNL     1     148.099 174.323 193.752  0.00  0.00    +0.043 HD
ATOM    115  H   UNL     1     147.298 172.841 194.311  0.00  0.00    +0.043 HD
ATOM    116  H   UNL     1     149.071 172.906 194.277  0.00  0.00    +0.043 HD
ENDBRANCH 109 113
ENDBRANCH 106 109
ENDBRANCH  99 105
ENDBRANCH  97  99
BRANCH  97 117
ATOM    117  O   UNL     1     148.623 167.456 192.299  0.00  0.00    -0.461 OA
BRANCH 117 118
ATOM    118  C   UNL     1     147.929 167.131 193.425  0.00  0.00    +0.304 C 
ATOM    119  O   UNL     1     147.436 167.924 194.214  0.00  0.00    -0.251 OA
BRANCH 118 120
ATOM    120  C   UNL     1     147.804 165.644 193.546  0.00  0.00    +0.033 C 
ATOM    121  H   UNL     1     147.703 165.357 194.597  0.00  0.00    +0.034 HD
ATOM    122  H   UNL     1     146.905 165.316 193.018  0.00  0.00    +0.034 HD
ATOM    123  H   UNL     1     148.676 165.166 193.095  0.00  0.00    +0.034 HD
ENDBRANCH 118 120
ENDBRANCH 117 118
ENDBRANCH  97 117
ENDBRANCH  91  97
ENDBRANCH  89  91
BRANCH  89 124
ATOM    124  O   UNL     1     150.786 164.738 191.482  0.00  0.00    -0.460 OA
BRANCH 124 125
ATOM    125  C   UNL     1     150.011 163.724 191.006  0.00  0.00    +0.324 C 
ATOM    126  O   UNL     1     148.810 163.825 190.768  0.00  0.00    -0.249 OA
BRANCH 125 127
ATOM    127  C   UNL     1     150.787 162.400 190.859  0.00  0.00    +0.105 C 
ATOM    128  H   UNL     1     150.768 161.911 191.843  0.00  0.00    +0.058 HD
BRANCH 127 129
ATOM    129  C   UNL     1     152.234 162.785 190.537  0.00  0.00    -0.039 C 
ATOM    130  H   UNL     1     152.658 163.422 191.319  0.00  0.00    +0.025 HD
ATOM    131  H   UNL     1     152.860 161.890 190.458  0.00  0.00    +0.025 HD
ATOM    132  H   UNL     1     152.317 163.309 189.579  0.00  0.00    +0.025 HD
ENDBRANCH 127 129
BRANCH 127 133
ATOM    133  N   UNL     1     150.169 161.476 189.858  0.00  0.00    -0.296 NA
BRANCH 133 134
ATOM    134  C   UNL     1     149.766 160.210 190.486  0.00  0.00    -0.012 C 
ATOM    135  H   UNL     1     149.133 159.614 189.822  0.00  0.00    +0.039 HD
ATOM    136  H   UNL     1     149.223 160.377 191.424  0.00  0.00    +0.039 HD
ATOM    137  H   UNL     1     150.648 159.594 190.702  0.00  0.00    +0.039 HD
ENDBRANCH 133 134
BRANCH 133 138
ATOM    138  C   UNL     1     151.073 161.185 188.741  0.00  0.00    -0.012 C 
ATOM    139  H   UNL     1     150.894 160.176 188.348  0.00  0.00    +0.039 HD
ATOM    140  H   UNL     1     150.899 161.865 187.900  0.00  0.00    +0.039 HD
ATOM    141  H   UNL     1     152.127 161.252 189.040  0.00  0.00    +0.039 HD
ENDBRANCH 133 138
ENDBRANCH 127 133
ENDBRANCH 125 127
ENDBRANCH 124 125
ENDBRANCH  89 124
ENDBRANCH  86  89
ENDBRANCH  83  86
ENDBRANCH  77  83
ENDBRANCH  75  77
BRANCH  75 142
ATOM    142  O   UNL     1     147.073 166.175 190.070  0.00  0.00    -0.391 OA
ATOM    143  H   UNL     1     146.178 166.521 190.230  0.00  0.00    +0.210 HD
ENDBRANCH  75 142
ENDBRANCH  69  75
ENDBRANCH  14  69
BRANCH  25 144
ATOM    144  O   UNL     1     138.843 175.739 188.234  0.00  0.00    -0.391 OA
ATOM    145  H   UNL     1     138.781 176.706 188.181  0.00  0.00    +0.210 HD
ENDBRANCH  25 144
BRANCH  23 146
ATOM    146  O   UNL     1     140.703 174.999 191.194  0.00  0.00    -0.460 OA
BRANCH 146 147
ATOM    147  C   UNL     1     140.039 175.794 192.090  0.00  0.00    +0.327 C 
ATOM    148  O   UNL     1     138.835 176.038 192.047  0.00  0.00    -0.249 OA
BRANCH 147 149
ATOM    149  C   UNL     1     141.008 176.364 193.137  0.00  0.00    +0.131 C 
ATOM    150  H   UNL     1     140.736 177.415 193.299  0.00  0.00    +0.060 HD
BRANCH 149 151
ATOM    151  C   UNL     1     142.419 176.364 192.524  0.00  0.00    +0.073 C 
ATOM    152  H   UNL     1     142.380 175.970 191.502  0.00  0.00    +0.058 HD
ATOM    153  H   UNL     1     142.847 177.371 192.492  0.00  0.00    +0.058 HD
BRANCH 151 154
ATOM    154  O   UNL     1     143.263 175.496 193.295  0.00  0.00    -0.381 OA
BRANCH 154 155
ATOM    155  C   UNL     1     143.788 174.439 192.503  0.00  0.00    +0.037 C 
ATOM    156  H   UNL     1     144.649 173.978 192.997  0.00  0.00    +0.052 HD
ATOM    157  H   UNL     1     144.117 174.855 191.547  0.00  0.00    +0.052 HD
ATOM    158  H   UNL     1     143.019 173.687 192.306  0.00  0.00    +0.052 HD
ENDBRANCH 154 155
ENDBRANCH 151 154
ENDBRANCH 149 151
BRANCH 149 159
ATOM    159  N   UNL     1     140.981 175.628 194.440  0.00  0.00    -0.294 NA
BRANCH 159 160
ATOM    160  C   UNL     1     140.539 176.491 195.533  0.00  0.00    -0.012 C 
ATOM    161  H   UNL     1     139.476 176.382 195.758  0.00  0.00    +0.039 HD
ATOM    162  H   UNL     1     140.742 177.535 195.290  0.00  0.00    +0.039 HD
ATOM    163  H   UNL     1     141.102 176.280 196.449  0.00  0.00    +0.039 HD
ENDBRANCH 159 160
BRANCH 159 164
ATOM    164  C   UNL     1     140.203 174.390 194.403  0.00  0.00    -0.012 C 
ATOM    165  H   UNL     1     139.168 174.533 194.733  0.00  0.00    +0.039 HD
ATOM    166  H   UNL     1     140.656 173.638 195.058  0.00  0.00    +0.039 HD
ATOM    167  H   UNL     1     140.193 173.956 193.399  0.00  0.00    +0.039 HD
ENDBRANCH 159 164
ENDBRANCH 149 159
ENDBRANCH 147 149
ENDBRANCH 146 147
ENDBRANCH  23 146
BRANCH   4 168
ATOM    168  O   UNL     1     142.009 177.451 184.769  0.00  0.00    -0.376 OA
BRANCH 168 169
ATOM    169  C   UNL     1     142.083 178.799 185.215  0.00  0.00    +0.037 C 
ATOM    170  H   UNL     1     141.162 179.306 184.916  0.00  0.00    +0.052 HD
ATOM    171  H   UNL     1     142.929 179.303 184.741  0.00  0.00    +0.052 HD
ATOM    172  H   UNL     1     142.170 178.850 186.304  0.00  0.00    +0.052 HD
ENDBRANCH 168 169
ENDBRANCH   4 168
BRANCH  10 173
ATOM    173  O   UNL     1     145.319 171.801 185.707  0.00  0.00    -0.376 OA
BRANCH 173 174
ATOM    174  C   UNL     1     145.056 172.230 187.040  0.00  0.00    +0.037 C 
ATOM    175  H   UNL     1     145.226 173.308 187.091  0.00  0.00    +0.052 HD
ATOM    176  H   UNL     1     144.015 172.035 187.308  0.00  0.00    +0.052 HD
ATOM    177  H   UNL     1     145.731 171.739 187.749  0.00  0.00    +0.052 HD
ENDBRANCH 173 174
ENDBRANCH  10 173
TORSDOF 45
ENDMDL
MODEL 10
REMARK VINA RESULT:      -4.6      2.457      4.139
REMARK  Name = Aplyronine A_conf1
REMARK  45 active torsions:
REMARK  status: ('A' for Active; 'I' for Inactive)
REMARK    1  A    between atoms: C_1  and  C_2
REMARK    2  A    between atoms: C_5  and  O_75
REMARK    3  A    between atoms: C_6  and  C_74
REMARK    4  A    between atoms: C_9  and  C_73
REMARK    5  A    between atoms: C_11  and  O_71
REMARK    6  A    between atoms: C_15  and  C_39
REMARK    7  A    between atoms: C_24  and  O_29
REMARK    8  A    between atoms: C_25  and  C_28
REMARK    9  A    between atoms: C_26  and  O_27
REMARK   10  A    between atoms: O_29  and  C_30
REMARK   11  A    between atoms: C_30  and  C_32
REMARK   12  A    between atoms: C_32  and  C_33
REMARK   13  A    between atoms: C_32  and  N_36
REMARK   14  A    between atoms: C_33  and  O_34
REMARK   15  A    between atoms: O_34  and  C_35
REMARK   16  A    between atoms: N_36  and  C_37
REMARK   17  A    between atoms: N_36  and  C_38
REMARK   18  A    between atoms: C_39  and  C_40
REMARK   19  A    between atoms: C_39  and  C_41
REMARK   20  A    between atoms: C_41  and  C_42
REMARK   21  A    between atoms: C_41  and  O_70
REMARK   22  A    between atoms: C_42  and  C_43
REMARK   23  A    between atoms: C_42  and  C_44
REMARK   24  A    between atoms: C_44  and  C_45
REMARK   25  A    between atoms: C_45  and  C_46
REMARK   26  A    between atoms: C_46  and  C_47
REMARK   27  A    between atoms: C_46  and  O_62
REMARK   28  A    between atoms: C_47  and  C_48
REMARK   29  A    between atoms: C_47  and  C_49
REMARK   30  A    between atoms: C_49  and  C_50
REMARK   31  A    between atoms: C_49  and  O_58
REMARK   32  A    between atoms: C_50  and  C_51
REMARK   33  A    between atoms: C_50  and  C_52
REMARK   34  A    between atoms: C_53  and  N_54
REMARK   35  A    between atoms: N_54  and  C_55
REMARK   36  A    between atoms: O_58  and  C_59
REMARK   37  A    between atoms: C_59  and  C_61
REMARK   38  A    between atoms: O_62  and  C_63
REMARK   39  A    between atoms: C_63  and  C_65
REMARK   40  A    between atoms: C_65  and  C_66
REMARK   41  A    between atoms: C_65  and  N_67
REMARK   42  A    between atoms: N_67  and  C_68
REMARK   43  A    between atoms: N_67  and  C_69
REMARK   44  A    between atoms: O_71  and  C_72
REMARK   45  A    between atoms: O_75  and  C_76
REMARK                            x       y       z     vdW  Elec       q    Type
REMARK                         _______ _______ _______ _____ _____    ______ ____
ROOT
ATOM      1  C   UNL     1     145.218 167.384 189.107  0.00  0.00    -0.017 C 
ATOM      2  C   UNL     1     144.031 167.612 190.065  0.00  0.00    -0.045 C 
ATOM      3  C   UNL     1     143.075 166.422 190.291  0.00  0.00    -0.022 C 
ATOM      4  C   UNL     1     142.397 165.751 189.077  0.00  0.00    +0.079 C 
ATOM      5  C   UNL     1     141.569 166.628 188.131  0.00  0.00    -0.048 C 
ATOM      6  C   UNL     1     141.020 167.804 188.509  0.00  0.00    -0.082 C 
ATOM      7  C   UNL     1     140.158 168.728 187.689  0.00  0.00    -0.032 C 
ATOM      8  C   UNL     1     140.944 169.898 187.069  0.00  0.00    -0.038 C 
ATOM      9  C   UNL     1     141.551 170.907 188.077  0.00  0.00    -0.020 C 
ATOM     10  C   UNL     1     140.556 171.558 189.061  0.00  0.00    +0.077 C 
ATOM     11  C   UNL     1     141.163 172.807 189.653  0.00  0.00    -0.059 C 
ATOM     12  C   UNL     1     140.618 174.034 189.570  0.00  0.00    -0.082 C 
ATOM     13  C   UNL     1     141.200 175.293 190.176  0.00  0.00    +0.003 C 
ATOM     14  C   UNL     1     141.315 175.341 191.725  0.00  0.00    +0.112 C 
ATOM     15  O   UNL     1     142.428 174.468 192.039  0.00  0.00    -0.458 OA
ATOM     16  C   UNL     1     143.372 174.930 192.897  0.00  0.00    +0.332 C 
ATOM     17  O   UNL     1     143.271 175.879 193.655  0.00  0.00    -0.246 OA
ATOM     18  C   UNL     1     144.618 174.148 192.752  0.00  0.00    +0.022 C 
ATOM     19  C   UNL     1     145.019 173.758 191.534  0.00  0.00    -0.055 C 
ATOM     20  C   UNL     1     146.269 173.117 191.215  0.00  0.00    -0.065 C 
ATOM     21  C   UNL     1     146.746 172.006 191.790  0.00  0.00    -0.081 C 
ATOM     22  C   UNL     1     148.000 171.327 191.287  0.00  0.00    +0.003 C 
ATOM     23  C   UNL     1     147.810 169.846 190.868  0.00  0.00    +0.111 C 
ATOM     24  C   UNL     1     146.552 169.524 189.999  0.00  0.00    +0.020 C 
ATOM     25  C   UNL     1     146.531 168.006 189.665  0.00  0.00    +0.064 C 
ATOM     26  H   UNL     1     145.425 166.307 189.054  0.00  0.00    +0.032 HD
ATOM     27  H   UNL     1     143.465 168.497 189.758  0.00  0.00    +0.027 HD
ATOM     28  H   UNL     1     144.420 167.857 191.063  0.00  0.00    +0.027 HD
ATOM     29  H   UNL     1     143.651 165.655 190.826  0.00  0.00    +0.029 HD
ATOM     30  H   UNL     1     142.295 166.751 190.992  0.00  0.00    +0.029 HD
ATOM     31  H   UNL     1     141.691 165.005 189.469  0.00  0.00    +0.064 HD
ATOM     32  H   UNL     1     141.169 168.158 189.525  0.00  0.00    +0.057 HD
ATOM     33  H   UNL     1     139.342 169.097 188.320  0.00  0.00    +0.031 HD
ATOM     34  H   UNL     1     139.648 168.170 186.899  0.00  0.00    +0.031 HD
ATOM     35  H   UNL     1     141.791 169.472 186.511  0.00  0.00    +0.030 HD
ATOM     36  H   UNL     1     142.056 171.689 187.496  0.00  0.00    +0.030 HD
ATOM     37  H   UNL     1     142.338 170.395 188.648  0.00  0.00    +0.030 HD
ATOM     38  H   UNL     1     139.619 171.790 188.544  0.00  0.00    +0.064 HD
ATOM     39  H   UNL     1     142.098 172.663 190.192  0.00  0.00    +0.059 HD
ATOM     40  H   UNL     1     139.676 174.161 189.040  0.00  0.00    +0.057 HD
ATOM     41  H   UNL     1     140.605 176.139 189.812  0.00  0.00    +0.034 HD
ATOM     42  H   UNL     1     142.197 175.437 189.738  0.00  0.00    +0.034 HD
ATOM     43  H   UNL     1     141.584 176.370 192.001  0.00  0.00    +0.074 HD
ATOM     44  H   UNL     1     145.221 174.025 193.644  0.00  0.00    +0.069 HD
ATOM     45  H   UNL     1     144.416 174.004 190.661  0.00  0.00    +0.062 HD
ATOM     46  H   UNL     1     146.796 173.551 190.364  0.00  0.00    +0.061 HD
ATOM     47  H   UNL     1     146.228 171.528 192.620  0.00  0.00    +0.057 HD
ATOM     48  H   UNL     1     148.745 171.386 192.092  0.00  0.00    +0.034 HD
ATOM     49  H   UNL     1     148.418 171.880 190.439  0.00  0.00    +0.034 HD
ATOM     50  H   UNL     1     148.695 169.557 190.284  0.00  0.00    +0.074 HD
ATOM     51  H   UNL     1     145.665 169.751 190.601  0.00  0.00    +0.036 HD
ATOM     52  H   UNL     1     146.740 167.449 190.586  0.00  0.00    +0.060 HD
ENDROOT
BRANCH   1  53
ATOM     53  C   UNL     1     144.895 167.823 187.671  0.00  0.00    -0.060 C 
ATOM     54  H   UNL     1     145.308 167.122 186.945  0.00  0.00    +0.023 HD
ATOM     55  H   UNL     1     145.321 168.800 187.433  0.00  0.00    +0.023 HD
ATOM     56  H   UNL     1     143.820 167.864 187.488  0.00  0.00    +0.023 HD
ENDBRANCH   1  53
BRANCH   5  57
ATOM     57  C   UNL     1     141.378 166.033 186.754  0.00  0.00    -0.041 C 
ATOM     58  H   UNL     1     141.726 165.001 186.666  0.00  0.00    +0.028 HD
ATOM     59  H   UNL     1     140.318 166.025 186.480  0.00  0.00    +0.028 HD
ATOM     60  H   UNL     1     141.927 166.622 186.011  0.00  0.00    +0.028 HD
ENDBRANCH   5  57
BRANCH  24  61
ATOM     61  C   UNL     1     146.522 170.399 188.738  0.00  0.00    -0.057 C 
ATOM     62  H   UNL     1     145.774 171.191 188.823  0.00  0.00    +0.023 HD
ATOM     63  H   UNL     1     146.306 169.814 187.837  0.00  0.00    +0.023 HD
ATOM     64  H   UNL     1     147.469 170.914 188.564  0.00  0.00    +0.023 HD
ENDBRANCH  24  61
BRANCH   8  65
ATOM     65  C   UNL     1     140.072 170.621 186.037  0.00  0.00    -0.062 C 
ATOM     66  H   UNL     1     139.713 169.937 185.261  0.00  0.00    +0.023 HD
ATOM     67  H   UNL     1     139.200 171.083 186.515  0.00  0.00    +0.023 HD
ATOM     68  H   UNL     1     140.638 171.418 185.542  0.00  0.00    +0.023 HD
ENDBRANCH   8  65
BRANCH  14  69
ATOM     69  C   UNL     1     140.022 174.924 192.476  0.00  0.00    +0.020 C 
ATOM     70  H   UNL     1     139.291 174.602 191.730  0.00  0.00    +0.036 HD
BRANCH  69  71
ATOM     71  C   UNL     1     140.233 173.691 193.370  0.00  0.00    -0.057 C 
ATOM     72  H   UNL     1     140.998 173.025 192.955  0.00  0.00    +0.023 HD
ATOM     73  H   UNL     1     140.576 173.978 194.369  0.00  0.00    +0.023 HD
ATOM     74  H   UNL     1     139.311 173.113 193.472  0.00  0.00    +0.023 HD
ENDBRANCH  69  71
BRANCH  69  75
ATOM     75  C   UNL     1     139.401 176.068 193.332  0.00  0.00    +0.064 C 
ATOM     76  H   UNL     1     140.096 176.916 193.294  0.00  0.00    +0.060 HD
BRANCH  75  77
ATOM     77  C   UNL     1     139.191 175.676 194.825  0.00  0.00    -0.017 C 
ATOM     78  H   UNL     1     139.184 174.580 194.873  0.00  0.00    +0.032 HD
BRANCH  77  79
ATOM     79  C   UNL     1     140.389 176.120 195.676  0.00  0.00    -0.060 C 
ATOM     80  H   UNL     1     140.189 176.043 196.749  0.00  0.00    +0.023 HD
ATOM     81  H   UNL     1     140.642 177.165 195.463  0.00  0.00    +0.023 HD
ATOM     82  H   UNL     1     141.273 175.516 195.450  0.00  0.00    +0.023 HD
ENDBRANCH  77  79
BRANCH  77  83
ATOM     83  C   UNL     1     137.856 176.138 195.472  0.00  0.00    -0.045 C 
ATOM     84  H   UNL     1     137.242 176.574 194.675  0.00  0.00    +0.027 HD
ATOM     85  H   UNL     1     138.055 176.955 196.173  0.00  0.00    +0.027 HD
BRANCH  83  86
ATOM     86  C   UNL     1     137.027 175.065 196.199  0.00  0.00    -0.015 C 
ATOM     87  H   UNL     1     135.964 175.302 196.084  0.00  0.00    +0.030 HD
ATOM     88  H   UNL     1     137.219 174.092 195.739  0.00  0.00    +0.030 HD
BRANCH  86  89
ATOM     89  C   UNL     1     137.368 174.957 197.702  0.00  0.00    +0.109 C 
ATOM     90  H   UNL     1     138.458 175.004 197.811  0.00  0.00    +0.074 HD
BRANCH  89  91
ATOM     91  C   UNL     1     136.879 173.610 198.318  0.00  0.00    +0.031 C 
ATOM     92  H   UNL     1     137.730 173.215 198.891  0.00  0.00    +0.037 HD
BRANCH  91  93
ATOM     93  C   UNL     1     136.515 172.584 197.235  0.00  0.00    -0.056 C 
ATOM     94  H   UNL     1     135.433 172.435 197.168  0.00  0.00    +0.023 HD
ATOM     95  H   UNL     1     136.980 171.612 197.433  0.00  0.00    +0.023 HD
ATOM     96  H   UNL     1     136.833 172.914 196.243  0.00  0.00    +0.023 HD
ENDBRANCH  91  93
BRANCH  91  97
ATOM     97  C   UNL     1     135.682 173.832 199.299  0.00  0.00    +0.115 C 
ATOM     98  H   UNL     1     135.712 174.879 199.629  0.00  0.00    +0.074 HD
BRANCH  97  99
ATOM     99  C   UNL     1     134.283 173.563 198.661  0.00  0.00    +0.013 C 
ATOM    100  H   UNL     1     134.445 173.241 197.625  0.00  0.00    +0.038 HD
BRANCH  99 101
ATOM    101  C   UNL     1     133.417 174.827 198.578  0.00  0.00    -0.056 C 
ATOM    102  H   UNL     1     133.962 175.692 198.975  0.00  0.00    +0.024 HD
ATOM    103  H   UNL     1     133.132 175.067 197.547  0.00  0.00    +0.024 HD
ATOM    104  H   UNL     1     132.505 174.711 199.174  0.00  0.00    +0.024 HD
ENDBRANCH  99 101
BRANCH  99 105
ATOM    105  C   UNL     1     133.508 172.494 199.404  0.00  0.00    -0.064 C 
ATOM    106  C   UNL     1     133.127 171.338 198.841  0.00  0.00    -0.005 C 
ATOM    107  H   UNL     1     133.286 172.713 200.444  0.00  0.00    +0.059 HD
ATOM    108  H   UNL     1     133.360 171.147 197.794  0.00  0.00    +0.078 HD
BRANCH 106 109
ATOM    109  N   UNL     1     132.439 170.315 199.478  0.00  0.00    -0.284 N 
ATOM    110  C   UNL     1     131.786 169.345 198.720  0.00  0.00    +0.206 C 
ATOM    111  O   UNL     1     131.752 169.271 197.496  0.00  0.00    -0.279 OA
ATOM    112  H   UNL     1     131.270 168.596 199.344  0.00  0.00    +0.126 HD
BRANCH 109 113
ATOM    113  C   UNL     1     132.390 170.226 200.929  0.00  0.00    +0.007 C 
ATOM    114  H   UNL     1     133.133 170.906 201.359  0.00  0.00    +0.043 HD
ATOM    115  H   UNL     1     131.404 170.506 201.313  0.00  0.00    +0.043 HD
ATOM    116  H   UNL     1     132.597 169.195 201.240  0.00  0.00    +0.043 HD
ENDBRANCH 109 113
ENDBRANCH 106 109
ENDBRANCH  99 105
ENDBRANCH  97  99
BRANCH  97 117
ATOM    117  O   UNL     1     135.871 172.946 200.435  0.00  0.00    -0.461 OA
BRANCH 117 118
ATOM    118  C   UNL     1     136.291 173.517 201.598  0.00  0.00    +0.304 C 
ATOM    119  O   UNL     1     137.380 173.345 202.126  0.00  0.00    -0.251 OA
BRANCH 118 120
ATOM    120  C   UNL     1     135.241 174.441 202.131  0.00  0.00    +0.033 C 
ATOM    121  H   UNL     1     135.238 175.376 201.563  0.00  0.00    +0.034 HD
ATOM    122  H   UNL     1     134.259 173.973 202.016  0.00  0.00    +0.034 HD
ATOM    123  H   UNL     1     135.423 174.630 203.190  0.00  0.00    +0.034 HD
ENDBRANCH 118 120
ENDBRANCH 117 118
ENDBRANCH  97 117
ENDBRANCH  91  97
ENDBRANCH  89  91
BRANCH  89 124
ATOM    124  O   UNL     1     136.721 176.036 198.407  0.00  0.00    -0.460 OA
BRANCH 124 125
ATOM    125  C   UNL     1     137.507 176.950 199.043  0.00  0.00    +0.324 C 
ATOM    126  O   UNL     1     138.373 177.621 198.487  0.00  0.00    -0.249 OA
BRANCH 125 127
ATOM    127  C   UNL     1     137.245 177.009 200.561  0.00  0.00    +0.105 C 
ATOM    128  H   UNL     1     137.026 175.982 200.884  0.00  0.00    +0.058 HD
BRANCH 127 129
ATOM    129  C   UNL     1     135.981 177.856 200.744  0.00  0.00    -0.039 C 
ATOM    130  H   UNL     1     135.278 177.374 201.431  0.00  0.00    +0.025 HD
ATOM    131  H   UNL     1     136.236 178.837 201.159  0.00  0.00    +0.025 HD
ATOM    132  H   UNL     1     135.468 178.041 199.795  0.00  0.00    +0.025 HD
ENDBRANCH 127 129
BRANCH 127 133
ATOM    133  N   UNL     1     138.426 177.508 201.332  0.00  0.00    -0.296 NA
BRANCH 133 134
ATOM    134  C   UNL     1     138.675 176.672 202.514  0.00  0.00    -0.012 C 
ATOM    135  H   UNL     1     138.743 175.612 202.252  0.00  0.00    +0.039 HD
ATOM    136  H   UNL     1     137.890 176.792 203.270  0.00  0.00    +0.039 HD
ATOM    137  H   UNL     1     139.638 176.935 202.971  0.00  0.00    +0.039 HD
ENDBRANCH 133 134
BRANCH 133 138
ATOM    138  C   UNL     1     138.258 178.900 201.762  0.00  0.00    -0.012 C 
ATOM    139  H   UNL     1     138.540 179.592 200.959  0.00  0.00    +0.039 HD
ATOM    140  H   UNL     1     137.209 179.122 201.989  0.00  0.00    +0.039 HD
ATOM    141  H   UNL     1     138.869 179.132 202.644  0.00  0.00    +0.039 HD
ENDBRANCH 133 138
ENDBRANCH 127 133
ENDBRANCH 125 127
ENDBRANCH 124 125
ENDBRANCH  89 124
ENDBRANCH  86  89
ENDBRANCH  83  86
ENDBRANCH  77  83
ENDBRANCH  75  77
BRANCH  75 142
ATOM    142  O   UNL     1     138.193 176.553 192.761  0.00  0.00    -0.391 OA
ATOM    143  H   UNL     1     138.184 176.304 191.821  0.00  0.00    +0.210 HD
ENDBRANCH  75 142
ENDBRANCH  69  75
ENDBRANCH  14  69
BRANCH  25 144
ATOM    144  O   UNL     1     147.625 167.704 188.788  0.00  0.00    -0.391 OA
ATOM    145  H   UNL     1     147.442 166.847 188.370  0.00  0.00    +0.210 HD
ENDBRANCH  25 144
BRANCH  23 146
ATOM    146  O   UNL     1     147.746 169.061 192.091  0.00  0.00    -0.460 OA
BRANCH 146 147
ATOM    147  C   UNL     1     148.664 168.049 192.185  0.00  0.00    +0.327 C 
ATOM    148  O   UNL     1     148.506 167.024 192.844  0.00  0.00    -0.249 OA
BRANCH 147 149
ATOM    149  C   UNL     1     149.931 168.385 191.383  0.00  0.00    +0.131 C 
ATOM    150  H   UNL     1     149.637 169.060 190.569  0.00  0.00    +0.060 HD
BRANCH 149 151
ATOM    151  C   UNL     1     150.427 167.088 190.720  0.00  0.00    +0.073 C 
ATOM    152  H   UNL     1     151.433 166.846 191.082  0.00  0.00    +0.058 HD
ATOM    153  H   UNL     1     149.766 166.242 190.939  0.00  0.00    +0.058 HD
BRANCH 151 154
ATOM    154  O   UNL     1     150.509 167.290 189.302  0.00  0.00    -0.381 OA
BRANCH 154 155
ATOM    155  C   UNL     1     151.857 167.282 188.850  0.00  0.00    +0.037 C 
ATOM    156  H   UNL     1     152.273 168.294 188.858  0.00  0.00    +0.052 HD
ATOM    157  H   UNL     1     151.874 166.907 187.823  0.00  0.00    +0.052 HD
ATOM    158  H   UNL     1     152.467 166.618 189.470  0.00  0.00    +0.052 HD
ENDBRANCH 154 155
ENDBRANCH 151 154
ENDBRANCH 149 151
BRANCH 149 159
ATOM    159  N   UNL     1     151.007 169.022 192.204  0.00  0.00    -0.294 NA
BRANCH 159 160
ATOM    160  C   UNL     1     152.076 168.075 192.514  0.00  0.00    -0.012 C 
ATOM    161  H   UNL     1     153.031 168.348 192.059  0.00  0.00    +0.039 HD
ATOM    162  H   UNL     1     151.798 167.075 192.176  0.00  0.00    +0.039 HD
ATOM    163  H   UNL     1     152.226 167.996 193.596  0.00  0.00    +0.039 HD
ENDBRANCH 159 160
BRANCH 159 164
ATOM    164  C   UNL     1     151.548 170.249 191.618  0.00  0.00    -0.012 C 
ATOM    165  H   UNL     1     152.631 170.340 191.760  0.00  0.00    +0.039 HD
ATOM    166  H   UNL     1     151.081 171.126 192.078  0.00  0.00    +0.039 HD
ATOM    167  H   UNL     1     151.329 170.310 190.549  0.00  0.00    +0.039 HD
ENDBRANCH 159 164
ENDBRANCH 149 159
ENDBRANCH 147 149
ENDBRANCH 146 147
ENDBRANCH  23 146
BRANCH   4 168
ATOM    168  O   UNL     1     143.408 165.065 188.321  0.00  0.00    -0.376 OA
BRANCH 168 169
ATOM    169  C   UNL     1     143.671 163.750 188.795  0.00  0.00    +0.037 C 
ATOM    170  H   UNL     1     144.502 163.805 189.503  0.00  0.00    +0.052 HD
ATOM    171  H   UNL     1     143.963 163.106 187.962  0.00  0.00    +0.052 HD
ATOM    172  H   UNL     1     142.800 163.335 189.310  0.00  0.00    +0.052 HD
ENDBRANCH 168 169
ENDBRANCH   4 168
BRANCH  10 173
ATOM    173  O   UNL     1     140.309 170.626 190.119  0.00  0.00    -0.376 OA
BRANCH 173 174
ATOM    174  C   UNL     1     138.979 170.683 190.624  0.00  0.00    +0.037 C 
ATOM    175  H   UNL     1     138.290 170.641 189.776  0.00  0.00    +0.052 HD
ATOM    176  H   UNL     1     138.776 169.825 191.271  0.00  0.00    +0.052 HD
ATOM    177  H   UNL     1     138.805 171.619 191.165  0.00  0.00    +0.052 HD
ENDBRANCH 173 174
ENDBRANCH  10 173
TORSDOF 45
ENDMDL
