MODEL 1
REMARK VINA RESULT:      -7.0      0.000      0.000
REMARK  Name = Bistramide A_conf1
REMARK  27 active torsions:
REMARK  status: ('A' for Active; 'I' for Inactive)
REMARK    1  A    between atoms: C_1  and  C_2
REMARK    2  A    between atoms: C_3  and  C_4
REMARK    3  A    between atoms: C_4  and  C_6
REMARK    4  A    between atoms: C_6  and  C_7
REMARK    5  A    between atoms: C_10  and  C_50
REMARK    6  A    between atoms: C_11  and  C_13
REMARK    7  A    between atoms: C_13  and  C_14
REMARK    8  A    between atoms: N_16  and  C_17
REMARK    9  A    between atoms: C_17  and  C_18
REMARK   10  A    between atoms: C_18  and  C_19
REMARK   11  A    between atoms: C_18  and  O_49
REMARK   12  A    between atoms: C_19  and  C_20
REMARK   13  A    between atoms: C_19  and  C_21
REMARK   14  A    between atoms: N_23  and  C_24
REMARK   15  A    between atoms: C_24  and  C_25
REMARK   16  A    between atoms: C_25  and  C_26
REMARK   17  A    between atoms: C_26  and  C_27
REMARK   18  A    between atoms: C_28  and  C_48
REMARK   19  A    between atoms: C_36  and  C_38
REMARK   20  A    between atoms: C_38  and  C_39
REMARK   21  A    between atoms: C_39  and  C_40
REMARK   22  A    between atoms: C_40  and  C_41
REMARK   23  A    between atoms: C_40  and  C_42
REMARK   24  A    between atoms: C_43  and  C_44
REMARK   25  A    between atoms: C_43  and  C_45
REMARK   26  A    between atoms: C_45  and  C_46
REMARK   27  A    between atoms: C_45  and  O_47
REMARK                            x       y       z     vdW  Elec       q    Type
REMARK                         _______ _______ _______ _____ _____    ______ ____
ROOT
ATOM      1  C   UNL     1     148.768 168.493 190.884  0.00  0.00    -0.035 C 
ATOM      2  H   UNL     1     148.756 168.598 191.978  0.00  0.00    +0.028 HD
ATOM      3  H   UNL     1     149.825 168.468 190.595  0.00  0.00    +0.028 HD
ENDROOT
BRANCH   1   4
ATOM      4  C   UNL     1     148.063 169.704 190.278  0.00  0.00    +0.012 C 
ATOM      5  H   UNL     1     148.651 170.159 189.473  0.00  0.00    +0.046 HD
ATOM      6  H   UNL     1     147.101 169.406 189.838  0.00  0.00    +0.046 HD
BRANCH   4   9
ATOM      7  C   UNL     1     148.868 171.499 191.760  0.00  0.00    +0.218 C 
ATOM      8  O   UNL     1     150.017 171.455 191.327  0.00  0.00    -0.275 OA
ATOM      9  N   UNL     1     147.836 170.754 191.244  0.00  0.00    -0.315 N 
ATOM     10  H   UNL     1     146.940 170.804 191.732  0.00  0.00    +0.149 HD
BRANCH   7  11
ATOM     11  C   UNL     1     148.496 172.384 192.946  0.00  0.00    +0.060 C 
ATOM     12  H   UNL     1     147.838 171.778 193.583  0.00  0.00    +0.042 HD
BRANCH  11  13
ATOM     13  C   UNL     1     149.744 172.740 193.752  0.00  0.00    -0.052 C 
ATOM     14  H   UNL     1     149.509 173.300 194.660  0.00  0.00    +0.024 HD
ATOM     15  H   UNL     1     150.281 171.831 194.042  0.00  0.00    +0.024 HD
ATOM     16  H   UNL     1     150.425 173.358 193.157  0.00  0.00    +0.024 HD
ENDBRANCH  11  13
BRANCH  11  17
ATOM     17  C   UNL     1     147.697 173.627 192.496  0.00  0.00    +0.081 C 
ATOM     18  H   UNL     1     148.083 174.495 193.037  0.00  0.00    +0.062 HD
BRANCH  17  19
ATOM     19  C   UNL     1     146.181 173.473 192.757  0.00  0.00    +0.038 C 
ATOM     20  H   UNL     1     145.963 172.515 193.238  0.00  0.00    +0.049 HD
ATOM     21  H   UNL     1     145.819 174.281 193.404  0.00  0.00    +0.049 HD
BRANCH  19  24
ATOM     22  C   UNL     1     144.756 172.427 190.976  0.00  0.00    +0.216 C 
ATOM     23  O   UNL     1     145.045 171.274 191.280  0.00  0.00    -0.276 OA
ATOM     24  N   UNL     1     145.331 173.528 191.574  0.00  0.00    -0.313 N 
ATOM     25  H   UNL     1     145.026 174.443 191.268  0.00  0.00    +0.149 HD
BRANCH  22  26
ATOM     26  C   UNL     1     143.675 172.789 189.978  0.00  0.00    +0.050 C 
ATOM     27  H   UNL     1     144.129 173.547 189.324  0.00  0.00    +0.038 HD
ATOM     28  H   UNL     1     143.435 171.904 189.379  0.00  0.00    +0.038 HD
BRANCH  26  33
ATOM     29  C   UNL     1     141.441 173.603 192.857  0.00  0.00    +0.066 C 
ATOM     30  C   UNL     1     140.093 173.059 192.368  0.00  0.00    -0.026 C 
ATOM     31  C   UNL     1     139.912 173.226 190.861  0.00  0.00    -0.046 C 
ATOM     32  C   UNL     1     141.125 172.695 190.084  0.00  0.00    -0.017 C 
ATOM     33  C   UNL     1     142.412 173.349 190.642  0.00  0.00    +0.070 C 
ATOM     34  O   UNL     1     142.522 173.105 192.052  0.00  0.00    -0.372 OA
ATOM     35  H   UNL     1     141.620 173.187 193.856  0.00  0.00    +0.060 HD
ATOM     36  H   UNL     1     139.256 173.525 192.899  0.00  0.00    +0.029 HD
ATOM     37  H   UNL     1     140.047 171.988 192.604  0.00  0.00    +0.029 HD
ATOM     38  H   UNL     1     139.775 174.290 190.628  0.00  0.00    +0.027 HD
ATOM     39  H   UNL     1     138.992 172.718 190.540  0.00  0.00    +0.027 HD
ATOM     40  H   UNL     1     141.004 172.991 189.033  0.00  0.00    +0.032 HD
ATOM     41  H   UNL     1     142.342 174.431 190.474  0.00  0.00    +0.060 HD
BRANCH  32  42
ATOM     42  C   UNL     1     141.158 171.157 190.127  0.00  0.00    -0.060 C 
ATOM     43  H   UNL     1     141.678 170.783 191.017  0.00  0.00    +0.023 HD
ATOM     44  H   UNL     1     141.669 170.754 189.246  0.00  0.00    +0.023 HD
ATOM     45  H   UNL     1     140.139 170.750 190.127  0.00  0.00    +0.023 HD
ENDBRANCH  32  42
BRANCH  29  46
ATOM     46  C   UNL     1     141.483 175.133 192.965  0.00  0.00    +0.036 C 
ATOM     47  H   UNL     1     140.472 175.555 192.984  0.00  0.00    +0.037 HD
ATOM     48  H   UNL     1     141.985 175.556 192.082  0.00  0.00    +0.037 HD
BRANCH  46  49
ATOM     49  C   UNL     1     142.255 175.579 194.192  0.00  0.00    +0.158 C 
ATOM     50  O   UNL     1     143.463 175.792 194.169  0.00  0.00    -0.293 OA
BRANCH  49  52
ATOM     51  C   UNL     1     140.441 176.645 195.472  0.00  0.00    -0.084 C 
ATOM     52  C   UNL     1     141.464 175.780 195.443  0.00  0.00    -0.023 C 
ATOM     53  H   UNL     1     140.179 177.204 194.572  0.00  0.00    +0.057 HD
ATOM     54  H   UNL     1     141.757 175.208 196.315  0.00  0.00    +0.065 HD
BRANCH  51  55
ATOM     55  C   UNL     1     139.594 176.913 196.673  0.00  0.00    -0.046 C 
ATOM     56  H   UNL     1     140.070 177.673 197.302  0.00  0.00    +0.027 HD
ATOM     57  H   UNL     1     139.432 176.017 197.280  0.00  0.00    +0.027 HD
ATOM     58  H   UNL     1     138.616 177.293 196.361  0.00  0.00    +0.027 HD
ENDBRANCH  51  55
ENDBRANCH  49  52
ENDBRANCH  46  49
ENDBRANCH  29  46
ENDBRANCH  26  33
ENDBRANCH  22  26
ENDBRANCH  19  24
ENDBRANCH  17  19
BRANCH  17  59
ATOM     59  O   UNL     1     147.942 173.853 191.103  0.00  0.00    -0.390 OA
ATOM     60  H   UNL     1     148.504 173.103 190.800  0.00  0.00    +0.210 HD
ENDBRANCH  17  59
ENDBRANCH  11  17
ENDBRANCH   7  11
ENDBRANCH   4   9
ENDBRANCH   1   4
BRANCH   1  61
ATOM     61  C   UNL     1     148.087 167.174 190.494  0.00  0.00    -0.025 C 
ATOM     62  H   UNL     1     147.246 167.423 189.833  0.00  0.00    +0.029 HD
ATOM     63  H   UNL     1     148.788 166.565 189.915  0.00  0.00    +0.029 HD
BRANCH  61  64
ATOM     64  C   UNL     1     147.547 166.394 191.710  0.00  0.00    +0.065 C 
ATOM     65  C   UNL     1     146.011 166.530 191.838  0.00  0.00    -0.017 C 
ATOM     66  C   UNL     1     145.549 166.290 193.285  0.00  0.00    -0.043 C 
ATOM     67  C   UNL     1     146.572 165.452 194.043  0.00  0.00    +0.002 C 
ATOM     68  C   UNL     1     147.955 166.148 194.067  0.00  0.00    +0.171 C 
ATOM     69  O   UNL     1     148.159 166.936 192.885  0.00  0.00    -0.345 OA
ATOM     70  C   UNL     1     148.033 167.117 195.269  0.00  0.00    +0.002 C 
ATOM     71  C   UNL     1     148.518 166.417 196.521  0.00  0.00    -0.046 C 
ATOM     72  C   UNL     1     149.871 165.752 196.287  0.00  0.00    -0.026 C 
ATOM     73  C   UNL     1     150.153 165.405 194.819  0.00  0.00    +0.062 C 
ATOM     74  O   UNL     1     148.928 165.099 194.146  0.00  0.00    -0.345 OA
ATOM     75  H   UNL     1     147.828 165.339 191.621  0.00  0.00    +0.060 HD
ATOM     76  H   UNL     1     145.715 167.554 191.567  0.00  0.00    +0.032 HD
ATOM     77  H   UNL     1     145.432 167.260 193.788  0.00  0.00    +0.027 HD
ATOM     78  H   UNL     1     144.567 165.806 193.320  0.00  0.00    +0.027 HD
ATOM     79  H   UNL     1     146.654 164.469 193.562  0.00  0.00    +0.032 HD
ATOM     80  H   UNL     1     146.223 165.244 195.059  0.00  0.00    +0.032 HD
ATOM     81  H   UNL     1     147.062 167.591 195.451  0.00  0.00    +0.032 HD
ATOM     82  H   UNL     1     148.707 167.953 195.050  0.00  0.00    +0.032 HD
ATOM     83  H   UNL     1     147.790 165.657 196.824  0.00  0.00    +0.027 HD
ATOM     84  H   UNL     1     148.593 167.126 197.355  0.00  0.00    +0.027 HD
ATOM     85  H   UNL     1     149.884 164.823 196.875  0.00  0.00    +0.029 HD
ATOM     86  H   UNL     1     150.667 166.367 196.718  0.00  0.00    +0.029 HD
ATOM     87  H   UNL     1     150.723 164.469 194.825  0.00  0.00    +0.060 HD
BRANCH  65  88
ATOM     88  C   UNL     1     145.289 165.578 190.878  0.00  0.00    -0.060 C 
ATOM     89  H   UNL     1     145.909 164.706 190.643  0.00  0.00    +0.023 HD
ATOM     90  H   UNL     1     145.027 166.069 189.937  0.00  0.00    +0.023 HD
ATOM     91  H   UNL     1     144.356 165.211 191.326  0.00  0.00    +0.023 HD
ENDBRANCH  65  88
BRANCH  73  92
ATOM     92  C   UNL     1     151.002 166.417 194.030  0.00  0.00    -0.026 C 
ATOM     93  H   UNL     1     150.415 167.340 193.937  0.00  0.00    +0.029 HD
ATOM     94  H   UNL     1     151.895 166.693 194.592  0.00  0.00    +0.029 HD
BRANCH  92  95
ATOM     95  C   UNL     1     151.423 165.950 192.628  0.00  0.00    -0.045 C 
ATOM     96  H   UNL     1     152.028 165.041 192.709  0.00  0.00    +0.027 HD
ATOM     97  H   UNL     1     150.524 165.681 192.071  0.00  0.00    +0.027 HD
BRANCH  95  98
ATOM     98  C   UNL     1     152.250 167.011 191.869  0.00  0.00    -0.025 C 
ATOM     99  H   UNL     1     153.306 166.749 192.029  0.00  0.00    +0.034 HD
BRANCH  98 100
ATOM    100  C   UNL     1     152.068 168.432 192.401  0.00  0.00    -0.059 C 
ATOM    101  H   UNL     1     152.699 169.139 191.853  0.00  0.00    +0.024 HD
ATOM    102  H   UNL     1     152.326 168.503 193.459  0.00  0.00    +0.024 HD
ATOM    103  H   UNL     1     151.033 168.768 192.289  0.00  0.00    +0.024 HD
ENDBRANCH  98 100
BRANCH  98 104
ATOM    104  C   UNL     1     152.067 166.972 190.363  0.00  0.00    -0.080 C 
ATOM    105  C   UNL     1     152.944 166.685 189.374  0.00  0.00    -0.048 C 
ATOM    106  H   UNL     1     151.042 167.215 190.079  0.00  0.00    +0.058 HD
BRANCH 105 107
ATOM    107  C   UNL     1     154.350 166.213 189.631  0.00  0.00    -0.041 C 
ATOM    108  H   UNL     1     155.059 167.036 189.744  0.00  0.00    +0.028 HD
ATOM    109  H   UNL     1     154.403 165.641 190.563  0.00  0.00    +0.028 HD
ATOM    110  H   UNL     1     154.685 165.566 188.810  0.00  0.00    +0.028 HD
ENDBRANCH 105 107
BRANCH 105 111
ATOM    111  C   UNL     1     152.568 166.750 187.896  0.00  0.00    +0.073 C 
ATOM    112  H   UNL     1     152.197 165.769 187.579  0.00  0.00    +0.064 HD
BRANCH 111 113
ATOM    113  C   UNL     1     153.737 167.157 186.997  0.00  0.00    -0.035 C 
ATOM    114  H   UNL     1     153.382 167.762 186.155  0.00  0.00    +0.026 HD
ATOM    115  H   UNL     1     154.463 167.769 187.545  0.00  0.00    +0.026 HD
ATOM    116  H   UNL     1     154.255 166.281 186.593  0.00  0.00    +0.026 HD
ENDBRANCH 111 113
BRANCH 111 117
ATOM    117  O   UNL     1     151.509 167.682 187.668  0.00  0.00    -0.388 OA
ATOM    118  H   UNL     1     150.712 167.163 187.467  0.00  0.00    +0.210 HD
ENDBRANCH 111 117
ENDBRANCH 105 111
ENDBRANCH  98 104
ENDBRANCH  95  98
ENDBRANCH  92  95
ENDBRANCH  73  92
ENDBRANCH  61  64
ENDBRANCH   1  61
TORSDOF 27
ENDMDL
MODEL 2
REMARK VINA RESULT:      -7.0      3.056      9.581
REMARK  Name = Bistramide A_conf1
REMARK  27 active torsions:
REMARK  status: ('A' for Active; 'I' for Inactive)
REMARK    1  A    between atoms: C_1  and  C_2
REMARK    2  A    between atoms: C_3  and  C_4
REMARK    3  A    between atoms: C_4  and  C_6
REMARK    4  A    between atoms: C_6  and  C_7
REMARK    5  A    between atoms: C_10  and  C_50
REMARK    6  A    between atoms: C_11  and  C_13
REMARK    7  A    between atoms: C_13  and  C_14
REMARK    8  A    between atoms: N_16  and  C_17
REMARK    9  A    between atoms: C_17  and  C_18
REMARK   10  A    between atoms: C_18  and  C_19
REMARK   11  A    between atoms: C_18  and  O_49
REMARK   12  A    between atoms: C_19  and  C_20
REMARK   13  A    between atoms: C_19  and  C_21
REMARK   14  A    between atoms: N_23  and  C_24
REMARK   15  A    between atoms: C_24  and  C_25
REMARK   16  A    between atoms: C_25  and  C_26
REMARK   17  A    between atoms: C_26  and  C_27
REMARK   18  A    between atoms: C_28  and  C_48
REMARK   19  A    between atoms: C_36  and  C_38
REMARK   20  A    between atoms: C_38  and  C_39
REMARK   21  A    between atoms: C_39  and  C_40
REMARK   22  A    between atoms: C_40  and  C_41
REMARK   23  A    between atoms: C_40  and  C_42
REMARK   24  A    between atoms: C_43  and  C_44
REMARK   25  A    between atoms: C_43  and  C_45
REMARK   26  A    between atoms: C_45  and  C_46
REMARK   27  A    between atoms: C_45  and  O_47
REMARK                            x       y       z     vdW  Elec       q    Type
REMARK                         _______ _______ _______ _____ _____    ______ ____
ROOT
ATOM      1  C   UNL     1     150.308 169.903 191.857  0.00  0.00    -0.035 C 
ATOM      2  H   UNL     1     150.518 170.569 191.009  0.00  0.00    +0.028 HD
ATOM      3  H   UNL     1     150.908 170.280 192.693  0.00  0.00    +0.028 HD
ENDROOT
BRANCH   1   4
ATOM      4  C   UNL     1     150.730 168.487 191.473  0.00  0.00    +0.012 C 
ATOM      5  H   UNL     1     151.462 168.486 190.658  0.00  0.00    +0.046 HD
ATOM      6  H   UNL     1     151.205 167.984 192.327  0.00  0.00    +0.046 HD
BRANCH   4   9
ATOM      7  C   UNL     1     149.587 167.159 189.741  0.00  0.00    +0.218 C 
ATOM      8  O   UNL     1     150.546 167.181 188.974  0.00  0.00    -0.275 OA
ATOM      9  N   UNL     1     149.621 167.685 191.010  0.00  0.00    -0.315 N 
ATOM     10  H   UNL     1     148.744 167.689 191.532  0.00  0.00    +0.149 HD
BRANCH   7  11
ATOM     11  C   UNL     1     148.248 166.559 189.326  0.00  0.00    +0.060 C 
ATOM     12  H   UNL     1     147.594 166.637 190.206  0.00  0.00    +0.042 HD
BRANCH  11  13
ATOM     13  C   UNL     1     147.627 167.380 188.197  0.00  0.00    -0.052 C 
ATOM     14  H   UNL     1     148.203 168.281 187.971  0.00  0.00    +0.024 HD
ATOM     15  H   UNL     1     147.560 166.780 187.284  0.00  0.00    +0.024 HD
ATOM     16  H   UNL     1     146.615 167.701 188.465  0.00  0.00    +0.024 HD
ENDBRANCH  11  13
BRANCH  11  17
ATOM     17  C   UNL     1     148.382 165.061 188.975  0.00  0.00    +0.081 C 
ATOM     18  H   UNL     1     147.707 164.843 188.144  0.00  0.00    +0.062 HD
BRANCH  17  19
ATOM     19  C   UNL     1     148.053 164.146 190.177  0.00  0.00    +0.038 C 
ATOM     20  H   UNL     1     146.996 164.224 190.447  0.00  0.00    +0.049 HD
ATOM     21  H   UNL     1     148.278 163.101 189.936  0.00  0.00    +0.049 HD
BRANCH  19  24
ATOM     22  C   UNL     1     150.093 164.007 191.632  0.00  0.00    +0.216 C 
ATOM     23  O   UNL     1     150.685 163.219 190.901  0.00  0.00    -0.276 OA
ATOM     24  N   UNL     1     148.798 164.420 191.399  0.00  0.00    -0.313 N 
ATOM     25  H   UNL     1     148.391 165.081 192.049  0.00  0.00    +0.149 HD
BRANCH  22  26
ATOM     26  C   UNL     1     150.731 164.692 192.822  0.00  0.00    +0.050 C 
ATOM     27  H   UNL     1     151.492 163.987 193.186  0.00  0.00    +0.038 HD
ATOM     28  H   UNL     1     151.230 165.605 192.481  0.00  0.00    +0.038 HD
BRANCH  26  33
ATOM     29  C   UNL     1     148.028 166.664 194.481  0.00  0.00    +0.066 C 
ATOM     30  C   UNL     1     148.585 166.822 195.901  0.00  0.00    -0.026 C 
ATOM     31  C   UNL     1     149.374 165.596 196.355  0.00  0.00    -0.046 C 
ATOM     32  C   UNL     1     150.419 165.178 195.311  0.00  0.00    -0.017 C 
ATOM     33  C   UNL     1     149.727 165.012 193.937  0.00  0.00    +0.070 C 
ATOM     34  O   UNL     1     149.049 166.223 193.571  0.00  0.00    -0.372 OA
ATOM     35  H   UNL     1     147.749 167.663 194.126  0.00  0.00    +0.060 HD
ATOM     36  H   UNL     1     147.790 167.042 196.622  0.00  0.00    +0.029 HD
ATOM     37  H   UNL     1     149.260 167.689 195.914  0.00  0.00    +0.029 HD
ATOM     38  H   UNL     1     148.681 164.760 196.521  0.00  0.00    +0.027 HD
ATOM     39  H   UNL     1     149.852 165.799 197.323  0.00  0.00    +0.027 HD
ATOM     40  H   UNL     1     150.832 164.208 195.619  0.00  0.00    +0.032 HD
ATOM     41  H   UNL     1     148.988 164.205 194.025  0.00  0.00    +0.060 HD
BRANCH  32  42
ATOM     42  C   UNL     1     151.584 166.184 195.286  0.00  0.00    -0.060 C 
ATOM     43  H   UNL     1     152.033 166.316 196.277  0.00  0.00    +0.023 HD
ATOM     44  H   UNL     1     151.243 167.165 194.939  0.00  0.00    +0.023 HD
ATOM     45  H   UNL     1     152.367 165.849 194.595  0.00  0.00    +0.023 HD
ENDBRANCH  32  42
BRANCH  29  46
ATOM     46  C   UNL     1     146.786 165.767 194.404  0.00  0.00    +0.036 C 
ATOM     47  H   UNL     1     146.240 165.768 195.354  0.00  0.00    +0.037 HD
ATOM     48  H   UNL     1     147.088 164.726 194.214  0.00  0.00    +0.037 HD
BRANCH  46  49
ATOM     49  C   UNL     1     145.865 166.195 193.277  0.00  0.00    +0.158 C 
ATOM     50  O   UNL     1     146.275 166.425 192.144  0.00  0.00    -0.293 OA
BRANCH  49  52
ATOM     51  C   UNL     1     143.499 166.394 192.625  0.00  0.00    -0.084 C 
ATOM     52  C   UNL     1     144.411 166.296 193.602  0.00  0.00    -0.023 C 
ATOM     53  H   UNL     1     143.821 166.394 191.582  0.00  0.00    +0.057 HD
ATOM     54  H   UNL     1     144.134 166.294 194.649  0.00  0.00    +0.065 HD
BRANCH  51  55
ATOM     55  C   UNL     1     142.026 166.499 192.851  0.00  0.00    -0.046 C 
ATOM     56  H   UNL     1     141.506 166.559 191.890  0.00  0.00    +0.027 HD
ATOM     57  H   UNL     1     141.755 167.379 193.443  0.00  0.00    +0.027 HD
ATOM     58  H   UNL     1     141.667 165.610 193.379  0.00  0.00    +0.027 HD
ENDBRANCH  51  55
ENDBRANCH  49  52
ENDBRANCH  46  49
ENDBRANCH  29  46
ENDBRANCH  26  33
ENDBRANCH  22  26
ENDBRANCH  19  24
ENDBRANCH  17  19
BRANCH  17  59
ATOM     59  O   UNL     1     149.716 164.815 188.513  0.00  0.00    -0.390 OA
ATOM     60  H   UNL     1     150.308 165.345 189.095  0.00  0.00    +0.210 HD
ENDBRANCH  17  59
ENDBRANCH  11  17
ENDBRANCH   7  11
ENDBRANCH   4   9
ENDBRANCH   1   4
BRANCH   1  61
ATOM     61  C   UNL     1     148.815 169.985 192.206  0.00  0.00    -0.025 C 
ATOM     62  H   UNL     1     148.288 169.273 191.556  0.00  0.00    +0.029 HD
ATOM     63  H   UNL     1     148.669 169.656 193.239  0.00  0.00    +0.029 HD
BRANCH  61  64
ATOM     64  C   UNL     1     148.222 171.391 191.982  0.00  0.00    +0.065 C 
ATOM     65  C   UNL     1     148.219 172.223 193.287  0.00  0.00    -0.017 C 
ATOM     66  C   UNL     1     147.149 173.326 193.243  0.00  0.00    -0.043 C 
ATOM     67  C   UNL     1     146.799 173.676 191.801  0.00  0.00    +0.002 C 
ATOM     68  C   UNL     1     146.274 172.436 191.037  0.00  0.00    +0.171 C 
ATOM     69  O   UNL     1     146.872 171.230 191.534  0.00  0.00    -0.345 OA
ATOM     70  C   UNL     1     144.748 172.297 191.249  0.00  0.00    +0.002 C 
ATOM     71  C   UNL     1     143.967 173.089 190.222  0.00  0.00    -0.046 C 
ATOM     72  C   UNL     1     144.345 172.670 188.804  0.00  0.00    -0.026 C 
ATOM     73  C   UNL     1     145.748 172.058 188.686  0.00  0.00    +0.062 C 
ATOM     74  O   UNL     1     146.618 172.639 189.661  0.00  0.00    -0.345 OA
ATOM     75  H   UNL     1     148.793 171.909 191.204  0.00  0.00    +0.060 HD
ATOM     76  H   UNL     1     147.975 171.566 194.134  0.00  0.00    +0.032 HD
ATOM     77  H   UNL     1     146.246 172.968 193.756  0.00  0.00    +0.027 HD
ATOM     78  H   UNL     1     147.473 174.224 193.779  0.00  0.00    +0.027 HD
ATOM     79  H   UNL     1     147.693 174.073 191.303  0.00  0.00    +0.032 HD
ATOM     80  H   UNL     1     146.070 174.492 191.768  0.00  0.00    +0.032 HD
ATOM     81  H   UNL     1     144.466 172.607 192.262  0.00  0.00    +0.032 HD
ATOM     82  H   UNL     1     144.442 171.247 191.191  0.00  0.00    +0.032 HD
ATOM     83  H   UNL     1     144.169 174.158 190.348  0.00  0.00    +0.027 HD
ATOM     84  H   UNL     1     142.888 172.956 190.372  0.00  0.00    +0.027 HD
ATOM     85  H   UNL     1     144.302 173.571 188.175  0.00  0.00    +0.029 HD
ATOM     86  H   UNL     1     143.577 172.006 188.395  0.00  0.00    +0.029 HD
ATOM     87  H   UNL     1     146.144 172.377 187.715  0.00  0.00    +0.060 HD
BRANCH  65  88
ATOM     88  C   UNL     1     149.602 172.827 193.562  0.00  0.00    -0.060 C 
ATOM     89  H   UNL     1     149.518 173.801 194.055  0.00  0.00    +0.023 HD
ATOM     90  H   UNL     1     150.176 172.963 192.642  0.00  0.00    +0.023 HD
ATOM     91  H   UNL     1     150.187 172.170 194.218  0.00  0.00    +0.023 HD
ENDBRANCH  65  88
BRANCH  73  92
ATOM     92  C   UNL     1     145.824 170.521 188.694  0.00  0.00    -0.026 C 
ATOM     93  H   UNL     1     146.824 170.237 188.341  0.00  0.00    +0.029 HD
ATOM     94  H   UNL     1     145.753 170.137 189.713  0.00  0.00    +0.029 HD
BRANCH  92  95
ATOM     95  C   UNL     1     144.769 169.819 187.825  0.00  0.00    -0.045 C 
ATOM     96  H   UNL     1     144.175 170.568 187.291  0.00  0.00    +0.027 HD
ATOM     97  H   UNL     1     145.286 169.229 187.067  0.00  0.00    +0.027 HD
BRANCH  95  98
ATOM     98  C   UNL     1     143.804 168.941 188.651  0.00  0.00    -0.025 C 
ATOM     99  H   UNL     1     144.270 168.818 189.639  0.00  0.00    +0.034 HD
BRANCH  98 100
ATOM    100  C   UNL     1     143.607 167.536 188.082  0.00  0.00    -0.059 C 
ATOM    101  H   UNL     1     143.246 167.579 187.050  0.00  0.00    +0.024 HD
ATOM    102  H   UNL     1     142.886 166.962 188.667  0.00  0.00    +0.024 HD
ATOM    103  H   UNL     1     144.547 166.977 188.075  0.00  0.00    +0.024 HD
ENDBRANCH  98 100
BRANCH  98 104
ATOM    104  C   UNL     1     142.465 169.599 188.937  0.00  0.00    -0.080 C 
ATOM    105  C   UNL     1     141.875 169.925 190.109  0.00  0.00    -0.048 C 
ATOM    106  H   UNL     1     141.933 169.837 188.015  0.00  0.00    +0.058 HD
BRANCH 105 107
ATOM    107  C   UNL     1     142.551 169.769 191.445  0.00  0.00    -0.041 C 
ATOM    108  H   UNL     1     142.540 168.740 191.808  0.00  0.00    +0.028 HD
ATOM    109  H   UNL     1     143.608 170.053 191.380  0.00  0.00    +0.028 HD
ATOM    110  H   UNL     1     142.067 170.415 192.189  0.00  0.00    +0.028 HD
ENDBRANCH 105 107
BRANCH 105 111
ATOM    111  C   UNL     1     140.482 170.547 190.184  0.00  0.00    +0.073 C 
ATOM    112  H   UNL     1     140.149 170.797 189.171  0.00  0.00    +0.064 HD
BRANCH 111 113
ATOM    113  C   UNL     1     140.433 171.806 191.051  0.00  0.00    -0.035 C 
ATOM    114  H   UNL     1     139.401 172.036 191.336  0.00  0.00    +0.026 HD
ATOM    115  H   UNL     1     140.997 171.669 191.981  0.00  0.00    +0.026 HD
ATOM    116  H   UNL     1     140.842 172.673 190.522  0.00  0.00    +0.026 HD
ENDBRANCH 111 113
BRANCH 111 117
ATOM    117  O   UNL     1     139.529 169.625 190.715  0.00  0.00    -0.388 OA
ATOM    118  H   UNL     1     138.726 169.700 190.169  0.00  0.00    +0.210 HD
ENDBRANCH 111 117
ENDBRANCH 105 111
ENDBRANCH  98 104
ENDBRANCH  95  98
ENDBRANCH  92  95
ENDBRANCH  73  92
ENDBRANCH  61  64
ENDBRANCH   1  61
TORSDOF 27
ENDMDL
MODEL 3
REMARK VINA RESULT:      -6.8      3.025      6.513
REMARK  Name = Bistramide A_conf1
REMARK  27 active torsions:
REMARK  status: ('A' for Active; 'I' for Inactive)
REMARK    1  A    between atoms: C_1  and  C_2
REMARK    2  A    between atoms: C_3  and  C_4
REMARK    3  A    between atoms: C_4  and  C_6
REMARK    4  A    between atoms: C_6  and  C_7
REMARK    5  A    between atoms: C_10  and  C_50
REMARK    6  A    between atoms: C_11  and  C_13
REMARK    7  A    between atoms: C_13  and  C_14
REMARK    8  A    between atoms: N_16  and  C_17
REMARK    9  A    between atoms: C_17  and  C_18
REMARK   10  A    between atoms: C_18  and  C_19
REMARK   11  A    between atoms: C_18  and  O_49
REMARK   12  A    between atoms: C_19  and  C_20
REMARK   13  A    between atoms: C_19  and  C_21
REMARK   14  A    between atoms: N_23  and  C_24
REMARK   15  A    between atoms: C_24  and  C_25
REMARK   16  A    between atoms: C_25  and  C_26
REMARK   17  A    between atoms: C_26  and  C_27
REMARK   18  A    between atoms: C_28  and  C_48
REMARK   19  A    between atoms: C_36  and  C_38
REMARK   20  A    between atoms: C_38  and  C_39
REMARK   21  A    between atoms: C_39  and  C_40
REMARK   22  A    between atoms: C_40  and  C_41
REMARK   23  A    between atoms: C_40  and  C_42
REMARK   24  A    between atoms: C_43  and  C_44
REMARK   25  A    between atoms: C_43  and  C_45
REMARK   26  A    between atoms: C_45  and  C_46
REMARK   27  A    between atoms: C_45  and  O_47
REMARK                            x       y       z     vdW  Elec       q    Type
REMARK                         _______ _______ _______ _____ _____    ______ ____
ROOT
ATOM      1  C   UNL     1     146.514 166.400 191.720  0.00  0.00    -0.035 C 
ATOM      2  H   UNL     1     147.394 166.498 191.070  0.00  0.00    +0.028 HD
ATOM      3  H   UNL     1     146.144 165.379 191.575  0.00  0.00    +0.028 HD
ENDROOT
BRANCH   1   4
ATOM      4  C   UNL     1     145.475 167.428 191.281  0.00  0.00    +0.012 C 
ATOM      5  H   UNL     1     144.667 166.970 190.698  0.00  0.00    +0.046 HD
ATOM      6  H   UNL     1     145.006 167.898 192.157  0.00  0.00    +0.046 HD
BRANCH   4   9
ATOM      7  C   UNL     1     145.803 168.492 189.083  0.00  0.00    +0.218 C 
ATOM      8  O   UNL     1     144.982 167.773 188.520  0.00  0.00    -0.275 OA
ATOM      9  N   UNL     1     146.037 168.457 190.437  0.00  0.00    -0.315 N 
ATOM     10  H   UNL     1     146.800 169.037 190.789  0.00  0.00    +0.149 HD
BRANCH   7  11
ATOM     11  C   UNL     1     146.666 169.480 188.304  0.00  0.00    +0.060 C 
ATOM     12  H   UNL     1     147.265 170.016 189.053  0.00  0.00    +0.042 HD
BRANCH  11  13
ATOM     13  C   UNL     1     147.621 168.731 187.377  0.00  0.00    -0.052 C 
ATOM     14  H   UNL     1     147.638 169.150 186.368  0.00  0.00    +0.024 HD
ATOM     15  H   UNL     1     148.640 168.762 187.776  0.00  0.00    +0.024 HD
ATOM     16  H   UNL     1     147.326 167.680 187.286  0.00  0.00    +0.024 HD
ENDBRANCH  11  13
BRANCH  11  17
ATOM     17  C   UNL     1     145.802 170.523 187.561  0.00  0.00    +0.081 C 
ATOM     18  H   UNL     1     146.446 171.358 187.276  0.00  0.00    +0.062 HD
BRANCH  17  19
ATOM     19  C   UNL     1     144.627 171.033 188.427  0.00  0.00    +0.038 C 
ATOM     20  H   UNL     1     143.868 171.519 187.807  0.00  0.00    +0.049 HD
ATOM     21  H   UNL     1     144.160 170.201 188.967  0.00  0.00    +0.049 HD
BRANCH  19  24
ATOM     22  C   UNL     1     144.844 171.782 190.812  0.00  0.00    +0.216 C 
ATOM     23  O   UNL     1     144.251 170.814 191.277  0.00  0.00    -0.276 OA
ATOM     24  N   UNL     1     144.980 172.001 189.458  0.00  0.00    -0.313 N 
ATOM     25  H   UNL     1     145.493 172.822 189.162  0.00  0.00    +0.149 HD
BRANCH  22  26
ATOM     26  C   UNL     1     145.575 172.806 191.656  0.00  0.00    +0.050 C 
ATOM     27  H   UNL     1     145.389 173.771 191.163  0.00  0.00    +0.038 HD
ATOM     28  H   UNL     1     145.126 172.828 192.655  0.00  0.00    +0.038 HD
BRANCH  26  33
ATOM     29  C   UNL     1     148.613 170.823 192.541  0.00  0.00    +0.066 C 
ATOM     30  C   UNL     1     149.467 171.871 193.267  0.00  0.00    -0.026 C 
ATOM     31  C   UNL     1     149.301 173.268 192.673  0.00  0.00    -0.046 C 
ATOM     32  C   UNL     1     147.821 173.649 192.532  0.00  0.00    -0.017 C 
ATOM     33  C   UNL     1     147.082 172.538 191.749  0.00  0.00    +0.070 C 
ATOM     34  O   UNL     1     147.255 171.271 192.400  0.00  0.00    -0.372 OA
ATOM     35  H   UNL     1     148.552 169.942 193.190  0.00  0.00    +0.060 HD
ATOM     36  H   UNL     1     150.526 171.590 193.273  0.00  0.00    +0.029 HD
ATOM     37  H   UNL     1     149.152 171.904 194.318  0.00  0.00    +0.029 HD
ATOM     38  H   UNL     1     149.775 173.299 191.683  0.00  0.00    +0.027 HD
ATOM     39  H   UNL     1     149.834 174.000 193.295  0.00  0.00    +0.027 HD
ATOM     40  H   UNL     1     147.770 174.584 191.956  0.00  0.00    +0.032 HD
ATOM     41  H   UNL     1     147.520 172.483 190.744  0.00  0.00    +0.060 HD
BRANCH  32  42
ATOM     42  C   UNL     1     147.205 173.930 193.914  0.00  0.00    -0.060 C 
ATOM     43  H   UNL     1     146.270 174.497 193.839  0.00  0.00    +0.023 HD
ATOM     44  H   UNL     1     147.896 174.505 194.539  0.00  0.00    +0.023 HD
ATOM     45  H   UNL     1     146.996 172.990 194.440  0.00  0.00    +0.023 HD
ENDBRANCH  32  42
BRANCH  29  46
ATOM     46  C   UNL     1     149.198 170.381 191.193  0.00  0.00    +0.036 C 
ATOM     47  H   UNL     1     150.045 171.014 190.904  0.00  0.00    +0.037 HD
ATOM     48  H   UNL     1     148.439 170.488 190.403  0.00  0.00    +0.037 HD
BRANCH  46  49
ATOM     49  C   UNL     1     149.626 168.927 191.228  0.00  0.00    +0.158 C 
ATOM     50  O   UNL     1     149.213 168.099 190.422  0.00  0.00    -0.293 OA
BRANCH  49  52
ATOM     51  C   UNL     1     151.819 168.068 191.948  0.00  0.00    -0.084 C 
ATOM     52  C   UNL     1     150.612 168.544 192.283  0.00  0.00    -0.023 C 
ATOM     53  H   UNL     1     152.087 167.964 190.895  0.00  0.00    +0.057 HD
ATOM     54  H   UNL     1     150.306 168.661 193.315  0.00  0.00    +0.065 HD
BRANCH  51  55
ATOM     55  C   UNL     1     152.869 167.660 192.929  0.00  0.00    -0.046 C 
ATOM     56  H   UNL     1     152.497 167.798 193.950  0.00  0.00    +0.027 HD
ATOM     57  H   UNL     1     153.793 168.238 192.820  0.00  0.00    +0.027 HD
ATOM     58  H   UNL     1     153.113 166.601 192.795  0.00  0.00    +0.027 HD
ENDBRANCH  51  55
ENDBRANCH  49  52
ENDBRANCH  46  49
ENDBRANCH  29  46
ENDBRANCH  26  33
ENDBRANCH  22  26
ENDBRANCH  19  24
ENDBRANCH  17  19
BRANCH  17  59
ATOM     59  O   UNL     1     145.310 169.935 186.351  0.00  0.00    -0.390 OA
ATOM     60  H   UNL     1     144.477 169.469 186.594  0.00  0.00    +0.210 HD
ENDBRANCH  17  59
ENDBRANCH  11  17
ENDBRANCH   7  11
ENDBRANCH   4   9
ENDBRANCH   1   4
BRANCH   1  61
ATOM     61  C   UNL     1     146.940 166.598 193.181  0.00  0.00    -0.025 C 
ATOM     62  H   UNL     1     147.251 167.646 193.292  0.00  0.00    +0.029 HD
ATOM     63  H   UNL     1     146.074 166.445 193.833  0.00  0.00    +0.029 HD
BRANCH  61  64
ATOM     64  C   UNL     1     148.114 165.688 193.595  0.00  0.00    +0.065 C 
ATOM     65  C   UNL     1     149.010 166.362 194.661  0.00  0.00    -0.017 C 
ATOM     66  C   UNL     1     150.432 165.776 194.646  0.00  0.00    -0.043 C 
ATOM     67  C   UNL     1     150.428 164.375 194.044  0.00  0.00    +0.002 C 
ATOM     68  C   UNL     1     149.876 164.392 192.597  0.00  0.00    +0.171 C 
ATOM     69  O   UNL     1     148.900 165.430 192.427  0.00  0.00    -0.345 OA
ATOM     70  C   UNL     1     151.022 164.689 191.602  0.00  0.00    +0.002 C 
ATOM     71  C   UNL     1     151.730 163.422 191.170  0.00  0.00    -0.046 C 
ATOM     72  C   UNL     1     150.747 162.425 190.564  0.00  0.00    -0.026 C 
ATOM     73  C   UNL     1     149.299 162.605 191.041  0.00  0.00    +0.062 C 
ATOM     74  O   UNL     1     149.285 163.104 192.381  0.00  0.00    -0.345 OA
ATOM     75  H   UNL     1     147.723 164.737 193.973  0.00  0.00    +0.060 HD
ATOM     76  H   UNL     1     149.096 167.434 194.435  0.00  0.00    +0.032 HD
ATOM     77  H   UNL     1     151.079 166.427 194.042  0.00  0.00    +0.027 HD
ATOM     78  H   UNL     1     150.869 165.752 195.649  0.00  0.00    +0.027 HD
ATOM     79  H   UNL     1     149.814 163.718 194.672  0.00  0.00    +0.032 HD
ATOM     80  H   UNL     1     151.432 163.941 194.072  0.00  0.00    +0.032 HD
ATOM     81  H   UNL     1     151.739 165.397 192.034  0.00  0.00    +0.032 HD
ATOM     82  H   UNL     1     150.639 165.200 190.711  0.00  0.00    +0.032 HD
ATOM     83  H   UNL     1     152.223 162.963 192.034  0.00  0.00    +0.027 HD
ATOM     84  H   UNL     1     152.521 163.651 190.444  0.00  0.00    +0.027 HD
ATOM     85  H   UNL     1     151.086 161.418 190.848  0.00  0.00    +0.029 HD
ATOM     86  H   UNL     1     150.820 162.448 189.472  0.00  0.00    +0.029 HD
ATOM     87  H   UNL     1     148.865 161.600 191.100  0.00  0.00    +0.060 HD
BRANCH  65  88
ATOM     88  C   UNL     1     148.393 166.238 196.060  0.00  0.00    -0.060 C 
ATOM     89  H   UNL     1     149.162 166.295 196.839  0.00  0.00    +0.023 HD
ATOM     90  H   UNL     1     147.855 165.295 196.186  0.00  0.00    +0.023 HD
ATOM     91  H   UNL     1     147.677 167.050 196.240  0.00  0.00    +0.023 HD
ENDBRANCH  65  88
BRANCH  73  92
ATOM     92  C   UNL     1     148.373 163.416 190.117  0.00  0.00    -0.026 C 
ATOM     93  H   UNL     1     147.401 162.906 190.093  0.00  0.00    +0.029 HD
ATOM     94  H   UNL     1     148.175 164.402 190.539  0.00  0.00    +0.029 HD
BRANCH  92  95
ATOM     95  C   UNL     1     148.885 163.585 188.679  0.00  0.00    -0.045 C 
ATOM     96  H   UNL     1     149.954 163.350 188.640  0.00  0.00    +0.027 HD
ATOM     97  H   UNL     1     148.380 162.855 188.046  0.00  0.00    +0.027 HD
BRANCH  95  98
ATOM     98  C   UNL     1     148.689 165.019 188.140  0.00  0.00    -0.025 C 
ATOM     99  H   UNL     1     147.952 165.497 188.801  0.00  0.00    +0.034 HD
BRANCH  98 100
ATOM    100  C   UNL     1     148.108 165.074 186.727  0.00  0.00    -0.059 C 
ATOM    101  H   UNL     1     148.739 165.679 186.069  0.00  0.00    +0.024 HD
ATOM    102  H   UNL     1     147.105 165.503 186.720  0.00  0.00    +0.024 HD
ATOM    103  H   UNL     1     148.044 164.075 186.287  0.00  0.00    +0.024 HD
ENDBRANCH  98 100
BRANCH  98 104
ATOM    104  C   UNL     1     149.926 165.893 188.248  0.00  0.00    -0.080 C 
ATOM    105  C   UNL     1     151.214 165.643 187.919  0.00  0.00    -0.048 C 
ATOM    106  H   UNL     1     149.686 166.876 188.655  0.00  0.00    +0.058 HD
BRANCH 105 107
ATOM    107  C   UNL     1     151.660 164.379 187.233  0.00  0.00    -0.041 C 
ATOM    108  H   UNL     1     151.427 163.481 187.808  0.00  0.00    +0.028 HD
ATOM    109  H   UNL     1     151.151 164.261 186.270  0.00  0.00    +0.028 HD
ATOM    110  H   UNL     1     152.741 164.414 187.049  0.00  0.00    +0.028 HD
ENDBRANCH 105 107
BRANCH 105 111
ATOM    111  C   UNL     1     152.334 166.654 188.154  0.00  0.00    +0.073 C 
ATOM    112  H   UNL     1     152.847 166.844 187.206  0.00  0.00    +0.064 HD
BRANCH 111 113
ATOM    113  C   UNL     1     153.356 166.185 189.191  0.00  0.00    -0.035 C 
ATOM    114  H   UNL     1     153.251 166.756 190.120  0.00  0.00    +0.026 HD
ATOM    115  H   UNL     1     153.205 165.130 189.447  0.00  0.00    +0.026 HD
ATOM    116  H   UNL     1     154.381 166.311 188.828  0.00  0.00    +0.026 HD
ENDBRANCH 111 113
BRANCH 111 117
ATOM    117  O   UNL     1     151.817 167.909 188.601  0.00  0.00    -0.388 OA
ATOM    118  H   UNL     1     151.595 167.806 189.543  0.00  0.00    +0.210 HD
ENDBRANCH 111 117
ENDBRANCH 105 111
ENDBRANCH  98 104
ENDBRANCH  95  98
ENDBRANCH  92  95
ENDBRANCH  73  92
ENDBRANCH  61  64
ENDBRANCH   1  61
TORSDOF 27
ENDMDL
MODEL 4
REMARK VINA RESULT:      -6.8      2.805      8.878
REMARK  Name = Bistramide A_conf1
REMARK  27 active torsions:
REMARK  status: ('A' for Active; 'I' for Inactive)
REMARK    1  A    between atoms: C_1  and  C_2
REMARK    2  A    between atoms: C_3  and  C_4
REMARK    3  A    between atoms: C_4  and  C_6
REMARK    4  A    between atoms: C_6  and  C_7
REMARK    5  A    between atoms: C_10  and  C_50
REMARK    6  A    between atoms: C_11  and  C_13
REMARK    7  A    between atoms: C_13  and  C_14
REMARK    8  A    between atoms: N_16  and  C_17
REMARK    9  A    between atoms: C_17  and  C_18
REMARK   10  A    between atoms: C_18  and  C_19
REMARK   11  A    between atoms: C_18  and  O_49
REMARK   12  A    between atoms: C_19  and  C_20
REMARK   13  A    between atoms: C_19  and  C_21
REMARK   14  A    between atoms: N_23  and  C_24
REMARK   15  A    between atoms: C_24  and  C_25
REMARK   16  A    between atoms: C_25  and  C_26
REMARK   17  A    between atoms: C_26  and  C_27
REMARK   18  A    between atoms: C_28  and  C_48
REMARK   19  A    between atoms: C_36  and  C_38
REMARK   20  A    between atoms: C_38  and  C_39
REMARK   21  A    between atoms: C_39  and  C_40
REMARK   22  A    between atoms: C_40  and  C_41
REMARK   23  A    between atoms: C_40  and  C_42
REMARK   24  A    between atoms: C_43  and  C_44
REMARK   25  A    between atoms: C_43  and  C_45
REMARK   26  A    between atoms: C_45  and  C_46
REMARK   27  A    between atoms: C_45  and  O_47
REMARK                            x       y       z     vdW  Elec       q    Type
REMARK                         _______ _______ _______ _____ _____    ______ ____
ROOT
ATOM      1  C   UNL     1     145.764 171.025 187.824  0.00  0.00    -0.035 C 
ATOM      2  H   UNL     1     144.977 171.322 187.117  0.00  0.00    +0.028 HD
ATOM      3  H   UNL     1     146.303 171.944 188.080  0.00  0.00    +0.028 HD
ENDROOT
BRANCH   1   4
ATOM      4  C   UNL     1     146.684 170.025 187.128  0.00  0.00    +0.012 C 
ATOM      5  H   UNL     1     146.251 169.654 186.193  0.00  0.00    +0.046 HD
ATOM      6  H   UNL     1     147.640 170.501 186.869  0.00  0.00    +0.046 HD
BRANCH   4   9
ATOM      7  C   UNL     1     146.857 167.585 187.419  0.00  0.00    +0.218 C 
ATOM      8  O   UNL     1     146.727 167.349 186.221  0.00  0.00    -0.275 OA
ATOM      9  N   UNL     1     146.942 168.855 187.936  0.00  0.00    -0.315 N 
ATOM     10  H   UNL     1     146.964 168.940 188.954  0.00  0.00    +0.149 HD
BRANCH   7  11
ATOM     11  C   UNL     1     146.907 166.463 188.452  0.00  0.00    +0.060 C 
ATOM     12  H   UNL     1     146.512 165.569 187.949  0.00  0.00    +0.042 HD
BRANCH  11  13
ATOM     13  C   UNL     1     148.353 166.182 188.857  0.00  0.00    -0.052 C 
ATOM     14  H   UNL     1     148.759 165.294 188.367  0.00  0.00    +0.024 HD
ATOM     15  H   UNL     1     148.991 167.035 188.602  0.00  0.00    +0.024 HD
ATOM     16  H   UNL     1     148.426 166.019 189.937  0.00  0.00    +0.024 HD
ENDBRANCH  11  13
BRANCH  11  17
ATOM     17  C   UNL     1     145.992 166.763 189.660  0.00  0.00    +0.081 C 
ATOM     18  H   UNL     1     146.303 167.716 190.095  0.00  0.00    +0.062 HD
BRANCH  17  19
ATOM     19  C   UNL     1     146.053 165.649 190.730  0.00  0.00    +0.038 C 
ATOM     20  H   UNL     1     145.048 165.372 191.062  0.00  0.00    +0.049 HD
ATOM     21  H   UNL     1     146.549 164.758 190.328  0.00  0.00    +0.049 HD
BRANCH  19  24
ATOM     22  C   UNL     1     146.212 166.302 193.148  0.00  0.00    +0.216 C 
ATOM     23  O   UNL     1     145.010 166.510 193.277  0.00  0.00    -0.276 OA
ATOM     24  N   UNL     1     146.795 165.980 191.941  0.00  0.00    -0.313 N 
ATOM     25  H   UNL     1     147.793 165.815 191.928  0.00  0.00    +0.149 HD
BRANCH  22  26
ATOM     26  C   UNL     1     147.191 166.282 194.304  0.00  0.00    +0.050 C 
ATOM     27  H   UNL     1     147.098 167.270 194.777  0.00  0.00    +0.038 HD
ATOM     28  H   UNL     1     146.877 165.517 195.022  0.00  0.00    +0.038 HD
BRANCH  26  33
ATOM     29  C   UNL     1     150.071 164.216 193.128  0.00  0.00    +0.066 C 
ATOM     30  C   UNL     1     151.183 164.657 194.089  0.00  0.00    -0.026 C 
ATOM     31  C   UNL     1     151.075 166.134 194.462  0.00  0.00    -0.046 C 
ATOM     32  C   UNL     1     149.659 166.497 194.928  0.00  0.00    -0.017 C 
ATOM     33  C   UNL     1     148.638 166.040 193.858  0.00  0.00    +0.070 C 
ATOM     34  O   UNL     1     148.781 164.635 193.603  0.00  0.00    -0.372 OA
ATOM     35  H   UNL     1     150.035 163.120 193.149  0.00  0.00    +0.060 HD
ATOM     36  H   UNL     1     152.175 164.447 193.676  0.00  0.00    +0.029 HD
ATOM     37  H   UNL     1     151.100 164.063 195.008  0.00  0.00    +0.029 HD
ATOM     38  H   UNL     1     151.333 166.748 193.588  0.00  0.00    +0.027 HD
ATOM     39  H   UNL     1     151.814 166.375 195.238  0.00  0.00    +0.027 HD
ATOM     40  H   UNL     1     149.607 167.591 195.022  0.00  0.00    +0.032 HD
ATOM     41  H   UNL     1     148.847 166.592 192.933  0.00  0.00    +0.060 HD
BRANCH  32  42
ATOM     42  C   UNL     1     149.384 165.904 196.322  0.00  0.00    -0.060 C 
ATOM     43  H   UNL     1     149.483 166.656 197.114  0.00  0.00    +0.023 HD
ATOM     44  H   UNL     1     150.082 165.090 196.543  0.00  0.00    +0.023 HD
ATOM     45  H   UNL     1     148.371 165.487 196.369  0.00  0.00    +0.023 HD
ENDBRANCH  32  42
BRANCH  29  46
ATOM     46  C   UNL     1     150.302 164.657 191.677  0.00  0.00    +0.036 C 
ATOM     47  H   UNL     1     151.000 165.501 191.628  0.00  0.00    +0.037 HD
ATOM     48  H   UNL     1     149.355 165.005 191.236  0.00  0.00    +0.037 HD
BRANCH  46  49
ATOM     49  C   UNL     1     150.814 163.510 190.827  0.00  0.00    +0.158 C 
ATOM     50  O   UNL     1     151.995 163.401 190.512  0.00  0.00    -0.293 OA
BRANCH  49  52
ATOM     51  C   UNL     1     148.539 162.838 190.167  0.00  0.00    -0.084 C 
ATOM     52  C   UNL     1     149.810 162.487 190.408  0.00  0.00    -0.023 C 
ATOM     53  H   UNL     1     148.235 163.881 190.273  0.00  0.00    +0.057 HD
ATOM     54  H   UNL     1     150.151 161.463 190.317  0.00  0.00    +0.065 HD
BRANCH  51  55
ATOM     55  C   UNL     1     147.466 161.888 189.744  0.00  0.00    -0.046 C 
ATOM     56  H   UNL     1     146.590 162.447 189.399  0.00  0.00    +0.027 HD
ATOM     57  H   UNL     1     147.151 161.224 190.555  0.00  0.00    +0.027 HD
ATOM     58  H   UNL     1     147.823 161.269 188.916  0.00  0.00    +0.027 HD
ENDBRANCH  51  55
ENDBRANCH  49  52
ENDBRANCH  46  49
ENDBRANCH  29  46
ENDBRANCH  26  33
ENDBRANCH  22  26
ENDBRANCH  19  24
ENDBRANCH  17  19
BRANCH  17  59
ATOM     59  O   UNL     1     144.649 166.930 189.190  0.00  0.00    -0.390 OA
ATOM     60  H   UNL     1     144.715 167.047 188.214  0.00  0.00    +0.210 HD
ENDBRANCH  17  59
ENDBRANCH  11  17
ENDBRANCH   7  11
ENDBRANCH   4   9
ENDBRANCH   1   4
BRANCH   1  61
ATOM     61  C   UNL     1     145.114 170.432 189.082  0.00  0.00    -0.025 C 
ATOM     62  H   UNL     1     144.061 170.229 188.841  0.00  0.00    +0.029 HD
ATOM     63  H   UNL     1     145.587 169.473 189.314  0.00  0.00    +0.029 HD
BRANCH  61  64
ATOM     64  C   UNL     1     145.168 171.385 190.294  0.00  0.00    +0.065 C 
ATOM     65  C   UNL     1     144.172 172.559 190.141  0.00  0.00    -0.017 C 
ATOM     66  C   UNL     1     144.607 173.772 190.980  0.00  0.00    -0.043 C 
ATOM     67  C   UNL     1     145.510 173.334 192.127  0.00  0.00    +0.002 C 
ATOM     68  C   UNL     1     146.773 172.612 191.598  0.00  0.00    +0.171 C 
ATOM     69  O   UNL     1     146.496 171.914 190.375  0.00  0.00    -0.345 OA
ATOM     70  C   UNL     1     147.876 173.648 191.280  0.00  0.00    +0.002 C 
ATOM     71  C   UNL     1     148.727 173.950 192.495  0.00  0.00    -0.046 C 
ATOM     72  C   UNL     1     149.345 172.675 193.061  0.00  0.00    -0.026 C 
ATOM     73  C   UNL     1     148.563 171.397 192.725  0.00  0.00    +0.062 C 
ATOM     74  O   UNL     1     147.167 171.692 192.624  0.00  0.00    -0.345 OA
ATOM     75  H   UNL     1     144.956 170.824 191.209  0.00  0.00    +0.060 HD
ATOM     76  H   UNL     1     144.150 172.880 189.090  0.00  0.00    +0.032 HD
ATOM     77  H   UNL     1     145.154 174.474 190.336  0.00  0.00    +0.027 HD
ATOM     78  H   UNL     1     143.744 174.322 191.371  0.00  0.00    +0.027 HD
ATOM     79  H   UNL     1     144.947 172.667 192.792  0.00  0.00    +0.032 HD
ATOM     80  H   UNL     1     145.785 174.192 192.750  0.00  0.00    +0.032 HD
ATOM     81  H   UNL     1     147.439 174.573 190.884  0.00  0.00    +0.032 HD
ATOM     82  H   UNL     1     148.527 173.288 190.475  0.00  0.00    +0.032 HD
ATOM     83  H   UNL     1     148.112 174.425 193.267  0.00  0.00    +0.027 HD
ATOM     84  H   UNL     1     149.519 174.666 192.244  0.00  0.00    +0.027 HD
ATOM     85  H   UNL     1     149.381 172.786 194.154  0.00  0.00    +0.029 HD
ATOM     86  H   UNL     1     150.393 172.601 192.752  0.00  0.00    +0.029 HD
ATOM     87  H   UNL     1     148.659 170.737 193.595  0.00  0.00    +0.060 HD
BRANCH  65  88
ATOM     88  C   UNL     1     142.749 172.128 190.516  0.00  0.00    -0.060 C 
ATOM     89  H   UNL     1     142.020 172.908 190.268  0.00  0.00    +0.023 HD
ATOM     90  H   UNL     1     142.658 171.911 191.584  0.00  0.00    +0.023 HD
ATOM     91  H   UNL     1     142.463 171.220 189.972  0.00  0.00    +0.023 HD
ENDBRANCH  65  88
BRANCH  73  92
ATOM     92  C   UNL     1     149.066 170.588 191.517  0.00  0.00    -0.026 C 
ATOM     93  H   UNL     1     148.323 170.694 190.716  0.00  0.00    +0.029 HD
ATOM     94  H   UNL     1     149.986 171.017 191.121  0.00  0.00    +0.029 HD
BRANCH  92  95
ATOM     95  C   UNL     1     149.293 169.094 191.792  0.00  0.00    -0.045 C 
ATOM     96  H   UNL     1     148.956 168.851 192.806  0.00  0.00    +0.027 HD
ATOM     97  H   UNL     1     148.668 168.518 191.107  0.00  0.00    +0.027 HD
BRANCH  95  98
ATOM     98  C   UNL     1     150.777 168.683 191.668  0.00  0.00    -0.025 C 
ATOM     99  H   UNL     1     150.925 167.853 192.374  0.00  0.00    +0.034 HD
BRANCH  98 100
ATOM    100  C   UNL     1     151.758 169.783 192.074  0.00  0.00    -0.059 C 
ATOM    101  H   UNL     1     152.547 169.384 192.719  0.00  0.00    +0.024 HD
ATOM    102  H   UNL     1     151.258 170.590 192.614  0.00  0.00    +0.024 HD
ATOM    103  H   UNL     1     152.244 170.222 191.199  0.00  0.00    +0.024 HD
ENDBRANCH  98 100
BRANCH  98 104
ATOM    104  C   UNL     1     151.145 168.107 190.313  0.00  0.00    -0.080 C 
ATOM    105  C   UNL     1     152.154 167.282 189.949  0.00  0.00    -0.048 C 
ATOM    106  H   UNL     1     150.448 168.431 189.539  0.00  0.00    +0.058 HD
BRANCH 105 107
ATOM    107  C   UNL     1     153.107 166.661 190.935  0.00  0.00    -0.041 C 
ATOM    108  H   UNL     1     152.951 165.588 191.057  0.00  0.00    +0.028 HD
ATOM    109  H   UNL     1     154.143 166.777 190.597  0.00  0.00    +0.028 HD
ATOM    110  H   UNL     1     153.008 167.149 191.913  0.00  0.00    +0.028 HD
ENDBRANCH 105 107
BRANCH 105 111
ATOM    111  C   UNL     1     152.382 166.851 188.503  0.00  0.00    +0.073 C 
ATOM    112  H   UNL     1     152.011 165.828 188.373  0.00  0.00    +0.064 HD
BRANCH 111 113
ATOM    113  C   UNL     1     153.853 166.906 188.086  0.00  0.00    -0.035 C 
ATOM    114  H   UNL     1     154.310 165.912 188.155  0.00  0.00    +0.026 HD
ATOM    115  H   UNL     1     153.958 167.232 187.044  0.00  0.00    +0.026 HD
ATOM    116  H   UNL     1     154.424 167.589 188.723  0.00  0.00    +0.026 HD
ENDBRANCH 111 113
BRANCH 111 117
ATOM    117  O   UNL     1     151.649 167.672 187.592  0.00  0.00    -0.388 OA
ATOM    118  H   UNL     1     151.327 168.439 188.097  0.00  0.00    +0.210 HD
ENDBRANCH 111 117
ENDBRANCH 105 111
ENDBRANCH  98 104
ENDBRANCH  95  98
ENDBRANCH  92  95
ENDBRANCH  73  92
ENDBRANCH  61  64
ENDBRANCH   1  61
TORSDOF 27
ENDMDL
MODEL 5
REMARK VINA RESULT:      -6.8      1.730      3.156
REMARK  Name = Bistramide A_conf1
REMARK  27 active torsions:
REMARK  status: ('A' for Active; 'I' for Inactive)
REMARK    1  A    between atoms: C_1  and  C_2
REMARK    2  A    between atoms: C_3  and  C_4
REMARK    3  A    between atoms: C_4  and  C_6
REMARK    4  A    between atoms: C_6  and  C_7
REMARK    5  A    between atoms: C_10  and  C_50
REMARK    6  A    between atoms: C_11  and  C_13
REMARK    7  A    between atoms: C_13  and  C_14
REMARK    8  A    between atoms: N_16  and  C_17
REMARK    9  A    between atoms: C_17  and  C_18
REMARK   10  A    between atoms: C_18  and  C_19
REMARK   11  A    between atoms: C_18  and  O_49
REMARK   12  A    between atoms: C_19  and  C_20
REMARK   13  A    between atoms: C_19  and  C_21
REMARK   14  A    between atoms: N_23  and  C_24
REMARK   15  A    between atoms: C_24  and  C_25
REMARK   16  A    between atoms: C_25  and  C_26
REMARK   17  A    between atoms: C_26  and  C_27
REMARK   18  A    between atoms: C_28  and  C_48
REMARK   19  A    between atoms: C_36  and  C_38
REMARK   20  A    between atoms: C_38  and  C_39
REMARK   21  A    between atoms: C_39  and  C_40
REMARK   22  A    between atoms: C_40  and  C_41
REMARK   23  A    between atoms: C_40  and  C_42
REMARK   24  A    between atoms: C_43  and  C_44
REMARK   25  A    between atoms: C_43  and  C_45
REMARK   26  A    between atoms: C_45  and  C_46
REMARK   27  A    between atoms: C_45  and  O_47
REMARK                            x       y       z     vdW  Elec       q    Type
REMARK                         _______ _______ _______ _____ _____    ______ ____
ROOT
ATOM      1  C   UNL     1     147.620 167.488 192.360  0.00  0.00    -0.035 C 
ATOM      2  H   UNL     1     147.896 166.579 191.808  0.00  0.00    +0.028 HD
ATOM      3  H   UNL     1     146.526 167.530 192.345  0.00  0.00    +0.028 HD
ENDROOT
BRANCH   1   4
ATOM      4  C   UNL     1     148.227 168.689 191.641  0.00  0.00    +0.012 C 
ATOM      5  H   UNL     1     149.322 168.678 191.678  0.00  0.00    +0.046 HD
ATOM      6  H   UNL     1     147.946 168.682 190.579  0.00  0.00    +0.046 HD
BRANCH   4   9
ATOM      7  C   UNL     1     148.704 170.990 192.382  0.00  0.00    +0.218 C 
ATOM      8  O   UNL     1     149.831 171.002 191.892  0.00  0.00    -0.275 OA
ATOM      9  N   UNL     1     147.823 169.947 192.227  0.00  0.00    -0.315 N 
ATOM     10  H   UNL     1     146.945 170.003 192.746  0.00  0.00    +0.149 HD
BRANCH   7  11
ATOM     11  C   UNL     1     148.195 172.144 193.240  0.00  0.00    +0.060 C 
ATOM     12  H   UNL     1     147.821 171.690 194.168  0.00  0.00    +0.042 HD
BRANCH  11  13
ATOM     13  C   UNL     1     149.345 173.083 193.599  0.00  0.00    -0.052 C 
ATOM     14  H   UNL     1     150.308 172.727 193.225  0.00  0.00    +0.024 HD
ATOM     15  H   UNL     1     149.165 174.080 193.183  0.00  0.00    +0.024 HD
ATOM     16  H   UNL     1     149.437 173.183 194.686  0.00  0.00    +0.024 HD
ENDBRANCH  11  13
BRANCH  11  17
ATOM     17  C   UNL     1     147.012 172.873 192.566  0.00  0.00    +0.081 C 
ATOM     18  H   UNL     1     146.188 172.163 192.461  0.00  0.00    +0.062 HD
BRANCH  17  19
ATOM     19  C   UNL     1     147.393 173.448 191.182  0.00  0.00    +0.038 C 
ATOM     20  H   UNL     1     147.683 174.499 191.263  0.00  0.00    +0.049 HD
ATOM     21  H   UNL     1     148.227 172.885 190.749  0.00  0.00    +0.049 HD
BRANCH  19  24
ATOM     22  C   UNL     1     145.798 172.241 189.666  0.00  0.00    +0.216 C 
ATOM     23  O   UNL     1     146.265 171.129 189.892  0.00  0.00    -0.276 OA
ATOM     24  N   UNL     1     146.343 173.402 190.172  0.00  0.00    -0.313 N 
ATOM     25  H   UNL     1     145.886 174.276 189.942  0.00  0.00    +0.149 HD
BRANCH  22  26
ATOM     26  C   UNL     1     144.522 172.474 188.884  0.00  0.00    +0.050 C 
ATOM     27  H   UNL     1     144.814 173.118 188.042  0.00  0.00    +0.038 HD
ATOM     28  H   UNL     1     144.167 171.516 188.489  0.00  0.00    +0.038 HD
BRANCH  26  33
ATOM     29  C   UNL     1     142.849 173.551 192.044  0.00  0.00    +0.066 C 
ATOM     30  C   UNL     1     141.403 173.100 191.800  0.00  0.00    -0.026 C 
ATOM     31  C   UNL     1     140.993 173.232 190.335  0.00  0.00    -0.046 C 
ATOM     32  C   UNL     1     142.022 172.584 189.399  0.00  0.00    -0.017 C 
ATOM     33  C   UNL     1     143.427 173.152 189.715  0.00  0.00    +0.070 C 
ATOM     34  O   UNL     1     143.746 172.945 191.099  0.00  0.00    -0.372 OA
ATOM     35  H   UNL     1     143.156 173.154 193.018  0.00  0.00    +0.060 HD
ATOM     36  H   UNL     1     140.699 173.646 192.436  0.00  0.00    +0.029 HD
ATOM     37  H   UNL     1     141.319 172.043 192.086  0.00  0.00    +0.029 HD
ATOM     38  H   UNL     1     140.898 174.297 190.081  0.00  0.00    +0.027 HD
ATOM     39  H   UNL     1     139.999 172.789 190.186  0.00  0.00    +0.027 HD
ATOM     40  H   UNL     1     141.755 172.855 188.368  0.00  0.00    +0.032 HD
ATOM     41  H   UNL     1     143.409 174.231 189.513  0.00  0.00    +0.060 HD
BRANCH  32  42
ATOM     42  C   UNL     1     141.950 171.050 189.502  0.00  0.00    -0.060 C 
ATOM     43  H   UNL     1     142.329 170.686 190.465  0.00  0.00    +0.023 HD
ATOM     44  H   UNL     1     142.541 170.579 188.710  0.00  0.00    +0.023 HD
ATOM     45  H   UNL     1     140.916 170.705 189.387  0.00  0.00    +0.023 HD
ENDBRANCH  32  42
BRANCH  29  46
ATOM     46  C   UNL     1     143.019 175.075 192.076  0.00  0.00    +0.036 C 
ATOM     47  H   UNL     1     142.226 175.573 191.506  0.00  0.00    +0.037 HD
ATOM     48  H   UNL     1     143.972 175.356 191.603  0.00  0.00    +0.037 HD
BRANCH  46  49
ATOM     49  C   UNL     1     143.039 175.598 193.500  0.00  0.00    +0.158 C 
ATOM     50  O   UNL     1     144.069 175.659 194.165  0.00  0.00    -0.293 OA
BRANCH  49  52
ATOM     51  C   UNL     1     141.356 175.717 195.294  0.00  0.00    -0.084 C 
ATOM     52  C   UNL     1     141.737 176.071 194.058  0.00  0.00    -0.023 C 
ATOM     53  H   UNL     1     142.004 175.083 195.900  0.00  0.00    +0.057 HD
ATOM     54  H   UNL     1     141.122 176.697 193.424  0.00  0.00    +0.065 HD
BRANCH  51  55
ATOM     55  C   UNL     1     140.075 176.140 195.936  0.00  0.00    -0.046 C 
ATOM     56  H   UNL     1     140.282 176.615 196.901  0.00  0.00    +0.027 HD
ATOM     57  H   UNL     1     139.394 175.300 196.106  0.00  0.00    +0.027 HD
ATOM     58  H   UNL     1     139.563 176.869 195.300  0.00  0.00    +0.027 HD
ENDBRANCH  51  55
ENDBRANCH  49  52
ENDBRANCH  46  49
ENDBRANCH  29  46
ENDBRANCH  26  33
ENDBRANCH  22  26
ENDBRANCH  19  24
ENDBRANCH  17  19
BRANCH  17  59
ATOM     59  O   UNL     1     146.562 173.921 193.434  0.00  0.00    -0.390 OA
ATOM     60  H   UNL     1     147.140 174.696 193.246  0.00  0.00    +0.210 HD
ENDBRANCH  17  59
ENDBRANCH  11  17
ENDBRANCH   7  11
ENDBRANCH   4   9
ENDBRANCH   1   4
BRANCH   1  61
ATOM     61  C   UNL     1     148.118 167.370 193.808  0.00  0.00    -0.025 C 
ATOM     62  H   UNL     1     148.725 168.261 194.018  0.00  0.00    +0.029 HD
ATOM     63  H   UNL     1     147.260 167.392 194.486  0.00  0.00    +0.029 HD
BRANCH  61  64
ATOM     64  C   UNL     1     148.983 166.115 194.046  0.00  0.00    +0.065 C 
ATOM     65  C   UNL     1     150.097 166.380 195.087  0.00  0.00    -0.017 C 
ATOM     66  C   UNL     1     151.272 165.406 194.906  0.00  0.00    -0.043 C 
ATOM     67  C   UNL     1     150.813 164.139 194.192  0.00  0.00    +0.002 C 
ATOM     68  C   UNL     1     150.215 164.467 192.802  0.00  0.00    +0.171 C 
ATOM     69  O   UNL     1     149.591 165.759 192.800  0.00  0.00    -0.345 OA
ATOM     70  C   UNL     1     151.342 164.515 191.745  0.00  0.00    +0.002 C 
ATOM     71  C   UNL     1     151.610 163.147 191.153  0.00  0.00    -0.046 C 
ATOM     72  C   UNL     1     150.341 162.553 190.549  0.00  0.00    -0.026 C 
ATOM     73  C   UNL     1     149.043 163.102 191.157  0.00  0.00    +0.062 C 
ATOM     74  O   UNL     1     149.252 163.442 192.531  0.00  0.00    -0.345 OA
ATOM     75  H   UNL     1     148.344 165.289 194.376  0.00  0.00    +0.060 HD
ATOM     76  H   UNL     1     150.491 167.397 194.944  0.00  0.00    +0.032 HD
ATOM     77  H   UNL     1     152.053 165.895 194.307  0.00  0.00    +0.027 HD
ATOM     78  H   UNL     1     151.735 165.149 195.865  0.00  0.00    +0.027 HD
ATOM     79  H   UNL     1     150.065 163.630 194.813  0.00  0.00    +0.032 HD
ATOM     80  H   UNL     1     151.640 163.427 194.102  0.00  0.00    +0.032 HD
ATOM     81  H   UNL     1     152.262 164.930 192.173  0.00  0.00    +0.032 HD
ATOM     82  H   UNL     1     151.084 165.205 190.934  0.00  0.00    +0.032 HD
ATOM     83  H   UNL     1     151.988 162.475 191.932  0.00  0.00    +0.027 HD
ATOM     84  H   UNL     1     152.393 163.205 190.386  0.00  0.00    +0.027 HD
ATOM     85  H   UNL     1     150.375 161.467 190.720  0.00  0.00    +0.029 HD
ATOM     86  H   UNL     1     150.359 162.666 189.461  0.00  0.00    +0.029 HD
ATOM     87  H   UNL     1     148.329 162.270 191.168  0.00  0.00    +0.060 HD
BRANCH  65  88
ATOM     88  C   UNL     1     149.548 166.300 196.517  0.00  0.00    -0.060 C 
ATOM     89  H   UNL     1     149.660 165.291 196.929  0.00  0.00    +0.023 HD
ATOM     90  H   UNL     1     148.489 166.567 196.562  0.00  0.00    +0.023 HD
ATOM     91  H   UNL     1     150.087 166.991 197.177  0.00  0.00    +0.023 HD
ENDBRANCH  65  88
BRANCH  73  92
ATOM     92  C   UNL     1     148.357 164.242 190.383  0.00  0.00    -0.026 C 
ATOM     93  H   UNL     1     147.290 163.995 190.308  0.00  0.00    +0.029 HD
ATOM     94  H   UNL     1     148.403 165.174 190.948  0.00  0.00    +0.029 HD
BRANCH  92  95
ATOM     95  C   UNL     1     148.913 164.489 188.973  0.00  0.00    -0.045 C 
ATOM     96  H   UNL     1     149.663 163.726 188.734  0.00  0.00    +0.027 HD
ATOM     97  H   UNL     1     148.100 164.365 188.256  0.00  0.00    +0.027 HD
BRANCH  95  98
ATOM     98  C   UNL     1     149.576 165.876 188.827  0.00  0.00    -0.025 C 
ATOM     99  H   UNL     1     149.590 166.317 189.834  0.00  0.00    +0.034 HD
BRANCH  98 100
ATOM    100  C   UNL     1     148.795 166.843 187.938  0.00  0.00    -0.059 C 
ATOM    101  H   UNL     1     148.614 167.790 188.455  0.00  0.00    +0.024 HD
ATOM    102  H   UNL     1     147.829 166.430 187.644  0.00  0.00    +0.024 HD
ATOM    103  H   UNL     1     149.349 167.074 187.023  0.00  0.00    +0.024 HD
ENDBRANCH  98 100
BRANCH  98 104
ATOM    104  C   UNL     1     151.035 165.820 188.411  0.00  0.00    -0.080 C 
ATOM    105  C   UNL     1     152.091 166.574 188.793  0.00  0.00    -0.048 C 
ATOM    106  H   UNL     1     151.215 165.020 187.692  0.00  0.00    +0.058 HD
BRANCH 105 107
ATOM    107  C   UNL     1     152.009 167.625 189.868  0.00  0.00    -0.041 C 
ATOM    108  H   UNL     1     152.396 167.279 190.828  0.00  0.00    +0.028 HD
ATOM    109  H   UNL     1     152.609 168.501 189.600  0.00  0.00    +0.028 HD
ATOM    110  H   UNL     1     150.968 167.947 189.999  0.00  0.00    +0.028 HD
ENDBRANCH 105 107
BRANCH 105 111
ATOM    111  C   UNL     1     153.490 166.386 188.211  0.00  0.00    +0.073 C 
ATOM    112  H   UNL     1     153.418 165.785 187.298  0.00  0.00    +0.064 HD
BRANCH 111 113
ATOM    113  C   UNL     1     154.457 165.705 189.181  0.00  0.00    -0.035 C 
ATOM    114  H   UNL     1     155.478 166.072 189.028  0.00  0.00    +0.026 HD
ATOM    115  H   UNL     1     154.193 165.925 190.223  0.00  0.00    +0.026 HD
ATOM    116  H   UNL     1     154.461 164.618 189.046  0.00  0.00    +0.026 HD
ENDBRANCH 111 113
BRANCH 111 117
ATOM    117  O   UNL     1     154.071 167.636 187.836  0.00  0.00    -0.388 OA
ATOM    118  H   UNL     1     154.612 167.472 187.044  0.00  0.00    +0.210 HD
ENDBRANCH 111 117
ENDBRANCH 105 111
ENDBRANCH  98 104
ENDBRANCH  95  98
ENDBRANCH  92  95
ENDBRANCH  73  92
ENDBRANCH  61  64
ENDBRANCH   1  61
TORSDOF 27
ENDMDL
MODEL 6
REMARK VINA RESULT:      -6.8      3.221      9.507
REMARK  Name = Bistramide A_conf1
REMARK  27 active torsions:
REMARK  status: ('A' for Active; 'I' for Inactive)
REMARK    1  A    between atoms: C_1  and  C_2
REMARK    2  A    between atoms: C_3  and  C_4
REMARK    3  A    between atoms: C_4  and  C_6
REMARK    4  A    between atoms: C_6  and  C_7
REMARK    5  A    between atoms: C_10  and  C_50
REMARK    6  A    between atoms: C_11  and  C_13
REMARK    7  A    between atoms: C_13  and  C_14
REMARK    8  A    between atoms: N_16  and  C_17
REMARK    9  A    between atoms: C_17  and  C_18
REMARK   10  A    between atoms: C_18  and  C_19
REMARK   11  A    between atoms: C_18  and  O_49
REMARK   12  A    between atoms: C_19  and  C_20
REMARK   13  A    between atoms: C_19  and  C_21
REMARK   14  A    between atoms: N_23  and  C_24
REMARK   15  A    between atoms: C_24  and  C_25
REMARK   16  A    between atoms: C_25  and  C_26
REMARK   17  A    between atoms: C_26  and  C_27
REMARK   18  A    between atoms: C_28  and  C_48
REMARK   19  A    between atoms: C_36  and  C_38
REMARK   20  A    between atoms: C_38  and  C_39
REMARK   21  A    between atoms: C_39  and  C_40
REMARK   22  A    between atoms: C_40  and  C_41
REMARK   23  A    between atoms: C_40  and  C_42
REMARK   24  A    between atoms: C_43  and  C_44
REMARK   25  A    between atoms: C_43  and  C_45
REMARK   26  A    between atoms: C_45  and  C_46
REMARK   27  A    between atoms: C_45  and  O_47
REMARK                            x       y       z     vdW  Elec       q    Type
REMARK                         _______ _______ _______ _____ _____    ______ ____
ROOT
ATOM      1  C   UNL     1     150.205 169.903 191.418  0.00  0.00    -0.035 C 
ATOM      2  H   UNL     1     150.051 169.469 190.420  0.00  0.00    +0.028 HD
ATOM      3  H   UNL     1     150.635 170.896 191.251  0.00  0.00    +0.028 HD
ENDROOT
BRANCH   1   4
ATOM      4  C   UNL     1     151.174 169.008 192.186  0.00  0.00    +0.012 C 
ATOM      5  H   UNL     1     151.966 168.613 191.540  0.00  0.00    +0.046 HD
ATOM      6  H   UNL     1     151.671 169.577 192.984  0.00  0.00    +0.046 HD
BRANCH   4   9
ATOM      7  C   UNL     1     151.238 166.791 193.259  0.00  0.00    +0.218 C 
ATOM      8  O   UNL     1     152.457 166.805 193.406  0.00  0.00    -0.275 OA
ATOM      9  N   UNL     1     150.523 167.854 192.764  0.00  0.00    -0.315 N 
ATOM     10  H   UNL     1     149.525 167.706 192.605  0.00  0.00    +0.149 HD
BRANCH   7  11
ATOM     11  C   UNL     1     150.408 165.556 193.597  0.00  0.00    +0.060 C 
ATOM     12  H   UNL     1     149.408 165.738 193.179  0.00  0.00    +0.042 HD
BRANCH  11  13
ATOM     13  C   UNL     1     150.993 164.322 192.912  0.00  0.00    -0.052 C 
ATOM     14  H   UNL     1     150.249 163.776 192.328  0.00  0.00    +0.024 HD
ATOM     15  H   UNL     1     151.808 164.612 192.240  0.00  0.00    +0.024 HD
ATOM     16  H   UNL     1     151.400 163.626 193.653  0.00  0.00    +0.024 HD
ENDBRANCH  11  13
BRANCH  11  17
ATOM     17  C   UNL     1     150.252 165.378 195.123  0.00  0.00    +0.081 C 
ATOM     18  H   UNL     1     150.237 164.307 195.342  0.00  0.00    +0.062 HD
BRANCH  17  19
ATOM     19  C   UNL     1     148.966 166.046 195.662  0.00  0.00    +0.038 C 
ATOM     20  H   UNL     1     148.762 165.729 196.688  0.00  0.00    +0.049 HD
ATOM     21  H   UNL     1     149.064 167.138 195.643  0.00  0.00    +0.049 HD
BRANCH  19  24
ATOM     22  C   UNL     1     147.113 166.672 194.090  0.00  0.00    +0.216 C 
ATOM     23  O   UNL     1     147.413 167.861 194.047  0.00  0.00    -0.276 OA
ATOM     24  N   UNL     1     147.749 165.765 194.910  0.00  0.00    -0.313 N 
ATOM     25  H   UNL     1     147.443 164.801 194.873  0.00  0.00    +0.149 HD
BRANCH  22  26
ATOM     26  C   UNL     1     146.075 166.034 193.190  0.00  0.00    +0.050 C 
ATOM     27  H   UNL     1     145.890 165.041 193.622  0.00  0.00    +0.038 HD
ATOM     28  H   UNL     1     145.150 166.620 193.243  0.00  0.00    +0.038 HD
BRANCH  26  33
ATOM     29  C   UNL     1     148.464 166.460 190.352  0.00  0.00    +0.066 C 
ATOM     30  C   UNL     1     147.555 167.048 189.265  0.00  0.00    -0.026 C 
ATOM     31  C   UNL     1     146.138 166.483 189.326  0.00  0.00    -0.046 C 
ATOM     32  C   UNL     1     145.557 166.563 190.744  0.00  0.00    -0.017 C 
ATOM     33  C   UNL     1     146.544 165.901 191.736  0.00  0.00    +0.070 C 
ATOM     34  O   UNL     1     147.835 166.522 191.642  0.00  0.00    -0.372 OA
ATOM     35  H   UNL     1     149.341 167.113 190.435  0.00  0.00    +0.060 HD
ATOM     36  H   UNL     1     147.976 166.896 188.265  0.00  0.00    +0.029 HD
ATOM     37  H   UNL     1     147.499 168.134 189.413  0.00  0.00    +0.029 HD
ATOM     38  H   UNL     1     146.152 165.433 189.004  0.00  0.00    +0.027 HD
ATOM     39  H   UNL     1     145.495 167.016 188.612  0.00  0.00    +0.027 HD
ATOM     40  H   UNL     1     144.615 165.999 190.753  0.00  0.00    +0.032 HD
ATOM     41  H   UNL     1     146.640 164.842 191.463  0.00  0.00    +0.060 HD
BRANCH  32  42
ATOM     42  C   UNL     1     145.222 168.021 191.105  0.00  0.00    -0.060 C 
ATOM     43  H   UNL     1     144.547 168.086 191.967  0.00  0.00    +0.023 HD
ATOM     44  H   UNL     1     144.740 168.529 190.263  0.00  0.00    +0.023 HD
ATOM     45  H   UNL     1     146.136 168.579 191.342  0.00  0.00    +0.023 HD
ENDBRANCH  32  42
BRANCH  29  46
ATOM     46  C   UNL     1     148.956 165.041 190.039  0.00  0.00    +0.036 C 
ATOM     47  H   UNL     1     148.167 164.444 189.569  0.00  0.00    +0.037 HD
ATOM     48  H   UNL     1     149.229 164.525 190.972  0.00  0.00    +0.037 HD
BRANCH  46  49
ATOM     49  C   UNL     1     150.185 165.066 189.149  0.00  0.00    +0.158 C 
ATOM     50  O   UNL     1     150.305 164.335 188.172  0.00  0.00    -0.293 OA
BRANCH  49  52
ATOM     51  C   UNL     1     152.508 165.658 189.711  0.00  0.00    -0.084 C 
ATOM     52  C   UNL     1     151.245 166.057 189.500  0.00  0.00    -0.023 C 
ATOM     53  H   UNL     1     152.765 164.602 189.620  0.00  0.00    +0.057 HD
ATOM     54  H   UNL     1     150.949 167.095 189.583  0.00  0.00    +0.065 HD
BRANCH  51  55
ATOM     55  C   UNL     1     153.635 166.573 190.066  0.00  0.00    -0.046 C 
ATOM     56  H   UNL     1     153.239 167.538 190.400  0.00  0.00    +0.027 HD
ATOM     57  H   UNL     1     154.310 166.753 189.223  0.00  0.00    +0.027 HD
ATOM     58  H   UNL     1     154.220 166.142 190.884  0.00  0.00    +0.027 HD
ENDBRANCH  51  55
ENDBRANCH  49  52
ENDBRANCH  46  49
ENDBRANCH  29  46
ENDBRANCH  26  33
ENDBRANCH  22  26
ENDBRANCH  19  24
ENDBRANCH  17  19
BRANCH  17  59
ATOM     59  O   UNL     1     151.407 165.926 195.771  0.00  0.00    -0.390 OA
ATOM     60  H   UNL     1     151.996 165.163 195.968  0.00  0.00    +0.210 HD
ENDBRANCH  17  59
ENDBRANCH  11  17
ENDBRANCH   7  11
ENDBRANCH   4   9
ENDBRANCH   1   4
BRANCH   1  61
ATOM     61  C   UNL     1     148.851 170.031 192.128  0.00  0.00    -0.025 C 
ATOM     62  H   UNL     1     148.194 169.247 191.725  0.00  0.00    +0.029 HD
ATOM     63  H   UNL     1     148.984 169.828 193.196  0.00  0.00    +0.029 HD
BRANCH  61  64
ATOM     64  C   UNL     1     148.181 171.402 191.904  0.00  0.00    +0.065 C 
ATOM     65  C   UNL     1     148.097 172.217 193.216  0.00  0.00    -0.017 C 
ATOM     66  C   UNL     1     146.965 173.256 193.155  0.00  0.00    -0.043 C 
ATOM     67  C   UNL     1     146.630 173.600 191.709  0.00  0.00    +0.002 C 
ATOM     68  C   UNL     1     146.197 172.340 190.921  0.00  0.00    +0.171 C 
ATOM     69  O   UNL     1     146.854 171.166 191.421  0.00  0.00    -0.345 OA
ATOM     70  C   UNL     1     144.678 172.109 191.094  0.00  0.00    +0.002 C 
ATOM     71  C   UNL     1     143.875 172.864 190.056  0.00  0.00    -0.046 C 
ATOM     72  C   UNL     1     144.312 172.484 188.644  0.00  0.00    -0.026 C 
ATOM     73  C   UNL     1     145.751 171.957 188.554  0.00  0.00    +0.062 C 
ATOM     74  O   UNL     1     146.562 172.578 189.556  0.00  0.00    -0.345 OA
ATOM     75  H   UNL     1     148.738 171.960 191.144  0.00  0.00    +0.060 HD
ATOM     76  H   UNL     1     147.873 171.538 194.050  0.00  0.00    +0.032 HD
ATOM     77  H   UNL     1     146.072 172.840 193.643  0.00  0.00    +0.027 HD
ATOM     78  H   UNL     1     147.222 174.166 193.708  0.00  0.00    +0.027 HD
ATOM     79  H   UNL     1     147.510 174.055 191.236  0.00  0.00    +0.032 HD
ATOM     80  H   UNL     1     145.854 174.372 191.666  0.00  0.00    +0.032 HD
ATOM     81  H   UNL     1     144.354 172.391 192.103  0.00  0.00    +0.032 HD
ATOM     82  H   UNL     1     144.436 171.043 191.019  0.00  0.00    +0.032 HD
ATOM     83  H   UNL     1     144.011 173.942 190.197  0.00  0.00    +0.027 HD
ATOM     84  H   UNL     1     142.803 172.666 190.178  0.00  0.00    +0.027 HD
ATOM     85  H   UNL     1     144.231 173.387 188.022  0.00  0.00    +0.029 HD
ATOM     86  H   UNL     1     143.595 171.780 188.210  0.00  0.00    +0.029 HD
ATOM     87  H   UNL     1     146.151 172.309 187.596  0.00  0.00    +0.060 HD
BRANCH  65  88
ATOM     88  C   UNL     1     149.435 172.899 193.530  0.00  0.00    -0.060 C 
ATOM     89  H   UNL     1     149.375 173.981 193.372  0.00  0.00    +0.023 HD
ATOM     90  H   UNL     1     150.244 172.512 192.906  0.00  0.00    +0.023 HD
ATOM     91  H   UNL     1     149.719 172.730 194.576  0.00  0.00    +0.023 HD
ENDBRANCH  65  88
BRANCH  73  92
ATOM     92  C   UNL     1     145.917 170.427 188.550  0.00  0.00    -0.026 C 
ATOM     93  H   UNL     1     146.809 170.190 189.144  0.00  0.00    +0.029 HD
ATOM     94  H   UNL     1     145.086 169.947 189.066  0.00  0.00    +0.029 HD
BRANCH  92  95
ATOM     95  C   UNL     1     146.065 169.798 187.156  0.00  0.00    -0.045 C 
ATOM     96  H   UNL     1     146.278 170.582 186.420  0.00  0.00    +0.027 HD
ATOM     97  H   UNL     1     146.931 169.135 187.168  0.00  0.00    +0.027 HD
BRANCH  95  98
ATOM     98  C   UNL     1     144.794 169.047 186.703  0.00  0.00    -0.025 C 
ATOM     99  H   UNL     1     145.104 168.010 186.509  0.00  0.00    +0.034 HD
BRANCH  98 100
ATOM    100  C   UNL     1     144.196 169.575 185.399  0.00  0.00    -0.059 C 
ATOM    101  H   UNL     1     143.692 168.776 184.848  0.00  0.00    +0.024 HD
ATOM    102  H   UNL     1     144.961 170.002 184.748  0.00  0.00    +0.024 HD
ATOM    103  H   UNL     1     143.454 170.355 185.592  0.00  0.00    +0.024 HD
ENDBRANCH  98 100
BRANCH  98 104
ATOM    104  C   UNL     1     143.728 168.936 187.778  0.00  0.00    -0.080 C 
ATOM    105  C   UNL     1     142.893 167.919 188.091  0.00  0.00    -0.048 C 
ATOM    106  H   UNL     1     143.669 169.846 188.376  0.00  0.00    +0.058 HD
BRANCH 105 107
ATOM    107  C   UNL     1     142.956 166.568 187.431  0.00  0.00    -0.041 C 
ATOM    108  H   UNL     1     143.048 165.750 188.149  0.00  0.00    +0.028 HD
ATOM    109  H   UNL     1     142.038 166.369 186.867  0.00  0.00    +0.028 HD
ATOM    110  H   UNL     1     143.803 166.528 186.735  0.00  0.00    +0.028 HD
ENDBRANCH 105 107
BRANCH 105 111
ATOM    111  C   UNL     1     141.844 168.027 189.195  0.00  0.00    +0.073 C 
ATOM    112  H   UNL     1     140.847 167.957 188.747  0.00  0.00    +0.064 HD
BRANCH 111 113
ATOM    113  C   UNL     1     141.944 169.328 189.993  0.00  0.00    -0.035 C 
ATOM    114  H   UNL     1     141.031 169.922 189.876  0.00  0.00    +0.026 HD
ATOM    115  H   UNL     1     142.058 169.128 191.065  0.00  0.00    +0.026 HD
ATOM    116  H   UNL     1     142.791 169.937 189.661  0.00  0.00    +0.026 HD
ENDBRANCH 111 113
BRANCH 111 117
ATOM    117  O   UNL     1     141.953 166.947 190.124  0.00  0.00    -0.388 OA
ATOM    118  H   UNL     1     141.803 167.318 191.011  0.00  0.00    +0.210 HD
ENDBRANCH 111 117
ENDBRANCH 105 111
ENDBRANCH  98 104
ENDBRANCH  95  98
ENDBRANCH  92  95
ENDBRANCH  73  92
ENDBRANCH  61  64
ENDBRANCH   1  61
TORSDOF 27
ENDMDL
MODEL 7
REMARK VINA RESULT:      -6.7      3.378     10.897
REMARK  Name = Bistramide A_conf1
REMARK  27 active torsions:
REMARK  status: ('A' for Active; 'I' for Inactive)
REMARK    1  A    between atoms: C_1  and  C_2
REMARK    2  A    between atoms: C_3  and  C_4
REMARK    3  A    between atoms: C_4  and  C_6
REMARK    4  A    between atoms: C_6  and  C_7
REMARK    5  A    between atoms: C_10  and  C_50
REMARK    6  A    between atoms: C_11  and  C_13
REMARK    7  A    between atoms: C_13  and  C_14
REMARK    8  A    between atoms: N_16  and  C_17
REMARK    9  A    between atoms: C_17  and  C_18
REMARK   10  A    between atoms: C_18  and  C_19
REMARK   11  A    between atoms: C_18  and  O_49
REMARK   12  A    between atoms: C_19  and  C_20
REMARK   13  A    between atoms: C_19  and  C_21
REMARK   14  A    between atoms: N_23  and  C_24
REMARK   15  A    between atoms: C_24  and  C_25
REMARK   16  A    between atoms: C_25  and  C_26
REMARK   17  A    between atoms: C_26  and  C_27
REMARK   18  A    between atoms: C_28  and  C_48
REMARK   19  A    between atoms: C_36  and  C_38
REMARK   20  A    between atoms: C_38  and  C_39
REMARK   21  A    between atoms: C_39  and  C_40
REMARK   22  A    between atoms: C_40  and  C_41
REMARK   23  A    between atoms: C_40  and  C_42
REMARK   24  A    between atoms: C_43  and  C_44
REMARK   25  A    between atoms: C_43  and  C_45
REMARK   26  A    between atoms: C_45  and  C_46
REMARK   27  A    between atoms: C_45  and  O_47
REMARK                            x       y       z     vdW  Elec       q    Type
REMARK                         _______ _______ _______ _____ _____    ______ ____
ROOT
ATOM      1  C   UNL     1     147.030 167.419 192.442  0.00  0.00    -0.035 C 
ATOM      2  H   UNL     1     146.757 168.470 192.610  0.00  0.00    +0.028 HD
ATOM      3  H   UNL     1     146.226 166.992 191.833  0.00  0.00    +0.028 HD
ENDROOT
BRANCH   1   4
ATOM      4  C   UNL     1     147.121 166.723 193.797  0.00  0.00    +0.012 C 
ATOM      5  H   UNL     1     146.835 167.389 194.619  0.00  0.00    +0.046 HD
ATOM      6  H   UNL     1     146.438 165.863 193.832  0.00  0.00    +0.046 HD
BRANCH   4   9
ATOM      7  C   UNL     1     148.963 166.305 195.378  0.00  0.00    +0.218 C 
ATOM      8  O   UNL     1     148.279 166.547 196.369  0.00  0.00    -0.275 OA
ATOM      9  N   UNL     1     148.461 166.274 194.100  0.00  0.00    -0.315 N 
ATOM     10  H   UNL     1     149.133 166.146 193.342  0.00  0.00    +0.149 HD
BRANCH   7  11
ATOM     11  C   UNL     1     150.462 166.041 195.489  0.00  0.00    +0.060 C 
ATOM     12  H   UNL     1     150.897 166.943 195.941  0.00  0.00    +0.042 HD
BRANCH  11  13
ATOM     13  C   UNL     1     150.723 164.864 196.428  0.00  0.00    -0.052 C 
ATOM     14  H   UNL     1     150.578 163.899 195.938  0.00  0.00    +0.024 HD
ATOM     15  H   UNL     1     151.749 164.903 196.809  0.00  0.00    +0.024 HD
ATOM     16  H   UNL     1     150.043 164.897 197.286  0.00  0.00    +0.024 HD
ENDBRANCH  11  13
BRANCH  11  17
ATOM     17  C   UNL     1     151.109 165.855 194.099  0.00  0.00    +0.081 C 
ATOM     18  H   UNL     1     150.482 166.359 193.360  0.00  0.00    +0.062 HD
BRANCH  17  19
ATOM     19  C   UNL     1     151.273 164.364 193.725  0.00  0.00    +0.038 C 
ATOM     20  H   UNL     1     152.317 164.052 193.814  0.00  0.00    +0.049 HD
ATOM     21  H   UNL     1     150.660 163.734 194.382  0.00  0.00    +0.049 HD
BRANCH  19  24
ATOM     22  C   UNL     1     149.564 163.744 191.994  0.00  0.00    +0.216 C 
ATOM     23  O   UNL     1     148.646 163.618 192.799  0.00  0.00    -0.276 OA
ATOM     24  N   UNL     1     150.864 164.007 192.372  0.00  0.00    -0.313 N 
ATOM     25  H   UNL     1     151.556 164.105 191.641  0.00  0.00    +0.149 HD
BRANCH  22  26
ATOM     26  C   UNL     1     149.375 163.719 190.492  0.00  0.00    +0.050 C 
ATOM     27  H   UNL     1     148.891 162.756 190.278  0.00  0.00    +0.038 HD
ATOM     28  H   UNL     1     148.694 164.528 190.206  0.00  0.00    +0.038 HD
BRANCH  26  33
ATOM     29  C   UNL     1     152.056 165.514 188.612  0.00  0.00    +0.066 C 
ATOM     30  C   UNL     1     152.227 164.616 187.380  0.00  0.00    -0.026 C 
ATOM     31  C   UNL     1     152.029 163.138 187.707  0.00  0.00    -0.046 C 
ATOM     32  C   UNL     1     150.727 162.900 188.485  0.00  0.00    -0.017 C 
ATOM     33  C   UNL     1     150.696 163.831 189.721  0.00  0.00    +0.070 C 
ATOM     34  O   UNL     1     150.844 165.200 189.317  0.00  0.00    -0.372 OA
ATOM     35  H   UNL     1     151.915 166.540 188.253  0.00  0.00    +0.060 HD
ATOM     36  H   UNL     1     153.203 164.767 186.906  0.00  0.00    +0.029 HD
ATOM     37  H   UNL     1     151.475 164.907 186.634  0.00  0.00    +0.029 HD
ATOM     38  H   UNL     1     152.876 162.784 188.311  0.00  0.00    +0.027 HD
ATOM     39  H   UNL     1     152.042 162.548 186.781  0.00  0.00    +0.027 HD
ATOM     40  H   UNL     1     150.727 161.856 188.827  0.00  0.00    +0.032 HD
ATOM     41  H   UNL     1     151.539 163.560 190.371  0.00  0.00    +0.060 HD
BRANCH  32  42
ATOM     42  C   UNL     1     149.510 163.079 187.560  0.00  0.00    -0.060 C 
ATOM     43  H   UNL     1     148.722 163.679 188.031  0.00  0.00    +0.023 HD
ATOM     44  H   UNL     1     149.079 162.109 187.294  0.00  0.00    +0.023 HD
ATOM     45  H   UNL     1     149.806 163.572 186.626  0.00  0.00    +0.023 HD
ENDBRANCH  32  42
BRANCH  29  46
ATOM     46  C   UNL     1     153.268 165.503 189.553  0.00  0.00    +0.036 C 
ATOM     47  H   UNL     1     153.596 164.478 189.762  0.00  0.00    +0.037 HD
ATOM     48  H   UNL     1     152.995 165.951 190.520  0.00  0.00    +0.037 HD
BRANCH  46  49
ATOM     49  C   UNL     1     154.419 166.307 188.979  0.00  0.00    +0.158 C 
ATOM     50  O   UNL     1     154.247 167.345 188.347  0.00  0.00    -0.293 OA
BRANCH  49  52
ATOM     51  C   UNL     1     156.062 164.481 189.154  0.00  0.00    -0.084 C 
ATOM     52  C   UNL     1     155.795 165.791 189.246  0.00  0.00    -0.023 C 
ATOM     53  H   UNL     1     155.269 163.785 188.876  0.00  0.00    +0.057 HD
ATOM     54  H   UNL     1     156.553 166.514 189.522  0.00  0.00    +0.065 HD
BRANCH  51  55
ATOM     55  C   UNL     1     157.404 163.872 189.402  0.00  0.00    -0.046 C 
ATOM     56  H   UNL     1     158.175 164.648 189.372  0.00  0.00    +0.027 HD
ATOM     57  H   UNL     1     157.659 163.105 188.663  0.00  0.00    +0.027 HD
ATOM     58  H   UNL     1     157.424 163.409 190.394  0.00  0.00    +0.027 HD
ENDBRANCH  51  55
ENDBRANCH  49  52
ENDBRANCH  46  49
ENDBRANCH  29  46
ENDBRANCH  26  33
ENDBRANCH  22  26
ENDBRANCH  19  24
ENDBRANCH  17  19
BRANCH  17  59
ATOM     59  O   UNL     1     152.383 166.512 194.093  0.00  0.00    -0.390 OA
ATOM     60  H   UNL     1     152.773 166.340 193.206  0.00  0.00    +0.210 HD
ENDBRANCH  17  59
ENDBRANCH  11  17
ENDBRANCH   7  11
ENDBRANCH   4   9
ENDBRANCH   1   4
BRANCH   1  61
ATOM     61  C   UNL     1     148.357 167.360 191.672  0.00  0.00    -0.025 C 
ATOM     62  H   UNL     1     149.057 166.764 192.273  0.00  0.00    +0.029 HD
ATOM     63  H   UNL     1     148.202 166.827 190.728  0.00  0.00    +0.029 HD
BRANCH  61  64
ATOM     64  C   UNL     1     148.975 168.752 191.428  0.00  0.00    +0.065 C 
ATOM     65  C   UNL     1     150.379 168.872 192.066  0.00  0.00    -0.017 C 
ATOM     66  C   UNL     1     150.739 170.340 192.351  0.00  0.00    -0.043 C 
ATOM     67  C   UNL     1     149.936 171.272 191.450  0.00  0.00    +0.002 C 
ATOM     68  C   UNL     1     148.415 171.078 191.661  0.00  0.00    +0.171 C 
ATOM     69  O   UNL     1     148.111 169.724 192.026  0.00  0.00    -0.345 OA
ATOM     70  C   UNL     1     147.928 171.974 192.824  0.00  0.00    +0.002 C 
ATOM     71  C   UNL     1     147.545 173.357 192.343  0.00  0.00    -0.046 C 
ATOM     72  C   UNL     1     146.482 173.281 191.251  0.00  0.00    -0.026 C 
ATOM     73  C   UNL     1     146.470 171.955 190.479  0.00  0.00    +0.062 C 
ATOM     74  O   UNL     1     147.793 171.415 190.415  0.00  0.00    -0.345 OA
ATOM     75  H   UNL     1     149.029 168.943 190.352  0.00  0.00    +0.060 HD
ATOM     76  H   UNL     1     150.385 168.342 193.030  0.00  0.00    +0.032 HD
ATOM     77  H   UNL     1     150.510 170.566 193.401  0.00  0.00    +0.027 HD
ATOM     78  H   UNL     1     151.810 170.524 192.222  0.00  0.00    +0.027 HD
ATOM     79  H   UNL     1     150.199 171.072 190.404  0.00  0.00    +0.032 HD
ATOM     80  H   UNL     1     150.224 172.314 191.622  0.00  0.00    +0.032 HD
ATOM     81  H   UNL     1     148.692 172.043 193.608  0.00  0.00    +0.032 HD
ATOM     82  H   UNL     1     147.064 171.524 193.325  0.00  0.00    +0.032 HD
ATOM     83  H   UNL     1     148.430 173.869 191.949  0.00  0.00    +0.027 HD
ATOM     84  H   UNL     1     147.177 173.968 193.176  0.00  0.00    +0.027 HD
ATOM     85  H   UNL     1     146.683 174.097 190.542  0.00  0.00    +0.029 HD
ATOM     86  H   UNL     1     145.499 173.514 191.673  0.00  0.00    +0.029 HD
ATOM     87  H   UNL     1     146.204 172.200 189.444  0.00  0.00    +0.060 HD
BRANCH  65  88
ATOM     88  C   UNL     1     151.447 168.219 191.180  0.00  0.00    -0.060 C 
ATOM     89  H   UNL     1     152.330 168.861 191.084  0.00  0.00    +0.023 HD
ATOM     90  H   UNL     1     151.071 168.012 190.175  0.00  0.00    +0.023 HD
ATOM     91  H   UNL     1     151.775 167.264 191.609  0.00  0.00    +0.023 HD
ENDBRANCH  65  88
BRANCH  73  92
ATOM     92  C   UNL     1     145.446 170.904 190.945  0.00  0.00    -0.026 C 
ATOM     93  H   UNL     1     145.501 170.058 190.248  0.00  0.00    +0.029 HD
ATOM     94  H   UNL     1     145.723 170.500 191.919  0.00  0.00    +0.029 HD
BRANCH  92  95
ATOM     95  C   UNL     1     143.995 171.404 191.010  0.00  0.00    -0.045 C 
ATOM     96  H   UNL     1     143.720 171.600 192.052  0.00  0.00    +0.027 HD
ATOM     97  H   UNL     1     143.936 172.359 190.485  0.00  0.00    +0.027 HD
BRANCH  95  98
ATOM     98  C   UNL     1     142.987 170.388 190.431  0.00  0.00    -0.025 C 
ATOM     99  H   UNL     1     143.520 169.845 189.637  0.00  0.00    +0.034 HD
BRANCH  98 100
ATOM    100  C   UNL     1     141.767 171.033 189.774  0.00  0.00    -0.059 C 
ATOM    101  H   UNL     1     141.770 170.866 188.693  0.00  0.00    +0.024 HD
ATOM    102  H   UNL     1     141.738 172.110 189.947  0.00  0.00    +0.024 HD
ATOM    103  H   UNL     1     140.837 170.610 190.165  0.00  0.00    +0.024 HD
ENDBRANCH  98 100
BRANCH  98 104
ATOM    104  C   UNL     1     142.563 169.312 191.415  0.00  0.00    -0.080 C 
ATOM    105  C   UNL     1     142.819 167.984 191.435  0.00  0.00    -0.048 C 
ATOM    106  H   UNL     1     141.963 169.727 192.225  0.00  0.00    +0.058 HD
BRANCH 105 107
ATOM    107  C   UNL     1     143.734 167.305 190.452  0.00  0.00    -0.041 C 
ATOM    108  H   UNL     1     144.790 167.435 190.696  0.00  0.00    +0.028 HD
ATOM    109  H   UNL     1     143.558 166.224 190.442  0.00  0.00    +0.028 HD
ATOM    110  H   UNL     1     143.552 167.692 189.440  0.00  0.00    +0.028 HD
ENDBRANCH 105 107
BRANCH 105 111
ATOM    111  C   UNL     1     142.250 167.053 192.504  0.00  0.00    +0.073 C 
ATOM    112  H   UNL     1     141.385 167.535 192.972  0.00  0.00    +0.064 HD
BRANCH 111 113
ATOM    113  C   UNL     1     143.268 166.690 193.586  0.00  0.00    -0.035 C 
ATOM    114  H   UNL     1     143.058 165.695 193.993  0.00  0.00    +0.026 HD
ATOM    115  H   UNL     1     144.285 166.660 193.180  0.00  0.00    +0.026 HD
ATOM    116  H   UNL     1     143.245 167.408 194.413  0.00  0.00    +0.026 HD
ENDBRANCH 111 113
BRANCH 111 117
ATOM    117  O   UNL     1     141.780 165.831 191.932  0.00  0.00    -0.388 OA
ATOM    118  H   UNL     1     140.867 165.988 191.636  0.00  0.00    +0.210 HD
ENDBRANCH 111 117
ENDBRANCH 105 111
ENDBRANCH  98 104
ENDBRANCH  95  98
ENDBRANCH  92  95
ENDBRANCH  73  92
ENDBRANCH  61  64
ENDBRANCH   1  61
TORSDOF 27
ENDMDL
MODEL 8
REMARK VINA RESULT:      -6.7      2.665      5.450
REMARK  Name = Bistramide A_conf1
REMARK  27 active torsions:
REMARK  status: ('A' for Active; 'I' for Inactive)
REMARK    1  A    between atoms: C_1  and  C_2
REMARK    2  A    between atoms: C_3  and  C_4
REMARK    3  A    between atoms: C_4  and  C_6
REMARK    4  A    between atoms: C_6  and  C_7
REMARK    5  A    between atoms: C_10  and  C_50
REMARK    6  A    between atoms: C_11  and  C_13
REMARK    7  A    between atoms: C_13  and  C_14
REMARK    8  A    between atoms: N_16  and  C_17
REMARK    9  A    between atoms: C_17  and  C_18
REMARK   10  A    between atoms: C_18  and  C_19
REMARK   11  A    between atoms: C_18  and  O_49
REMARK   12  A    between atoms: C_19  and  C_20
REMARK   13  A    between atoms: C_19  and  C_21
REMARK   14  A    between atoms: N_23  and  C_24
REMARK   15  A    between atoms: C_24  and  C_25
REMARK   16  A    between atoms: C_25  and  C_26
REMARK   17  A    between atoms: C_26  and  C_27
REMARK   18  A    between atoms: C_28  and  C_48
REMARK   19  A    between atoms: C_36  and  C_38
REMARK   20  A    between atoms: C_38  and  C_39
REMARK   21  A    between atoms: C_39  and  C_40
REMARK   22  A    between atoms: C_40  and  C_41
REMARK   23  A    between atoms: C_40  and  C_42
REMARK   24  A    between atoms: C_43  and  C_44
REMARK   25  A    between atoms: C_43  and  C_45
REMARK   26  A    between atoms: C_45  and  C_46
REMARK   27  A    between atoms: C_45  and  O_47
REMARK                            x       y       z     vdW  Elec       q    Type
REMARK                         _______ _______ _______ _____ _____    ______ ____
ROOT
ATOM      1  C   UNL     1     147.872 167.789 192.460  0.00  0.00    -0.035 C 
ATOM      2  H   UNL     1     148.232 166.994 191.792  0.00  0.00    +0.028 HD
ATOM      3  H   UNL     1     146.834 167.981 192.168  0.00  0.00    +0.028 HD
ENDROOT
BRANCH   1   4
ATOM      4  C   UNL     1     148.740 169.027 192.246  0.00  0.00    +0.012 C 
ATOM      5  H   UNL     1     149.494 169.138 193.034  0.00  0.00    +0.046 HD
ATOM      6  H   UNL     1     149.284 168.953 191.295  0.00  0.00    +0.046 HD
BRANCH   4   9
ATOM      7  C   UNL     1     148.562 171.475 192.460  0.00  0.00    +0.218 C 
ATOM      8  O   UNL     1     149.779 171.645 192.475  0.00  0.00    -0.275 OA
ATOM      9  N   UNL     1     147.971 170.250 192.258  0.00  0.00    -0.315 N 
ATOM     10  H   UNL     1     146.955 170.207 192.348  0.00  0.00    +0.149 HD
BRANCH   7  11
ATOM     11  C   UNL     1     147.592 172.628 192.696  0.00  0.00    +0.060 C 
ATOM     12  H   UNL     1     146.607 172.169 192.859  0.00  0.00    +0.042 HD
BRANCH  11  13
ATOM     13  C   UNL     1     147.977 173.392 193.962  0.00  0.00    -0.052 C 
ATOM     14  H   UNL     1     148.703 172.849 194.572  0.00  0.00    +0.024 HD
ATOM     15  H   UNL     1     148.410 174.363 193.702  0.00  0.00    +0.024 HD
ATOM     16  H   UNL     1     147.097 173.570 194.587  0.00  0.00    +0.024 HD
ENDBRANCH  11  13
BRANCH  11  17
ATOM     17  C   UNL     1     147.483 173.540 191.454  0.00  0.00    +0.081 C 
ATOM     18  H   UNL     1     147.180 174.536 191.788  0.00  0.00    +0.062 HD
BRANCH  17  19
ATOM     19  C   UNL     1     146.472 172.999 190.418  0.00  0.00    +0.038 C 
ATOM     20  H   UNL     1     146.142 173.794 189.743  0.00  0.00    +0.049 HD
ATOM     21  H   UNL     1     146.925 172.198 189.822  0.00  0.00    +0.049 HD
BRANCH  19  24
ATOM     22  C   UNL     1     143.995 172.951 190.818  0.00  0.00    +0.216 C 
ATOM     23  O   UNL     1     143.795 174.066 190.346  0.00  0.00    -0.276 OA
ATOM     24  N   UNL     1     145.256 172.416 190.971  0.00  0.00    -0.313 N 
ATOM     25  H   UNL     1     145.328 171.484 191.361  0.00  0.00    +0.149 HD
BRANCH  22  26
ATOM     26  C   UNL     1     142.890 171.991 191.206  0.00  0.00    +0.050 C 
ATOM     27  H   UNL     1     142.729 172.156 192.281  0.00  0.00    +0.038 HD
ATOM     28  H   UNL     1     141.976 172.264 190.667  0.00  0.00    +0.038 HD
BRANCH  26  33
ATOM     29  C   UNL     1     144.070 169.115 189.138  0.00  0.00    +0.066 C 
ATOM     30  C   UNL     1     142.989 168.064 189.420  0.00  0.00    -0.026 C 
ATOM     31  C   UNL     1     142.465 168.140 190.852  0.00  0.00    -0.046 C 
ATOM     32  C   UNL     1     142.067 169.573 191.233  0.00  0.00    -0.017 C 
ATOM     33  C   UNL     1     143.252 170.524 190.943  0.00  0.00    +0.070 C 
ATOM     34  O   UNL     1     143.648 170.420 189.567  0.00  0.00    -0.372 OA
ATOM     35  H   UNL     1     144.173 169.197 188.050  0.00  0.00    +0.060 HD
ATOM     36  H   UNL     1     143.347 167.052 189.206  0.00  0.00    +0.029 HD
ATOM     37  H   UNL     1     142.148 168.243 188.736  0.00  0.00    +0.029 HD
ATOM     38  H   UNL     1     143.244 167.790 191.542  0.00  0.00    +0.027 HD
ATOM     39  H   UNL     1     141.615 167.455 190.973  0.00  0.00    +0.027 HD
ATOM     40  H   UNL     1     141.857 169.587 192.312  0.00  0.00    +0.032 HD
ATOM     41  H   UNL     1     144.094 170.221 191.578  0.00  0.00    +0.060 HD
BRANCH  32  42
ATOM     42  C   UNL     1     140.770 169.980 190.510  0.00  0.00    -0.060 C 
ATOM     43  H   UNL     1     139.949 170.162 191.212  0.00  0.00    +0.023 HD
ATOM     44  H   UNL     1     140.450 169.197 189.815  0.00  0.00    +0.023 HD
ATOM     45  H   UNL     1     140.928 170.892 189.922  0.00  0.00    +0.023 HD
ENDBRANCH  32  42
BRANCH  29  46
ATOM     46  C   UNL     1     145.444 168.753 189.719  0.00  0.00    +0.036 C 
ATOM     47  H   UNL     1     145.568 167.667 189.789  0.00  0.00    +0.037 HD
ATOM     48  H   UNL     1     145.533 169.148 190.742  0.00  0.00    +0.037 HD
BRANCH  46  49
ATOM     49  C   UNL     1     146.567 169.351 188.893  0.00  0.00    +0.158 C 
ATOM     50  O   UNL     1     147.327 170.206 189.337  0.00  0.00    -0.293 OA
BRANCH  49  52
ATOM     51  C   UNL     1     147.543 169.440 186.634  0.00  0.00    -0.084 C 
ATOM     52  C   UNL     1     146.731 168.825 187.505  0.00  0.00    -0.023 C 
ATOM     53  H   UNL     1     148.093 170.331 186.942  0.00  0.00    +0.057 HD
ATOM     54  H   UNL     1     146.165 167.940 187.238  0.00  0.00    +0.065 HD
BRANCH  51  55
ATOM     55  C   UNL     1     147.771 168.990 185.228  0.00  0.00    -0.046 C 
ATOM     56  H   UNL     1     146.952 168.336 184.909  0.00  0.00    +0.027 HD
ATOM     57  H   UNL     1     148.711 168.442 185.110  0.00  0.00    +0.027 HD
ATOM     58  H   UNL     1     147.796 169.856 184.559  0.00  0.00    +0.027 HD
ENDBRANCH  51  55
ENDBRANCH  49  52
ENDBRANCH  46  49
ENDBRANCH  29  46
ENDBRANCH  26  33
ENDBRANCH  22  26
ENDBRANCH  19  24
ENDBRANCH  17  19
BRANCH  17  59
ATOM     59  O   UNL     1     148.782 173.669 190.862  0.00  0.00    -0.390 OA
ATOM     60  H   UNL     1     149.043 172.762 190.581  0.00  0.00    +0.210 HD
ENDBRANCH  17  59
ENDBRANCH  11  17
ENDBRANCH   7  11
ENDBRANCH   4   9
ENDBRANCH   1   4
BRANCH   1  61
ATOM     61  C   UNL     1     147.923 167.292 193.911  0.00  0.00    -0.025 C 
ATOM     62  H   UNL     1     148.268 168.131 194.532  0.00  0.00    +0.029 HD
ATOM     63  H   UNL     1     146.911 167.037 194.240  0.00  0.00    +0.029 HD
BRANCH  61  64
ATOM     64  C   UNL     1     148.886 166.104 194.107  0.00  0.00    +0.065 C 
ATOM     65  C   UNL     1     150.025 166.449 195.095  0.00  0.00    -0.017 C 
ATOM     66  C   UNL     1     151.258 165.562 194.858  0.00  0.00    -0.043 C 
ATOM     67  C   UNL     1     150.859 164.265 194.163  0.00  0.00    +0.002 C 
ATOM     68  C   UNL     1     150.175 164.548 192.803  0.00  0.00    +0.171 C 
ATOM     69  O   UNL     1     149.459 165.791 192.832  0.00  0.00    -0.345 OA
ATOM     70  C   UNL     1     151.245 164.675 191.695  0.00  0.00    +0.002 C 
ATOM     71  C   UNL     1     151.584 163.329 191.088  0.00  0.00    -0.046 C 
ATOM     72  C   UNL     1     150.334 162.645 190.542  0.00  0.00    -0.026 C 
ATOM     73  C   UNL     1     149.029 163.099 191.211  0.00  0.00    +0.062 C 
ATOM     74  O   UNL     1     149.277 163.455 192.574  0.00  0.00    -0.345 OA
ATOM     75  H   UNL     1     148.325 165.234 194.464  0.00  0.00    +0.060 HD
ATOM     76  H   UNL     1     150.337 167.492 194.937  0.00  0.00    +0.032 HD
ATOM     77  H   UNL     1     151.973 166.106 194.224  0.00  0.00    +0.027 HD
ATOM     78  H   UNL     1     151.782 165.341 195.793  0.00  0.00    +0.027 HD
ATOM     79  H   UNL     1     150.179 163.704 194.817  0.00  0.00    +0.032 HD
ATOM     80  H   UNL     1     151.730 163.614 194.033  0.00  0.00    +0.032 HD
ATOM     81  H   UNL     1     152.151 165.156 192.081  0.00  0.00    +0.032 HD
ATOM     82  H   UNL     1     150.901 165.344 190.898  0.00  0.00    +0.032 HD
ATOM     83  H   UNL     1     152.044 162.688 191.847  0.00  0.00    +0.027 HD
ATOM     84  H   UNL     1     152.324 163.443 190.285  0.00  0.00    +0.027 HD
ATOM     85  H   UNL     1     150.454 161.565 190.709  0.00  0.00    +0.029 HD
ATOM     86  H   UNL     1     150.293 162.758 189.455  0.00  0.00    +0.029 HD
ATOM     87  H   UNL     1     148.379 162.217 191.253  0.00  0.00    +0.060 HD
BRANCH  65  88
ATOM     88  C   UNL     1     149.551 166.332 196.549  0.00  0.00    -0.060 C 
ATOM     89  H   UNL     1     149.751 167.253 197.108  0.00  0.00    +0.023 HD
ATOM     90  H   UNL     1     150.042 165.507 197.072  0.00  0.00    +0.023 HD
ATOM     91  H   UNL     1     148.470 166.147 196.589  0.00  0.00    +0.023 HD
ENDBRANCH  65  88
BRANCH  73  92
ATOM     92  C   UNL     1     148.227 164.186 190.472  0.00  0.00    -0.026 C 
ATOM     93  H   UNL     1     147.171 164.058 190.742  0.00  0.00    +0.029 HD
ATOM     94  H   UNL     1     148.503 165.178 190.830  0.00  0.00    +0.029 HD
BRANCH  92  95
ATOM     95  C   UNL     1     148.360 164.156 188.942  0.00  0.00    -0.045 C 
ATOM     96  H   UNL     1     149.323 163.715 188.665  0.00  0.00    +0.027 HD
ATOM     97  H   UNL     1     147.587 163.497 188.543  0.00  0.00    +0.027 HD
BRANCH  95  98
ATOM     98  C   UNL     1     148.274 165.561 188.308  0.00  0.00    -0.025 C 
ATOM     99  H   UNL     1     147.412 166.057 188.777  0.00  0.00    +0.034 HD
BRANCH  98 100
ATOM    100  C   UNL     1     148.002 165.545 186.804  0.00  0.00    -0.059 C 
ATOM    101  H   UNL     1     148.930 165.403 186.241  0.00  0.00    +0.024 HD
ATOM    102  H   UNL     1     147.543 166.475 186.467  0.00  0.00    +0.024 HD
ATOM    103  H   UNL     1     147.329 164.726 186.532  0.00  0.00    +0.024 HD
ENDBRANCH  98 100
BRANCH  98 104
ATOM    104  C   UNL     1     149.457 166.456 188.632  0.00  0.00    -0.080 C 
ATOM    105  C   UNL     1     150.778 166.292 188.395  0.00  0.00    -0.048 C 
ATOM    106  H   UNL     1     149.139 167.373 189.128  0.00  0.00    +0.058 HD
BRANCH 105 107
ATOM    107  C   UNL     1     151.338 165.136 187.609  0.00  0.00    -0.041 C 
ATOM    108  H   UNL     1     150.764 164.217 187.740  0.00  0.00    +0.028 HD
ATOM    109  H   UNL     1     151.318 165.352 186.535  0.00  0.00    +0.028 HD
ATOM    110  H   UNL     1     152.379 164.951 187.903  0.00  0.00    +0.028 HD
ENDBRANCH 105 107
BRANCH 105 111
ATOM    111  C   UNL     1     151.828 167.303 188.850  0.00  0.00    +0.073 C 
ATOM    112  H   UNL     1     152.037 167.995 188.027  0.00  0.00    +0.064 HD
BRANCH 111 113
ATOM    113  C   UNL     1     153.135 166.650 189.299  0.00  0.00    -0.035 C 
ATOM    114  H   UNL     1     153.992 167.276 189.026  0.00  0.00    +0.026 HD
ATOM    115  H   UNL     1     153.165 166.528 190.388  0.00  0.00    +0.026 HD
ATOM    116  H   UNL     1     153.271 165.667 188.836  0.00  0.00    +0.026 HD
ENDBRANCH 111 113
BRANCH 111 117
ATOM    117  O   UNL     1     151.350 168.094 189.940  0.00  0.00    -0.388 OA
ATOM    118  H   UNL     1     150.608 168.626 189.601  0.00  0.00    +0.210 HD
ENDBRANCH 111 117
ENDBRANCH 105 111
ENDBRANCH  98 104
ENDBRANCH  95  98
ENDBRANCH  92  95
ENDBRANCH  73  92
ENDBRANCH  61  64
ENDBRANCH   1  61
TORSDOF 27
ENDMDL
MODEL 9
REMARK VINA RESULT:      -6.7      3.034     10.190
REMARK  Name = Bistramide A_conf1
REMARK  27 active torsions:
REMARK  status: ('A' for Active; 'I' for Inactive)
REMARK    1  A    between atoms: C_1  and  C_2
REMARK    2  A    between atoms: C_3  and  C_4
REMARK    3  A    between atoms: C_4  and  C_6
REMARK    4  A    between atoms: C_6  and  C_7
REMARK    5  A    between atoms: C_10  and  C_50
REMARK    6  A    between atoms: C_11  and  C_13
REMARK    7  A    between atoms: C_13  and  C_14
REMARK    8  A    between atoms: N_16  and  C_17
REMARK    9  A    between atoms: C_17  and  C_18
REMARK   10  A    between atoms: C_18  and  C_19
REMARK   11  A    between atoms: C_18  and  O_49
REMARK   12  A    between atoms: C_19  and  C_20
REMARK   13  A    between atoms: C_19  and  C_21
REMARK   14  A    between atoms: N_23  and  C_24
REMARK   15  A    between atoms: C_24  and  C_25
REMARK   16  A    between atoms: C_25  and  C_26
REMARK   17  A    between atoms: C_26  and  C_27
REMARK   18  A    between atoms: C_28  and  C_48
REMARK   19  A    between atoms: C_36  and  C_38
REMARK   20  A    between atoms: C_38  and  C_39
REMARK   21  A    between atoms: C_39  and  C_40
REMARK   22  A    between atoms: C_40  and  C_41
REMARK   23  A    between atoms: C_40  and  C_42
REMARK   24  A    between atoms: C_43  and  C_44
REMARK   25  A    between atoms: C_43  and  C_45
REMARK   26  A    between atoms: C_45  and  C_46
REMARK   27  A    between atoms: C_45  and  O_47
REMARK                            x       y       z     vdW  Elec       q    Type
REMARK                         _______ _______ _______ _____ _____    ______ ____
ROOT
ATOM      1  C   UNL     1     147.906 168.924 191.128  0.00  0.00    -0.035 C 
ATOM      2  H   UNL     1     147.003 169.356 190.675  0.00  0.00    +0.028 HD
ATOM      3  H   UNL     1     148.601 168.740 190.301  0.00  0.00    +0.028 HD
ENDROOT
BRANCH   1   4
ATOM      4  C   UNL     1     147.520 167.620 191.820  0.00  0.00    +0.012 C 
ATOM      5  H   UNL     1     146.543 167.691 192.311  0.00  0.00    +0.046 HD
ATOM      6  H   UNL     1     147.448 166.804 191.088  0.00  0.00    +0.046 HD
BRANCH   4   9
ATOM      7  C   UNL     1     148.059 166.549 193.973  0.00  0.00    +0.218 C 
ATOM      8  O   UNL     1     146.943 166.053 194.100  0.00  0.00    -0.275 OA
ATOM      9  N   UNL     1     148.456 167.244 192.856  0.00  0.00    -0.315 N 
ATOM     10  H   UNL     1     149.375 167.686 192.888  0.00  0.00    +0.149 HD
BRANCH   7  11
ATOM     11  C   UNL     1     149.105 166.454 195.079  0.00  0.00    +0.060 C 
ATOM     12  H   UNL     1     149.591 167.439 195.124  0.00  0.00    +0.042 HD
BRANCH  11  13
ATOM     13  C   UNL     1     148.430 166.195 196.425  0.00  0.00    -0.052 C 
ATOM     14  H   UNL     1     148.785 166.870 197.207  0.00  0.00    +0.024 HD
ATOM     15  H   UNL     1     147.345 166.318 196.335  0.00  0.00    +0.024 HD
ATOM     16  H   UNL     1     148.626 165.173 196.764  0.00  0.00    +0.024 HD
ENDBRANCH  11  13
BRANCH  11  17
ATOM     17  C   UNL     1     150.193 165.410 194.742  0.00  0.00    +0.081 C 
ATOM     18  H   UNL     1     150.336 164.773 195.618  0.00  0.00    +0.062 HD
BRANCH  17  19
ATOM     19  C   UNL     1     151.533 166.070 194.344  0.00  0.00    +0.038 C 
ATOM     20  H   UNL     1     151.585 167.100 194.710  0.00  0.00    +0.049 HD
ATOM     21  H   UNL     1     152.377 165.506 194.760  0.00  0.00    +0.049 HD
BRANCH  19  24
ATOM     22  C   UNL     1     151.824 167.312 192.182  0.00  0.00    +0.216 C 
ATOM     23  O   UNL     1     151.456 168.391 192.635  0.00  0.00    -0.276 OA
ATOM     24  N   UNL     1     151.798 166.142 192.913  0.00  0.00    -0.313 N 
ATOM     25  H   UNL     1     152.130 165.298 192.462  0.00  0.00    +0.149 HD
BRANCH  22  26
ATOM     26  C   UNL     1     152.433 167.140 190.806  0.00  0.00    +0.050 C 
ATOM     27  H   UNL     1     152.954 168.087 190.603  0.00  0.00    +0.038 HD
ATOM     28  H   UNL     1     153.172 166.332 190.844  0.00  0.00    +0.038 HD
BRANCH  26  33
ATOM     29  C   UNL     1     150.182 164.993 188.742  0.00  0.00    +0.066 C 
ATOM     30  C   UNL     1     150.500 165.482 187.323  0.00  0.00    -0.026 C 
ATOM     31  C   UNL     1     150.802 166.979 187.279  0.00  0.00    -0.046 C 
ATOM     32  C   UNL     1     151.845 167.376 188.332  0.00  0.00    -0.017 C 
ATOM     33  C   UNL     1     151.388 166.865 189.719  0.00  0.00    +0.070 C 
ATOM     34  O   UNL     1     151.171 165.447 189.679  0.00  0.00    -0.372 OA
ATOM     35  H   UNL     1     150.275 163.901 188.741  0.00  0.00    +0.060 HD
ATOM     36  H   UNL     1     149.691 165.243 186.625  0.00  0.00    +0.029 HD
ATOM     37  H   UNL     1     151.386 164.942 186.963  0.00  0.00    +0.029 HD
ATOM     38  H   UNL     1     149.876 167.540 187.462  0.00  0.00    +0.027 HD
ATOM     39  H   UNL     1     151.139 167.259 186.272  0.00  0.00    +0.027 HD
ATOM     40  H   UNL     1     151.893 168.474 188.358  0.00  0.00    +0.032 HD
ATOM     41  H   UNL     1     150.441 167.361 189.969  0.00  0.00    +0.060 HD
BRANCH  32  42
ATOM     42  C   UNL     1     153.239 166.866 187.926  0.00  0.00    -0.060 C 
ATOM     43  H   UNL     1     153.855 167.661 187.490  0.00  0.00    +0.023 HD
ATOM     44  H   UNL     1     153.159 166.061 187.188  0.00  0.00    +0.023 HD
ATOM     45  H   UNL     1     153.768 166.459 188.796  0.00  0.00    +0.023 HD
ENDBRANCH  32  42
BRANCH  29  46
ATOM     46  C   UNL     1     148.764 165.349 189.210  0.00  0.00    +0.036 C 
ATOM     47  H   UNL     1     148.091 165.491 188.356  0.00  0.00    +0.037 HD
ATOM     48  H   UNL     1     148.780 166.302 189.761  0.00  0.00    +0.037 HD
BRANCH  46  49
ATOM     49  C   UNL     1     148.207 164.287 190.138  0.00  0.00    +0.158 C 
ATOM     50  O   UNL     1     148.324 164.353 191.358  0.00  0.00    -0.293 OA
BRANCH  49  52
ATOM     51  C   UNL     1     147.982 161.917 189.509  0.00  0.00    -0.084 C 
ATOM     52  C   UNL     1     147.471 163.157 189.498  0.00  0.00    -0.023 C 
ATOM     53  H   UNL     1     148.941 161.731 189.995  0.00  0.00    +0.057 HD
ATOM     54  H   UNL     1     146.524 163.384 189.024  0.00  0.00    +0.065 HD
BRANCH  51  55
ATOM     55  C   UNL     1     147.321 160.725 188.897  0.00  0.00    -0.046 C 
ATOM     56  H   UNL     1     147.444 160.751 187.809  0.00  0.00    +0.027 HD
ATOM     57  H   UNL     1     146.250 160.679 189.119  0.00  0.00    +0.027 HD
ATOM     58  H   UNL     1     147.786 159.808 189.272  0.00  0.00    +0.027 HD
ENDBRANCH  51  55
ENDBRANCH  49  52
ENDBRANCH  46  49
ENDBRANCH  29  46
ENDBRANCH  26  33
ENDBRANCH  22  26
ENDBRANCH  19  24
ENDBRANCH  17  19
BRANCH  17  59
ATOM     59  O   UNL     1     149.715 164.574 193.682  0.00  0.00    -0.390 OA
ATOM     60  H   UNL     1     150.235 163.739 193.739  0.00  0.00    +0.210 HD
ENDBRANCH  17  59
ENDBRANCH  11  17
ENDBRANCH   7  11
ENDBRANCH   4   9
ENDBRANCH   1   4
BRANCH   1  61
ATOM     61  C   UNL     1     148.515 169.938 192.107  0.00  0.00    -0.025 C 
ATOM     62  H   UNL     1     148.252 169.611 193.122  0.00  0.00    +0.029 HD
ATOM     63  H   UNL     1     149.606 169.907 192.026  0.00  0.00    +0.029 HD
BRANCH  61  64
ATOM     64  C   UNL     1     147.984 171.371 191.896  0.00  0.00    +0.065 C 
ATOM     65  C   UNL     1     148.077 172.210 193.193  0.00  0.00    -0.017 C 
ATOM     66  C   UNL     1     147.062 173.365 193.183  0.00  0.00    -0.043 C 
ATOM     67  C   UNL     1     146.671 173.723 191.754  0.00  0.00    +0.002 C 
ATOM     68  C   UNL     1     146.052 172.506 191.023  0.00  0.00    +0.171 C 
ATOM     69  O   UNL     1     146.609 171.275 191.505  0.00  0.00    -0.345 OA
ATOM     70  C   UNL     1     144.532 172.446 191.300  0.00  0.00    +0.002 C 
ATOM     71  C   UNL     1     143.749 173.270 190.299  0.00  0.00    -0.046 C 
ATOM     72  C   UNL     1     144.046 172.823 188.871  0.00  0.00    -0.026 C 
ATOM     73  C   UNL     1     145.410 172.140 188.699  0.00  0.00    +0.062 C 
ATOM     74  O   UNL     1     146.349 172.683 189.633  0.00  0.00    -0.345 OA
ATOM     75  H   UNL     1     148.546 171.854 191.091  0.00  0.00    +0.060 HD
ATOM     76  H   UNL     1     147.836 171.571 194.055  0.00  0.00    +0.032 HD
ATOM     77  H   UNL     1     146.164 173.057 193.737  0.00  0.00    +0.027 HD
ATOM     78  H   UNL     1     147.453 174.249 193.698  0.00  0.00    +0.027 HD
ATOM     79  H   UNL     1     147.562 174.071 191.216  0.00  0.00    +0.032 HD
ATOM     80  H   UNL     1     145.982 174.574 191.745  0.00  0.00    +0.032 HD
ATOM     81  H   UNL     1     144.308 172.776 192.321  0.00  0.00    +0.032 HD
ATOM     82  H   UNL     1     144.172 171.412 191.263  0.00  0.00    +0.032 HD
ATOM     83  H   UNL     1     144.010 174.328 190.408  0.00  0.00    +0.027 HD
ATOM     84  H   UNL     1     142.672 173.192 190.495  0.00  0.00    +0.027 HD
ATOM     85  H   UNL     1     144.022 173.721 188.236  0.00  0.00    +0.029 HD
ATOM     86  H   UNL     1     143.230 172.196 188.500  0.00  0.00    +0.029 HD
ATOM     87  H   UNL     1     145.781 172.432 187.710  0.00  0.00    +0.060 HD
BRANCH  65  88
ATOM     88  C   UNL     1     149.498 172.745 193.405  0.00  0.00    -0.060 C 
ATOM     89  H   UNL     1     150.244 171.952 193.279  0.00  0.00    +0.023 HD
ATOM     90  H   UNL     1     149.627 173.173 194.402  0.00  0.00    +0.023 HD
ATOM     91  H   UNL     1     149.726 173.535 192.678  0.00  0.00    +0.023 HD
ENDBRANCH  65  88
BRANCH  73  92
ATOM     92  C   UNL     1     145.409 170.601 188.718  0.00  0.00    -0.026 C 
ATOM     93  H   UNL     1     146.051 170.260 187.895  0.00  0.00    +0.029 HD
ATOM     94  H   UNL     1     145.877 170.226 189.629  0.00  0.00    +0.029 HD
BRANCH  92  95
ATOM     95  C   UNL     1     144.023 169.956 188.571  0.00  0.00    -0.045 C 
ATOM     96  H   UNL     1     143.299 170.495 189.192  0.00  0.00    +0.027 HD
ATOM     97  H   UNL     1     143.697 170.074 187.536  0.00  0.00    +0.027 HD
BRANCH  95  98
ATOM     98  C   UNL     1     144.008 168.471 188.994  0.00  0.00    -0.025 C 
ATOM     99  H   UNL     1     145.036 168.228 189.298  0.00  0.00    +0.034 HD
BRANCH  98 100
ATOM    100  C   UNL     1     143.649 167.510 187.861  0.00  0.00    -0.059 C 
ATOM    101  H   UNL     1     142.564 167.400 187.770  0.00  0.00    +0.024 HD
ATOM    102  H   UNL     1     144.075 166.519 188.023  0.00  0.00    +0.024 HD
ATOM    103  H   UNL     1     144.019 167.876 186.899  0.00  0.00    +0.024 HD
ENDBRANCH  98 100
BRANCH  98 104
ATOM    104  C   UNL     1     143.165 168.190 190.225  0.00  0.00    -0.080 C 
ATOM    105  C   UNL     1     143.276 167.229 191.170  0.00  0.00    -0.048 C 
ATOM    106  H   UNL     1     142.355 168.914 190.328  0.00  0.00    +0.058 HD
BRANCH 105 107
ATOM    107  C   UNL     1     144.416 166.248 191.218  0.00  0.00    -0.041 C 
ATOM    108  H   UNL     1     145.210 166.554 191.902  0.00  0.00    +0.028 HD
ATOM    109  H   UNL     1     144.072 165.271 191.575  0.00  0.00    +0.028 HD
ATOM    110  H   UNL     1     144.842 166.117 190.215  0.00  0.00    +0.028 HD
ENDBRANCH 105 107
BRANCH 105 111
ATOM    111  C   UNL     1     142.282 167.087 192.320  0.00  0.00    +0.073 C 
ATOM    112  H   UNL     1     141.542 167.892 192.253  0.00  0.00    +0.064 HD
BRANCH 111 113
ATOM    113  C   UNL     1     142.947 167.134 193.697  0.00  0.00    -0.035 C 
ATOM    114  H   UNL     1     143.236 166.127 194.018  0.00  0.00    +0.026 HD
ATOM    115  H   UNL     1     143.863 167.736 193.674  0.00  0.00    +0.026 HD
ATOM    116  H   UNL     1     142.275 167.553 194.452  0.00  0.00    +0.026 HD
ENDBRANCH 111 113
BRANCH 111 117
ATOM    117  O   UNL     1     141.560 165.857 192.236  0.00  0.00    -0.388 OA
ATOM    118  H   UNL     1     141.552 165.471 193.129  0.00  0.00    +0.210 HD
ENDBRANCH 111 117
ENDBRANCH 105 111
ENDBRANCH  98 104
ENDBRANCH  95  98
ENDBRANCH  92  95
ENDBRANCH  73  92
ENDBRANCH  61  64
ENDBRANCH   1  61
TORSDOF 27
ENDMDL
MODEL 10
REMARK VINA RESULT:      -6.7      3.252     10.707
REMARK  Name = Bistramide A_conf1
REMARK  27 active torsions:
REMARK  status: ('A' for Active; 'I' for Inactive)
REMARK    1  A    between atoms: C_1  and  C_2
REMARK    2  A    between atoms: C_3  and  C_4
REMARK    3  A    between atoms: C_4  and  C_6
REMARK    4  A    between atoms: C_6  and  C_7
REMARK    5  A    between atoms: C_10  and  C_50
REMARK    6  A    between atoms: C_11  and  C_13
REMARK    7  A    between atoms: C_13  and  C_14
REMARK    8  A    between atoms: N_16  and  C_17
REMARK    9  A    between atoms: C_17  and  C_18
REMARK   10  A    between atoms: C_18  and  C_19
REMARK   11  A    between atoms: C_18  and  O_49
REMARK   12  A    between atoms: C_19  and  C_20
REMARK   13  A    between atoms: C_19  and  C_21
REMARK   14  A    between atoms: N_23  and  C_24
REMARK   15  A    between atoms: C_24  and  C_25
REMARK   16  A    between atoms: C_25  and  C_26
REMARK   17  A    between atoms: C_26  and  C_27
REMARK   18  A    between atoms: C_28  and  C_48
REMARK   19  A    between atoms: C_36  and  C_38
REMARK   20  A    between atoms: C_38  and  C_39
REMARK   21  A    between atoms: C_39  and  C_40
REMARK   22  A    between atoms: C_40  and  C_41
REMARK   23  A    between atoms: C_40  and  C_42
REMARK   24  A    between atoms: C_43  and  C_44
REMARK   25  A    between atoms: C_43  and  C_45
REMARK   26  A    between atoms: C_45  and  C_46
REMARK   27  A    between atoms: C_45  and  O_47
REMARK                            x       y       z     vdW  Elec       q    Type
REMARK                         _______ _______ _______ _____ _____    ______ ____
ROOT
ATOM      1  C   UNL     1     147.449 169.110 188.996  0.00  0.00    -0.035 C 
ATOM      2  H   UNL     1     147.676 168.591 188.054  0.00  0.00    +0.028 HD
ATOM      3  H   UNL     1     148.264 169.825 189.150  0.00  0.00    +0.028 HD
ENDROOT
BRANCH   1   4
ATOM      4  C   UNL     1     147.408 168.074 190.116  0.00  0.00    +0.012 C 
ATOM      5  H   UNL     1     148.217 168.224 190.840  0.00  0.00    +0.046 HD
ATOM      6  H   UNL     1     146.465 168.151 190.674  0.00  0.00    +0.046 HD
BRANCH   4   9
ATOM      7  C   UNL     1     147.393 165.633 190.447  0.00  0.00    +0.218 C 
ATOM      8  O   UNL     1     146.946 165.707 191.589  0.00  0.00    -0.275 OA
ATOM      9  N   UNL     1     147.559 166.723 189.627  0.00  0.00    -0.315 N 
ATOM     10  H   UNL     1     148.017 166.560 188.729  0.00  0.00    +0.149 HD
BRANCH   7  11
ATOM     11  C   UNL     1     147.833 164.301 189.848  0.00  0.00    +0.060 C 
ATOM     12  H   UNL     1     147.261 163.526 190.377  0.00  0.00    +0.042 HD
BRANCH  11  13
ATOM     13  C   UNL     1     147.463 164.240 188.367  0.00  0.00    -0.052 C 
ATOM     14  H   UNL     1     147.914 165.050 187.790  0.00  0.00    +0.024 HD
ATOM     15  H   UNL     1     147.790 163.289 187.933  0.00  0.00    +0.024 HD
ATOM     16  H   UNL     1     146.378 164.314 188.238  0.00  0.00    +0.024 HD
ENDBRANCH  11  13
BRANCH  11  17
ATOM     17  C   UNL     1     149.333 164.033 190.104  0.00  0.00    +0.081 C 
ATOM     18  H   UNL     1     149.829 163.921 189.137  0.00  0.00    +0.062 HD
BRANCH  17  19
ATOM     19  C   UNL     1     149.562 162.769 190.964  0.00  0.00    +0.038 C 
ATOM     20  H   UNL     1     149.251 162.940 191.999  0.00  0.00    +0.049 HD
ATOM     21  H   UNL     1     148.993 161.922 190.561  0.00  0.00    +0.049 HD
BRANCH  19  24
ATOM     22  C   UNL     1     151.435 161.228 190.320  0.00  0.00    +0.216 C 
ATOM     23  O   UNL     1     150.720 160.460 189.684  0.00  0.00    -0.276 OA
ATOM     24  N   UNL     1     150.940 162.298 191.035  0.00  0.00    -0.313 N 
ATOM     25  H   UNL     1     151.603 162.886 191.524  0.00  0.00    +0.149 HD
BRANCH  22  26
ATOM     26  C   UNL     1     152.948 161.156 190.331  0.00  0.00    +0.050 C 
ATOM     27  H   UNL     1     153.218 160.913 191.369  0.00  0.00    +0.038 HD
ATOM     28  H   UNL     1     153.269 160.334 189.681  0.00  0.00    +0.038 HD
BRANCH  26  33
ATOM     29  C   UNL     1     153.502 164.099 188.101  0.00  0.00    +0.066 C 
ATOM     30  C   UNL     1     155.030 164.099 187.959  0.00  0.00    -0.026 C 
ATOM     31  C   UNL     1     155.731 163.644 189.236  0.00  0.00    -0.046 C 
ATOM     32  C   UNL     1     155.147 162.326 189.763  0.00  0.00    -0.017 C 
ATOM     33  C   UNL     1     153.612 162.470 189.903  0.00  0.00    +0.070 C 
ATOM     34  O   UNL     1     153.033 162.856 188.647  0.00  0.00    -0.372 OA
ATOM     35  H   UNL     1     153.079 164.139 187.090  0.00  0.00    +0.060 HD
ATOM     36  H   UNL     1     155.405 165.082 187.656  0.00  0.00    +0.029 HD
ATOM     37  H   UNL     1     155.301 163.405 187.152  0.00  0.00    +0.029 HD
ATOM     38  H   UNL     1     155.619 164.419 190.007  0.00  0.00    +0.027 HD
ATOM     39  H   UNL     1     156.810 163.545 189.052  0.00  0.00    +0.027 HD
ATOM     40  H   UNL     1     155.577 162.143 190.758  0.00  0.00    +0.032 HD
ATOM     41  H   UNL     1     153.411 163.256 190.642  0.00  0.00    +0.060 HD
BRANCH  32  42
ATOM     42  C   UNL     1     155.567 161.153 188.860  0.00  0.00    -0.060 C 
ATOM     43  H   UNL     1     156.194 160.429 189.394  0.00  0.00    +0.023 HD
ATOM     44  H   UNL     1     156.133 161.512 187.994  0.00  0.00    +0.023 HD
ATOM     45  H   UNL     1     154.684 160.627 188.477  0.00  0.00    +0.023 HD
ENDBRANCH  32  42
BRANCH  29  46
ATOM     46  C   UNL     1     152.960 165.297 188.892  0.00  0.00    +0.036 C 
ATOM     47  H   UNL     1     153.489 165.414 189.844  0.00  0.00    +0.037 HD
ATOM     48  H   UNL     1     151.900 165.133 189.138  0.00  0.00    +0.037 HD
BRANCH  46  49
ATOM     49  C   UNL     1     153.054 166.579 188.086  0.00  0.00    +0.158 C 
ATOM     50  O   UNL     1     153.987 167.366 188.210  0.00  0.00    -0.293 OA
BRANCH  49  52
ATOM     51  C   UNL     1     150.677 166.792 187.478  0.00  0.00    -0.084 C 
ATOM     52  C   UNL     1     151.962 166.831 187.099  0.00  0.00    -0.023 C 
ATOM     53  H   UNL     1     150.426 166.579 188.519  0.00  0.00    +0.057 HD
ATOM     54  H   UNL     1     152.254 167.036 186.076  0.00  0.00    +0.065 HD
BRANCH  51  55
ATOM     55  C   UNL     1     149.519 167.030 186.565  0.00  0.00    -0.046 C 
ATOM     56  H   UNL     1     149.390 166.172 185.897  0.00  0.00    +0.027 HD
ATOM     57  H   UNL     1     149.647 167.927 185.951  0.00  0.00    +0.027 HD
ATOM     58  H   UNL     1     148.602 167.146 187.151  0.00  0.00    +0.027 HD
ENDBRANCH  51  55
ENDBRANCH  49  52
ENDBRANCH  46  49
ENDBRANCH  29  46
ENDBRANCH  26  33
ENDBRANCH  22  26
ENDBRANCH  19  24
ENDBRANCH  17  19
BRANCH  17  59
ATOM     59  O   UNL     1     149.903 165.181 190.743  0.00  0.00    -0.390 OA
ATOM     60  H   UNL     1     150.879 165.058 190.702  0.00  0.00    +0.210 HD
ENDBRANCH  17  59
ENDBRANCH  11  17
ENDBRANCH   7  11
ENDBRANCH   4   9
ENDBRANCH   1   4
BRANCH   1  61
ATOM     61  C   UNL     1     146.116 169.858 188.852  0.00  0.00    -0.025 C 
ATOM     62  H   UNL     1     146.154 170.413 187.905  0.00  0.00    +0.029 HD
ATOM     63  H   UNL     1     145.303 169.130 188.772  0.00  0.00    +0.029 HD
BRANCH  61  64
ATOM     64  C   UNL     1     145.859 170.854 190.000  0.00  0.00    +0.065 C 
ATOM     65  C   UNL     1     144.729 171.851 189.647  0.00  0.00    -0.017 C 
ATOM     66  C   UNL     1     144.856 173.150 190.461  0.00  0.00    -0.043 C 
ATOM     67  C   UNL     1     145.647 172.904 191.741  0.00  0.00    +0.002 C 
ATOM     68  C   UNL     1     147.065 172.368 191.427  0.00  0.00    +0.171 C 
ATOM     69  O   UNL     1     147.068 171.587 190.223  0.00  0.00    -0.345 OA
ATOM     70  C   UNL     1     148.033 173.550 191.195  0.00  0.00    +0.002 C 
ATOM     71  C   UNL     1     148.652 174.029 192.492  0.00  0.00    -0.046 C 
ATOM     72  C   UNL     1     149.369 172.889 193.209  0.00  0.00    -0.026 C 
ATOM     73  C   UNL     1     148.841 171.493 192.852  0.00  0.00    +0.062 C 
ATOM     74  O   UNL     1     147.444 171.562 192.550  0.00  0.00    -0.345 OA
ATOM     75  H   UNL     1     145.607 170.303 190.912  0.00  0.00    +0.060 HD
ATOM     76  H   UNL     1     144.806 172.123 188.585  0.00  0.00    +0.032 HD
ATOM     77  H   UNL     1     145.378 173.902 189.853  0.00  0.00    +0.027 HD
ATOM     78  H   UNL     1     143.875 173.573 190.701  0.00  0.00    +0.027 HD
ATOM     79  H   UNL     1     145.102 172.184 192.365  0.00  0.00    +0.032 HD
ATOM     80  H   UNL     1     145.700 173.818 192.342  0.00  0.00    +0.032 HD
ATOM     81  H   UNL     1     147.523 174.378 190.690  0.00  0.00    +0.032 HD
ATOM     82  H   UNL     1     148.836 173.265 190.506  0.00  0.00    +0.032 HD
ATOM     83  H   UNL     1     147.871 174.433 193.146  0.00  0.00    +0.027 HD
ATOM     84  H   UNL     1     149.356 174.849 192.303  0.00  0.00    +0.027 HD
ATOM     85  H   UNL     1     149.235 173.048 194.289  0.00  0.00    +0.029 HD
ATOM     86  H   UNL     1     150.449 172.968 193.047  0.00  0.00    +0.029 HD
ATOM     87  H   UNL     1     148.913 170.891 193.765  0.00  0.00    +0.060 HD
BRANCH  65  88
ATOM     88  C   UNL     1     143.348 171.219 189.857  0.00  0.00    -0.060 C 
ATOM     89  H   UNL     1     142.860 171.619 190.753  0.00  0.00    +0.023 HD
ATOM     90  H   UNL     1     143.410 170.133 189.964  0.00  0.00    +0.023 HD
ATOM     91  H   UNL     1     142.693 171.426 189.002  0.00  0.00    +0.023 HD
ENDBRANCH  65  88
BRANCH  73  92
ATOM     92  C   UNL     1     149.623 170.725 191.771  0.00  0.00    -0.026 C 
ATOM     93  H   UNL     1     149.075 169.796 191.565  0.00  0.00    +0.029 HD
ATOM     94  H   UNL     1     149.626 171.278 190.831  0.00  0.00    +0.029 HD
BRANCH  92  95
ATOM     95  C   UNL     1     151.071 170.378 192.148  0.00  0.00    -0.045 C 
ATOM     96  H   UNL     1     151.759 170.853 191.441  0.00  0.00    +0.027 HD
ATOM     97  H   UNL     1     151.283 170.806 193.129  0.00  0.00    +0.027 HD
BRANCH  95  98
ATOM     98  C   UNL     1     151.342 168.858 192.135  0.00  0.00    -0.025 C 
ATOM     99  H   UNL     1     152.260 168.705 192.720  0.00  0.00    +0.034 HD
BRANCH  98 100
ATOM    100  C   UNL     1     151.614 168.291 190.741  0.00  0.00    -0.059 C 
ATOM    101  H   UNL     1     151.235 167.268 190.654  0.00  0.00    +0.024 HD
ATOM    102  H   UNL     1     152.681 168.274 190.514  0.00  0.00    +0.024 HD
ATOM    103  H   UNL     1     151.121 168.887 189.968  0.00  0.00    +0.024 HD
ENDBRANCH  98 100
BRANCH  98 104
ATOM    104  C   UNL     1     150.286 168.037 192.853  0.00  0.00    -0.080 C 
ATOM    105  C   UNL     1     150.401 166.932 193.624  0.00  0.00    -0.048 C 
ATOM    106  H   UNL     1     149.288 168.450 192.701  0.00  0.00    +0.058 HD
BRANCH 105 107
ATOM    107  C   UNL     1     151.725 166.334 194.017  0.00  0.00    -0.041 C 
ATOM    108  H   UNL     1     152.576 166.913 193.653  0.00  0.00    +0.028 HD
ATOM    109  H   UNL     1     151.828 166.303 195.108  0.00  0.00    +0.028 HD
ATOM    110  H   UNL     1     151.803 165.308 193.635  0.00  0.00    +0.028 HD
ENDBRANCH 105 107
BRANCH 105 111
ATOM    111  C   UNL     1     149.191 166.218 194.224  0.00  0.00    +0.073 C 
ATOM    112  H   UNL     1     148.290 166.799 194.004  0.00  0.00    +0.064 HD
BRANCH 111 113
ATOM    113  C   UNL     1     149.302 166.021 195.737  0.00  0.00    -0.035 C 
ATOM    114  H   UNL     1     150.350 166.054 196.054  0.00  0.00    +0.026 HD
ATOM    115  H   UNL     1     148.780 166.818 196.280  0.00  0.00    +0.026 HD
ATOM    116  H   UNL     1     148.882 165.058 196.047  0.00  0.00    +0.026 HD
ENDBRANCH 111 113
BRANCH 111 117
ATOM    117  O   UNL     1     149.003 164.929 193.638  0.00  0.00    -0.388 OA
ATOM    118  H   UNL     1     149.882 164.514 193.577  0.00  0.00    +0.210 HD
ENDBRANCH 111 117
ENDBRANCH 105 111
ENDBRANCH  98 104
ENDBRANCH  95  98
ENDBRANCH  92  95
ENDBRANCH  73  92
ENDBRANCH  61  64
ENDBRANCH   1  61
TORSDOF 27
ENDMDL
