MODEL 1
REMARK VINA RESULT:      -7.1      0.000      0.000
REMARK  Name = Cytochalasin D_conf1
REMARK  10 active torsions:
REMARK  status: ('A' for Active; 'I' for Inactive)
REMARK    1  A    between atoms: C_1  and  C_2
REMARK    2  A    between atoms: C_7  and  O_37
REMARK    3  A    between atoms: C_10  and  C_36
REMARK    4  A    between atoms: C_13  and  O_21
REMARK    5  A    between atoms: C_16  and  C_19
REMARK    6  A    between atoms: C_16  and  O_20
REMARK    7  A    between atoms: O_21  and  C_22
REMARK    8  A    between atoms: C_22  and  C_24
REMARK    9  A    between atoms: C_28  and  C_29
REMARK   10  A    between atoms: C_29  and  C_30
REMARK                            x       y       z     vdW  Elec       q    Type
REMARK                         _______ _______ _______ _____ _____    ______ ____
ROOT
ATOM      1  C   UNL     1     143.608 167.070 192.475  0.00  0.00    +0.021 C 
ATOM      2  C   UNL     1     144.439 166.203 193.436  0.00  0.00    -0.025 C 
ATOM      3  C   UNL     1     145.883 166.627 193.494  0.00  0.00    -0.087 C 
ATOM      4  C   UNL     1     146.896 165.919 192.966  0.00  0.00    -0.081 C 
ATOM      5  C   UNL     1     148.364 166.347 193.012  0.00  0.00    +0.025 C 
ATOM      6  C   UNL     1     149.163 165.327 193.873  0.00  0.00    +0.084 C 
ATOM      7  C   UNL     1     150.652 165.608 193.919  0.00  0.00    -0.045 C 
ATOM      8  C   UNL     1     151.487 164.734 194.511  0.00  0.00    -0.097 C 
ATOM      9  C   UNL     1     151.078 166.898 193.248  0.00  0.00    -0.015 C 
ATOM     10  C   UNL     1     150.606 166.893 191.771  0.00  0.00    +0.002 C 
ATOM     11  C   UNL     1     149.049 166.601 191.615  0.00  0.00    +0.101 C 
ATOM     12  C   UNL     1     148.395 167.786 190.821  0.00  0.00    +0.136 C 
ATOM     13  C   UNL     1     147.031 167.504 190.223  0.00  0.00    -0.044 C 
ATOM     14  C   UNL     1     145.861 168.079 190.563  0.00  0.00    -0.046 C 
ATOM     15  C   UNL     1     144.500 167.686 190.049  0.00  0.00    +0.139 C 
ATOM     16  C   UNL     1     143.868 166.656 191.026  0.00  0.00    +0.171 C 
ATOM     17  O   UNL     1     143.589 165.518 190.628  0.00  0.00    -0.294 OA
ATOM     18  C   UNL     1     149.040 165.315 190.795  0.00  0.00    +0.224 C 
ATOM     19  O   UNL     1     148.071 164.644 190.475  0.00  0.00    -0.275 OA
ATOM     20  N   UNL     1     150.311 164.943 190.465  0.00  0.00    -0.311 N 
ATOM     21  C   UNL     1     151.336 165.833 190.910  0.00  0.00    +0.032 C 
ATOM     22  H   UNL     1     143.865 168.126 192.612  0.00  0.00    +0.038 HD
ATOM     23  H   UNL     1     144.363 165.143 193.161  0.00  0.00    +0.031 HD
ATOM     24  H   UNL     1     144.037 166.285 194.454  0.00  0.00    +0.031 HD
ATOM     25  H   UNL     1     146.091 167.570 193.999  0.00  0.00    +0.057 HD
ATOM     26  H   UNL     1     146.673 164.975 192.466  0.00  0.00    +0.057 HD
ATOM     27  H   UNL     1     148.380 167.295 193.568  0.00  0.00    +0.038 HD
ATOM     28  H   UNL     1     148.999 164.305 193.506  0.00  0.00    +0.065 HD
ATOM     29  H   UNL     1     151.103 163.833 194.981  0.00  0.00    +0.054 HD
ATOM     30  H   UNL     1     152.559 164.889 194.575  0.00  0.00    +0.054 HD
ATOM     31  H   UNL     1     150.554 167.716 193.764  0.00  0.00    +0.035 HD
ATOM     32  H   UNL     1     150.843 167.886 191.379  0.00  0.00    +0.034 HD
ATOM     33  H   UNL     1     149.031 168.063 189.974  0.00  0.00    +0.079 HD
ATOM     34  H   UNL     1     147.021 166.734 189.452  0.00  0.00    +0.061 HD
ATOM     35  H   UNL     1     145.862 168.846 191.334  0.00  0.00    +0.060 HD
ATOM     36  H   UNL     1     150.468 164.082 189.954  0.00  0.00    +0.149 HD
ATOM     37  H   UNL     1     152.000 165.216 191.524  0.00  0.00    +0.050 HD
ENDROOT
BRANCH   1  38
ATOM     38  C   UNL     1     142.113 166.913 192.756  0.00  0.00    -0.055 C 
ATOM     39  H   UNL     1     141.726 165.967 192.361  0.00  0.00    +0.024 HD
ATOM     40  H   UNL     1     141.542 167.724 192.292  0.00  0.00    +0.024 HD
ATOM     41  H   UNL     1     141.916 166.935 193.833  0.00  0.00    +0.024 HD
ENDBRANCH   1  38
BRANCH  15  42
ATOM     42  C   UNL     1     143.587 168.895 189.861  0.00  0.00    -0.025 C 
ATOM     43  H   UNL     1     143.991 169.620 189.146  0.00  0.00    +0.026 HD
ATOM     44  H   UNL     1     142.595 168.586 189.511  0.00  0.00    +0.026 HD
ATOM     45  H   UNL     1     143.435 169.415 190.814  0.00  0.00    +0.026 HD
ENDBRANCH  15  42
BRANCH   9  46
ATOM     46  C   UNL     1     152.566 167.263 193.360  0.00  0.00    -0.058 C 
ATOM     47  H   UNL     1     153.089 166.540 193.995  0.00  0.00    +0.024 HD
ATOM     48  H   UNL     1     153.047 167.239 192.375  0.00  0.00    +0.024 HD
ATOM     49  H   UNL     1     152.728 168.258 193.788  0.00  0.00    +0.024 HD
ENDBRANCH   9  46
BRANCH  21  50
ATOM     50  C   UNL     1     152.201 166.386 189.757  0.00  0.00    -0.009 C 
ATOM     51  H   UNL     1     151.619 166.342 188.827  0.00  0.00    +0.033 HD
ATOM     52  H   UNL     1     152.381 167.455 189.935  0.00  0.00    +0.033 HD
BRANCH  50  53
ATOM     53  C   UNL     1     153.546 165.737 189.538  0.00  0.00    -0.046 A 
ATOM     54  C   UNL     1     153.653 164.346 189.423  0.00  0.00    -0.059 A 
ATOM     55  C   UNL     1     154.897 163.740 189.236  0.00  0.00    -0.062 A 
ATOM     56  C   UNL     1     156.049 164.518 189.152  0.00  0.00    -0.062 A 
ATOM     57  C   UNL     1     155.955 165.904 189.247  0.00  0.00    -0.062 A 
ATOM     58  C   UNL     1     154.712 166.510 189.433  0.00  0.00    -0.059 A 
ATOM     59  H   UNL     1     152.772 163.712 189.502  0.00  0.00    +0.062 HD
ATOM     60  H   UNL     1     154.965 162.658 189.173  0.00  0.00    +0.062 HD
ATOM     61  H   UNL     1     157.017 164.045 189.015  0.00  0.00    +0.062 HD
ATOM     62  H   UNL     1     156.852 166.513 189.180  0.00  0.00    +0.062 HD
ATOM     63  H   UNL     1     154.666 167.594 189.498  0.00  0.00    +0.062 HD
ENDBRANCH  50  53
ENDBRANCH  21  50
BRANCH  15  64
ATOM     64  O   UNL     1     144.638 167.080 188.761  0.00  0.00    -0.377 OA
ATOM     65  H   UNL     1     143.785 166.630 188.588  0.00  0.00    +0.211 HD
ENDBRANCH  15  64
BRANCH   6  66
ATOM     66  O   UNL     1     148.705 165.385 195.228  0.00  0.00    -0.387 OA
ATOM     67  H   UNL     1     149.272 166.030 195.686  0.00  0.00    +0.210 HD
ENDBRANCH   6  66
BRANCH  12  68
ATOM     68  O   UNL     1     148.249 168.911 191.731  0.00  0.00    -0.456 OA
BRANCH  68  69
ATOM     69  C   UNL     1     148.685 170.136 191.349  0.00  0.00    +0.305 C 
ATOM     70  O   UNL     1     148.105 170.910 190.604  0.00  0.00    -0.251 OA
BRANCH  69  71
ATOM     71  C   UNL     1     150.036 170.397 191.943  0.00  0.00    +0.033 C 
ATOM     72  H   UNL     1     150.229 169.682 192.745  0.00  0.00    +0.034 HD
ATOM     73  H   UNL     1     150.801 170.284 191.168  0.00  0.00    +0.034 HD
ATOM     74  H   UNL     1     150.085 171.422 192.321  0.00  0.00    +0.034 HD
ENDBRANCH  69  71
ENDBRANCH  68  69
ENDBRANCH  12  68
TORSDOF 10
ENDMDL
MODEL 2
REMARK VINA RESULT:      -7.1      2.966      7.820
REMARK  Name = Cytochalasin D_conf1
REMARK  10 active torsions:
REMARK  status: ('A' for Active; 'I' for Inactive)
REMARK    1  A    between atoms: C_1  and  C_2
REMARK    2  A    between atoms: C_7  and  O_37
REMARK    3  A    between atoms: C_10  and  C_36
REMARK    4  A    between atoms: C_13  and  O_21
REMARK    5  A    between atoms: C_16  and  C_19
REMARK    6  A    between atoms: C_16  and  O_20
REMARK    7  A    between atoms: O_21  and  C_22
REMARK    8  A    between atoms: C_22  and  C_24
REMARK    9  A    between atoms: C_28  and  C_29
REMARK   10  A    between atoms: C_29  and  C_30
REMARK                            x       y       z     vdW  Elec       q    Type
REMARK                         _______ _______ _______ _____ _____    ______ ____
ROOT
ATOM      1  C   UNL     1     154.121 163.809 188.426  0.00  0.00    +0.021 C 
ATOM      2  C   UNL     1     153.517 163.480 189.801  0.00  0.00    -0.025 C 
ATOM      3  C   UNL     1     152.113 164.004 189.956  0.00  0.00    -0.087 C 
ATOM      4  C   UNL     1     151.780 165.038 190.747  0.00  0.00    -0.081 C 
ATOM      5  C   UNL     1     150.359 165.583 190.902  0.00  0.00    +0.025 C 
ATOM      6  C   UNL     1     149.884 165.353 192.365  0.00  0.00    +0.084 C 
ATOM      7  C   UNL     1     148.514 165.931 192.656  0.00  0.00    -0.045 C 
ATOM      8  C   UNL     1     148.030 165.929 193.912  0.00  0.00    -0.097 C 
ATOM      9  C   UNL     1     147.792 166.499 191.449  0.00  0.00    -0.015 C 
ATOM     10  C   UNL     1     148.674 167.586 190.784  0.00  0.00    +0.002 C 
ATOM     11  C   UNL     1     150.142 167.076 190.442  0.00  0.00    +0.101 C 
ATOM     12  C   UNL     1     150.400 167.286 188.908  0.00  0.00    +0.136 C 
ATOM     13  C   UNL     1     151.852 167.248 188.473  0.00  0.00    -0.044 C 
ATOM     14  C   UNL     1     152.437 166.331 187.680  0.00  0.00    -0.046 C 
ATOM     15  C   UNL     1     153.909 166.239 187.371  0.00  0.00    +0.139 C 
ATOM     16  C   UNL     1     154.579 165.268 188.383  0.00  0.00    +0.171 C 
ATOM     17  O   UNL     1     155.465 165.681 189.142  0.00  0.00    -0.294 OA
ATOM     18  C   UNL     1     151.014 168.006 191.281  0.00  0.00    +0.224 C 
ATOM     19  O   UNL     1     152.226 167.964 191.418  0.00  0.00    -0.275 OA
ATOM     20  N   UNL     1     150.248 168.925 191.936  0.00  0.00    -0.311 N 
ATOM     21  C   UNL     1     148.847 168.845 191.670  0.00  0.00    +0.032 C 
ATOM     22  H   UNL     1     153.378 163.630 187.641  0.00  0.00    +0.038 HD
ATOM     23  H   UNL     1     154.158 163.863 190.605  0.00  0.00    +0.031 HD
ATOM     24  H   UNL     1     153.472 162.392 189.937  0.00  0.00    +0.031 HD
ATOM     25  H   UNL     1     151.341 163.498 189.378  0.00  0.00    +0.057 HD
ATOM     26  H   UNL     1     152.563 165.534 191.321  0.00  0.00    +0.057 HD
ATOM     27  H   UNL     1     149.724 164.945 190.270  0.00  0.00    +0.038 HD
ATOM     28  H   UNL     1     150.610 165.771 193.074  0.00  0.00    +0.065 HD
ATOM     29  H   UNL     1     148.606 165.493 194.725  0.00  0.00    +0.054 HD
ATOM     30  H   UNL     1     147.056 166.326 194.173  0.00  0.00    +0.054 HD
ATOM     31  H   UNL     1     147.676 165.676 190.730  0.00  0.00    +0.035 HD
ATOM     32  H   UNL     1     148.152 167.873 189.867  0.00  0.00    +0.034 HD
ATOM     33  H   UNL     1     150.030 168.268 188.599  0.00  0.00    +0.079 HD
ATOM     34  H   UNL     1     152.470 168.049 188.879  0.00  0.00    +0.061 HD
ATOM     35  H   UNL     1     151.827 165.527 187.274  0.00  0.00    +0.060 HD
ATOM     36  H   UNL     1     150.684 169.587 192.567  0.00  0.00    +0.149 HD
ATOM     37  H   UNL     1     148.379 168.704 192.650  0.00  0.00    +0.050 HD
ENDROOT
BRANCH   1  38
ATOM     38  C   UNL     1     155.331 162.920 188.137  0.00  0.00    -0.055 C 
ATOM     39  H   UNL     1     155.790 162.553 189.061  0.00  0.00    +0.024 HD
ATOM     40  H   UNL     1     156.097 163.472 187.583  0.00  0.00    +0.024 HD
ATOM     41  H   UNL     1     155.040 162.052 187.536  0.00  0.00    +0.024 HD
ENDBRANCH   1  38
BRANCH  15  42
ATOM     42  C   UNL     1     154.168 165.796 185.934  0.00  0.00    -0.025 C 
ATOM     43  H   UNL     1     155.234 165.774 185.685  0.00  0.00    +0.026 HD
ATOM     44  H   UNL     1     153.753 164.798 185.749  0.00  0.00    +0.026 HD
ATOM     45  H   UNL     1     153.675 166.475 185.227  0.00  0.00    +0.026 HD
ENDBRANCH  15  42
BRANCH   9  46
ATOM     46  C   UNL     1     146.362 167.004 191.689  0.00  0.00    -0.058 C 
ATOM     47  H   UNL     1     145.762 166.899 190.779  0.00  0.00    +0.024 HD
ATOM     48  H   UNL     1     145.869 166.416 192.473  0.00  0.00    +0.024 HD
ATOM     49  H   UNL     1     146.328 168.056 191.989  0.00  0.00    +0.024 HD
ENDBRANCH   9  46
BRANCH  21  50
ATOM     50  C   UNL     1     148.263 170.154 191.095  0.00  0.00    -0.009 C 
ATOM     51  H   UNL     1     148.813 170.413 190.181  0.00  0.00    +0.033 HD
ATOM     52  H   UNL     1     147.232 169.964 190.769  0.00  0.00    +0.033 HD
BRANCH  50  53
ATOM     53  C   UNL     1     148.227 171.350 192.016  0.00  0.00    -0.046 A 
ATOM     54  C   UNL     1     149.368 171.728 192.734  0.00  0.00    -0.059 A 
ATOM     55  C   UNL     1     149.335 172.823 193.599  0.00  0.00    -0.062 A 
ATOM     56  C   UNL     1     148.164 173.562 193.749  0.00  0.00    -0.062 A 
ATOM     57  C   UNL     1     147.027 173.208 193.027  0.00  0.00    -0.062 A 
ATOM     58  C   UNL     1     147.060 172.113 192.163  0.00  0.00    -0.059 A 
ATOM     59  H   UNL     1     150.292 171.159 192.650  0.00  0.00    +0.062 HD
ATOM     60  H   UNL     1     150.223 173.088 194.166  0.00  0.00    +0.062 HD
ATOM     61  H   UNL     1     148.138 174.408 194.428  0.00  0.00    +0.062 HD
ATOM     62  H   UNL     1     146.112 173.783 193.142  0.00  0.00    +0.062 HD
ATOM     63  H   UNL     1     146.160 171.862 191.607  0.00  0.00    +0.062 HD
ENDBRANCH  50  53
ENDBRANCH  21  50
BRANCH  15  64
ATOM     64  O   UNL     1     154.503 167.534 187.507  0.00  0.00    -0.377 OA
ATOM     65  H   UNL     1     153.755 168.166 187.522  0.00  0.00    +0.211 HD
ENDBRANCH  15  64
BRANCH   6  66
ATOM     66  O   UNL     1     149.784 163.947 192.617  0.00  0.00    -0.387 OA
ATOM     67  H   UNL     1     149.246 163.846 193.422  0.00  0.00    +0.210 HD
ENDBRANCH   6  66
BRANCH  12  68
ATOM     68  O   UNL     1     149.700 166.234 188.187  0.00  0.00    -0.456 OA
BRANCH  68  69
ATOM     69  C   UNL     1     148.800 166.570 187.232  0.00  0.00    +0.305 C 
ATOM     70  O   UNL     1     149.026 167.209 186.216  0.00  0.00    -0.251 OA
BRANCH  69  71
ATOM     71  C   UNL     1     147.440 166.077 187.625  0.00  0.00    +0.033 C 
ATOM     72  H   UNL     1     146.677 166.621 187.063  0.00  0.00    +0.034 HD
ATOM     73  H   UNL     1     147.361 165.010 187.398  0.00  0.00    +0.034 HD
ATOM     74  H   UNL     1     147.293 166.207 188.701  0.00  0.00    +0.034 HD
ENDBRANCH  69  71
ENDBRANCH  68  69
ENDBRANCH  12  68
TORSDOF 10
ENDMDL
MODEL 3
REMARK VINA RESULT:      -6.9      2.251      4.275
REMARK  Name = Cytochalasin D_conf1
REMARK  10 active torsions:
REMARK  status: ('A' for Active; 'I' for Inactive)
REMARK    1  A    between atoms: C_1  and  C_2
REMARK    2  A    between atoms: C_7  and  O_37
REMARK    3  A    between atoms: C_10  and  C_36
REMARK    4  A    between atoms: C_13  and  O_21
REMARK    5  A    between atoms: C_16  and  C_19
REMARK    6  A    between atoms: C_16  and  O_20
REMARK    7  A    between atoms: O_21  and  C_22
REMARK    8  A    between atoms: C_22  and  C_24
REMARK    9  A    between atoms: C_28  and  C_29
REMARK   10  A    between atoms: C_29  and  C_30
REMARK                            x       y       z     vdW  Elec       q    Type
REMARK                         _______ _______ _______ _____ _____    ______ ____
ROOT
ATOM      1  C   UNL     1     143.739 169.593 189.975  0.00  0.00    +0.021 C 
ATOM      2  C   UNL     1     144.882 170.522 190.419  0.00  0.00    -0.025 C 
ATOM      3  C   UNL     1     146.239 169.893 190.241  0.00  0.00    -0.087 C 
ATOM      4  C   UNL     1     147.013 169.476 191.258  0.00  0.00    -0.081 C 
ATOM      5  C   UNL     1     148.387 168.828 191.087  0.00  0.00    +0.025 C 
ATOM      6  C   UNL     1     149.469 169.760 191.705  0.00  0.00    +0.084 C 
ATOM      7  C   UNL     1     150.867 169.176 191.665  0.00  0.00    -0.045 C 
ATOM      8  C   UNL     1     151.882 169.806 192.284  0.00  0.00    -0.097 C 
ATOM      9  C   UNL     1     150.989 167.867 190.910  0.00  0.00    -0.015 C 
ATOM     10  C   UNL     1     150.019 166.824 191.522  0.00  0.00    +0.002 C 
ATOM     11  C   UNL     1     148.518 167.347 191.612  0.00  0.00    +0.101 C 
ATOM     12  C   UNL     1     147.591 166.341 190.841  0.00  0.00    +0.136 C 
ATOM     13  C   UNL     1     146.112 166.438 191.154  0.00  0.00    -0.044 C 
ATOM     14  C   UNL     1     145.128 166.817 190.317  0.00  0.00    -0.046 C 
ATOM     15  C   UNL     1     143.684 167.034 190.688  0.00  0.00    +0.139 C 
ATOM     16  C   UNL     1     143.472 168.532 191.044  0.00  0.00    +0.171 C 
ATOM     17  O   UNL     1     143.098 168.851 192.180  0.00  0.00    -0.294 OA
ATOM     18  C   UNL     1     148.248 167.306 193.113  0.00  0.00    +0.224 C 
ATOM     19  O   UNL     1     147.247 167.687 193.698  0.00  0.00    -0.275 OA
ATOM     20  N   UNL     1     149.326 166.804 193.784  0.00  0.00    -0.311 N 
ATOM     21  C   UNL     1     150.418 166.400 192.957  0.00  0.00    +0.032 C 
ATOM     22  H   UNL     1     144.000 169.110 189.028  0.00  0.00    +0.038 HD
ATOM     23  H   UNL     1     144.740 170.836 191.461  0.00  0.00    +0.031 HD
ATOM     24  H   UNL     1     144.870 171.440 189.817  0.00  0.00    +0.031 HD
ATOM     25  H   UNL     1     146.589 169.779 189.217  0.00  0.00    +0.057 HD
ATOM     26  H   UNL     1     146.650 169.600 192.279  0.00  0.00    +0.057 HD
ATOM     27  H   UNL     1     148.578 168.815 190.004  0.00  0.00    +0.038 HD
ATOM     28  H   UNL     1     149.211 170.010 192.742  0.00  0.00    +0.065 HD
ATOM     29  H   UNL     1     151.715 170.750 192.798  0.00  0.00    +0.054 HD
ATOM     30  H   UNL     1     152.900 169.433 192.283  0.00  0.00    +0.054 HD
ATOM     31  H   UNL     1     150.665 168.061 189.878  0.00  0.00    +0.035 HD
ATOM     32  H   UNL     1     150.074 165.948 190.870  0.00  0.00    +0.034 HD
ATOM     33  H   UNL     1     147.873 165.313 191.085  0.00  0.00    +0.079 HD
ATOM     34  H   UNL     1     145.846 166.188 192.181  0.00  0.00    +0.061 HD
ATOM     35  H   UNL     1     145.385 167.072 189.291  0.00  0.00    +0.060 HD
ATOM     36  H   UNL     1     149.311 166.754 194.795  0.00  0.00    +0.149 HD
ATOM     37  H   UNL     1     151.275 166.980 193.315  0.00  0.00    +0.050 HD
ENDROOT
BRANCH   1  38
ATOM     38  C   UNL     1     142.450 170.385 189.756  0.00  0.00    -0.055 C 
ATOM     39  H   UNL     1     142.610 171.237 189.086  0.00  0.00    +0.024 HD
ATOM     40  H   UNL     1     142.067 170.777 190.704  0.00  0.00    +0.024 HD
ATOM     41  H   UNL     1     141.673 169.750 189.315  0.00  0.00    +0.024 HD
ENDBRANCH   1  38
BRANCH  15  42
ATOM     42  C   UNL     1     142.733 166.594 189.579  0.00  0.00    -0.025 C 
ATOM     43  H   UNL     1     142.815 165.526 189.353  0.00  0.00    +0.026 HD
ATOM     44  H   UNL     1     141.691 166.808 189.847  0.00  0.00    +0.026 HD
ATOM     45  H   UNL     1     142.937 167.147 188.654  0.00  0.00    +0.026 HD
ENDBRANCH  15  42
BRANCH   9  46
ATOM     46  C   UNL     1     152.409 167.296 190.766  0.00  0.00    -0.058 C 
ATOM     47  H   UNL     1     153.082 168.050 190.345  0.00  0.00    +0.024 HD
ATOM     48  H   UNL     1     152.813 167.010 191.745  0.00  0.00    +0.024 HD
ATOM     49  H   UNL     1     152.448 166.416 190.117  0.00  0.00    +0.024 HD
ENDBRANCH   9  46
BRANCH  21  50
ATOM     50  C   UNL     1     150.797 164.913 193.136  0.00  0.00    -0.009 C 
ATOM     51  H   UNL     1     151.869 164.848 193.357  0.00  0.00    +0.033 HD
ATOM     52  H   UNL     1     150.292 164.529 194.033  0.00  0.00    +0.033 HD
BRANCH  50  53
ATOM     53  C   UNL     1     150.460 163.980 191.998  0.00  0.00    -0.046 A 
ATOM     54  C   UNL     1     151.432 163.634 191.052  0.00  0.00    -0.059 A 
ATOM     55  C   UNL     1     151.121 162.783 189.989  0.00  0.00    -0.062 A 
ATOM     56  C   UNL     1     149.837 162.260 189.865  0.00  0.00    -0.062 A 
ATOM     57  C   UNL     1     148.865 162.581 190.809  0.00  0.00    -0.062 A 
ATOM     58  C   UNL     1     149.176 163.430 191.871  0.00  0.00    -0.059 A 
ATOM     59  H   UNL     1     152.439 164.043 191.114  0.00  0.00    +0.062 HD
ATOM     60  H   UNL     1     151.881 162.545 189.251  0.00  0.00    +0.062 HD
ATOM     61  H   UNL     1     149.595 161.605 189.033  0.00  0.00    +0.062 HD
ATOM     62  H   UNL     1     147.863 162.172 190.714  0.00  0.00    +0.062 HD
ATOM     63  H   UNL     1     148.400 163.660 192.598  0.00  0.00    +0.062 HD
ENDBRANCH  50  53
ENDBRANCH  21  50
BRANCH  15  64
ATOM     64  O   UNL     1     143.365 166.236 191.832  0.00  0.00    -0.377 OA
ATOM     65  H   UNL     1     143.856 165.397 191.714  0.00  0.00    +0.211 HD
ENDBRANCH  15  64
BRANCH   6  66
ATOM     66  O   UNL     1     149.527 170.981 190.961  0.00  0.00    -0.387 OA
ATOM     67  H   UNL     1     149.874 170.754 190.081  0.00  0.00    +0.210 HD
ENDBRANCH   6  66
BRANCH  12  68
ATOM     68  O   UNL     1     147.754 166.584 189.416  0.00  0.00    -0.456 OA
BRANCH  68  69
ATOM     69  C   UNL     1     148.081 165.554 188.599  0.00  0.00    +0.305 C 
ATOM     70  O   UNL     1     147.354 164.626 188.277  0.00  0.00    -0.251 OA
BRANCH  69  71
ATOM     71  C   UNL     1     149.511 165.684 188.173  0.00  0.00    +0.033 C 
ATOM     72  H   UNL     1     150.001 166.462 188.763  0.00  0.00    +0.034 HD
ATOM     73  H   UNL     1     150.026 164.732 188.335  0.00  0.00    +0.034 HD
ATOM     74  H   UNL     1     149.563 165.920 187.106  0.00  0.00    +0.034 HD
ENDBRANCH  69  71
ENDBRANCH  68  69
ENDBRANCH  12  68
TORSDOF 10
ENDMDL
MODEL 4
REMARK VINA RESULT:      -6.7      2.675      7.428
REMARK  Name = Cytochalasin D_conf1
REMARK  10 active torsions:
REMARK  status: ('A' for Active; 'I' for Inactive)
REMARK    1  A    between atoms: C_1  and  C_2
REMARK    2  A    between atoms: C_7  and  O_37
REMARK    3  A    between atoms: C_10  and  C_36
REMARK    4  A    between atoms: C_13  and  O_21
REMARK    5  A    between atoms: C_16  and  C_19
REMARK    6  A    between atoms: C_16  and  O_20
REMARK    7  A    between atoms: O_21  and  C_22
REMARK    8  A    between atoms: C_22  and  C_24
REMARK    9  A    between atoms: C_28  and  C_29
REMARK   10  A    between atoms: C_29  and  C_30
REMARK                            x       y       z     vdW  Elec       q    Type
REMARK                         _______ _______ _______ _____ _____    ______ ____
ROOT
ATOM      1  C   UNL     1     150.848 166.444 193.913  0.00  0.00    +0.021 C 
ATOM      2  C   UNL     1     151.333 166.330 192.457  0.00  0.00    -0.025 C 
ATOM      3  C   UNL     1     150.483 167.127 191.501  0.00  0.00    -0.087 C 
ATOM      4  C   UNL     1     149.639 166.578 190.611  0.00  0.00    -0.081 C 
ATOM      5  C   UNL     1     148.766 167.379 189.644  0.00  0.00    +0.025 C 
ATOM      6  C   UNL     1     149.219 167.082 188.185  0.00  0.00    +0.084 C 
ATOM      7  C   UNL     1     148.365 167.762 187.135  0.00  0.00    -0.045 C 
ATOM      8  C   UNL     1     148.553 167.490 185.830  0.00  0.00    -0.097 C 
ATOM      9  C   UNL     1     147.320 168.715 187.681  0.00  0.00    -0.015 C 
ATOM     10  C   UNL     1     146.401 167.960 188.675  0.00  0.00    +0.002 C 
ATOM     11  C   UNL     1     147.208 167.205 189.821  0.00  0.00    +0.101 C 
ATOM     12  C   UNL     1     146.692 167.713 191.214  0.00  0.00    +0.136 C 
ATOM     13  C   UNL     1     147.035 166.836 192.402  0.00  0.00    -0.044 C 
ATOM     14  C   UNL     1     147.843 167.147 193.433  0.00  0.00    -0.046 C 
ATOM     15  C   UNL     1     148.275 166.211 194.532  0.00  0.00    +0.139 C 
ATOM     16  C   UNL     1     149.625 165.553 194.136  0.00  0.00    +0.171 C 
ATOM     17  O   UNL     1     149.698 164.325 194.000  0.00  0.00    -0.294 OA
ATOM     18  C   UNL     1     146.821 165.748 189.586  0.00  0.00    +0.224 C 
ATOM     19  O   UNL     1     147.247 164.764 190.169  0.00  0.00    -0.275 OA
ATOM     20  N   UNL     1     145.922 165.646 188.565  0.00  0.00    -0.311 N 
ATOM     21  C   UNL     1     145.521 166.888 187.985  0.00  0.00    +0.032 C 
ATOM     22  H   UNL     1     150.595 167.486 194.139  0.00  0.00    +0.038 HD
ATOM     23  H   UNL     1     151.374 165.278 192.147  0.00  0.00    +0.031 HD
ATOM     24  H   UNL     1     152.357 166.715 192.376  0.00  0.00    +0.031 HD
ATOM     25  H   UNL     1     150.576 168.210 191.558  0.00  0.00    +0.057 HD
ATOM     26  H   UNL     1     149.558 165.491 190.564  0.00  0.00    +0.057 HD
ATOM     27  H   UNL     1     149.006 168.436 189.830  0.00  0.00    +0.038 HD
ATOM     28  H   UNL     1     149.228 166.000 188.000  0.00  0.00    +0.065 HD
ATOM     29  H   UNL     1     149.332 166.800 185.516  0.00  0.00    +0.054 HD
ATOM     30  H   UNL     1     147.972 167.951 185.039  0.00  0.00    +0.054 HD
ATOM     31  H   UNL     1     147.858 169.490 188.245  0.00  0.00    +0.035 HD
ATOM     32  H   UNL     1     145.748 168.720 189.113  0.00  0.00    +0.034 HD
ATOM     33  H   UNL     1     145.600 167.776 191.205  0.00  0.00    +0.079 HD
ATOM     34  H   UNL     1     146.581 165.846 192.384  0.00  0.00    +0.061 HD
ATOM     35  H   UNL     1     148.302 168.133 193.457  0.00  0.00    +0.060 HD
ATOM     36  H   UNL     1     145.603 164.733 188.264  0.00  0.00    +0.149 HD
ATOM     37  H   UNL     1     145.769 166.799 186.923  0.00  0.00    +0.050 HD
ENDROOT
BRANCH   1  38
ATOM     38  C   UNL     1     151.943 166.007 194.886  0.00  0.00    -0.055 C 
ATOM     39  H   UNL     1     151.620 166.109 195.928  0.00  0.00    +0.024 HD
ATOM     40  H   UNL     1     152.844 166.615 194.757  0.00  0.00    +0.024 HD
ATOM     41  H   UNL     1     152.216 164.960 194.718  0.00  0.00    +0.024 HD
ENDBRANCH   1  38
BRANCH  15  42
ATOM     42  C   UNL     1     148.384 166.920 195.879  0.00  0.00    -0.025 C 
ATOM     43  H   UNL     1     147.419 167.288 196.242  0.00  0.00    +0.026 HD
ATOM     44  H   UNL     1     148.803 166.252 196.642  0.00  0.00    +0.026 HD
ATOM     45  H   UNL     1     149.063 167.779 195.809  0.00  0.00    +0.026 HD
ENDBRANCH  15  42
BRANCH   9  46
ATOM     46  C   UNL     1     146.502 169.495 186.641  0.00  0.00    -0.058 C 
ATOM     47  H   UNL     1     145.456 169.170 186.655  0.00  0.00    +0.024 HD
ATOM     48  H   UNL     1     146.512 170.568 186.865  0.00  0.00    +0.024 HD
ATOM     49  H   UNL     1     146.876 169.363 185.621  0.00  0.00    +0.024 HD
ENDBRANCH   9  46
BRANCH  21  50
ATOM     50  C   UNL     1     143.997 167.126 188.056  0.00  0.00    -0.009 C 
ATOM     51  H   UNL     1     143.751 168.013 187.458  0.00  0.00    +0.033 HD
ATOM     52  H   UNL     1     143.488 166.290 187.556  0.00  0.00    +0.033 HD
BRANCH  50  53
ATOM     53  C   UNL     1     143.388 167.262 189.430  0.00  0.00    -0.046 A 
ATOM     54  C   UNL     1     142.917 168.502 189.878  0.00  0.00    -0.059 A 
ATOM     55  C   UNL     1     142.367 168.637 191.154  0.00  0.00    -0.062 A 
ATOM     56  C   UNL     1     142.272 167.532 191.995  0.00  0.00    -0.062 A 
ATOM     57  C   UNL     1     142.720 166.289 191.557  0.00  0.00    -0.062 A 
ATOM     58  C   UNL     1     143.269 166.154 190.281  0.00  0.00    -0.059 A 
ATOM     59  H   UNL     1     142.994 169.388 189.249  0.00  0.00    +0.062 HD
ATOM     60  H   UNL     1     142.028 169.612 191.495  0.00  0.00    +0.062 HD
ATOM     61  H   UNL     1     141.852 167.640 192.991  0.00  0.00    +0.062 HD
ATOM     62  H   UNL     1     142.647 165.424 192.211  0.00  0.00    +0.062 HD
ATOM     63  H   UNL     1     143.606 165.171 189.960  0.00  0.00    +0.062 HD
ENDBRANCH  50  53
ENDBRANCH  21  50
BRANCH  15  64
ATOM     64  O   UNL     1     147.289 165.187 194.695  0.00  0.00    -0.377 OA
ATOM     65  H   UNL     1     147.375 164.882 195.622  0.00  0.00    +0.211 HD
ENDBRANCH  15  64
BRANCH   6  66
ATOM     66  O   UNL     1     150.551 167.572 187.993  0.00  0.00    -0.387 OA
ATOM     67  H   UNL     1     150.642 167.765 187.044  0.00  0.00    +0.210 HD
ENDBRANCH   6  66
BRANCH  12  68
ATOM     68  O   UNL     1     147.271 169.025 191.456  0.00  0.00    -0.456 OA
BRANCH  68  69
ATOM     69  C   UNL     1     146.592 170.132 191.071  0.00  0.00    +0.305 C 
ATOM     70  O   UNL     1     145.386 170.306 191.149  0.00  0.00    -0.251 OA
BRANCH  69  71
ATOM     71  C   UNL     1     147.543 171.125 190.475  0.00  0.00    +0.033 C 
ATOM     72  H   UNL     1     146.981 171.919 189.978  0.00  0.00    +0.034 HD
ATOM     73  H   UNL     1     148.157 171.562 191.268  0.00  0.00    +0.034 HD
ATOM     74  H   UNL     1     148.210 170.624 189.767  0.00  0.00    +0.034 HD
ENDBRANCH  69  71
ENDBRANCH  68  69
ENDBRANCH  12  68
TORSDOF 10
ENDMDL
MODEL 5
REMARK VINA RESULT:      -6.5      2.905      7.917
REMARK  Name = Cytochalasin D_conf1
REMARK  10 active torsions:
REMARK  status: ('A' for Active; 'I' for Inactive)
REMARK    1  A    between atoms: C_1  and  C_2
REMARK    2  A    between atoms: C_7  and  O_37
REMARK    3  A    between atoms: C_10  and  C_36
REMARK    4  A    between atoms: C_13  and  O_21
REMARK    5  A    between atoms: C_16  and  C_19
REMARK    6  A    between atoms: C_16  and  O_20
REMARK    7  A    between atoms: O_21  and  C_22
REMARK    8  A    between atoms: C_22  and  C_24
REMARK    9  A    between atoms: C_28  and  C_29
REMARK   10  A    between atoms: C_29  and  C_30
REMARK                            x       y       z     vdW  Elec       q    Type
REMARK                         _______ _______ _______ _____ _____    ______ ____
ROOT
ATOM      1  C   UNL     1     155.273 166.462 186.805  0.00  0.00    +0.021 C 
ATOM      2  C   UNL     1     153.976 166.836 186.067  0.00  0.00    -0.025 C 
ATOM      3  C   UNL     1     152.878 167.260 187.007  0.00  0.00    -0.087 C 
ATOM      4  C   UNL     1     151.785 166.522 187.267  0.00  0.00    -0.081 C 
ATOM      5  C   UNL     1     150.671 166.941 188.227  0.00  0.00    +0.025 C 
ATOM      6  C   UNL     1     149.355 167.144 187.421  0.00  0.00    +0.084 C 
ATOM      7  C   UNL     1     148.159 167.482 188.288  0.00  0.00    -0.045 C 
ATOM      8  C   UNL     1     146.929 167.551 187.746  0.00  0.00    -0.097 C 
ATOM      9  C   UNL     1     148.476 167.703 189.754  0.00  0.00    -0.015 C 
ATOM     10  C   UNL     1     149.181 166.446 190.326  0.00  0.00    +0.002 C 
ATOM     11  C   UNL     1     150.454 166.006 189.478  0.00  0.00    +0.101 C 
ATOM     12  C   UNL     1     151.700 165.965 190.433  0.00  0.00    +0.136 C 
ATOM     13  C   UNL     1     152.896 165.187 189.920  0.00  0.00    -0.044 C 
ATOM     14  C   UNL     1     154.106 165.680 189.595  0.00  0.00    -0.046 C 
ATOM     15  C   UNL     1     155.235 164.909 188.961  0.00  0.00    +0.139 C 
ATOM     16  C   UNL     1     155.151 165.065 187.417  0.00  0.00    +0.171 C 
ATOM     17  O   UNL     1     154.983 164.069 186.703  0.00  0.00    -0.294 OA
ATOM     18  C   UNL     1     150.068 164.605 189.014  0.00  0.00    +0.224 C 
ATOM     19  O   UNL     1     150.693 163.872 188.264  0.00  0.00    -0.275 OA
ATOM     20  N   UNL     1     148.854 164.245 189.524  0.00  0.00    -0.311 N 
ATOM     21  C   UNL     1     148.250 165.209 190.387  0.00  0.00    +0.032 C 
ATOM     22  H   UNL     1     155.476 167.196 187.592  0.00  0.00    +0.038 HD
ATOM     23  H   UNL     1     153.638 166.003 185.436  0.00  0.00    +0.031 HD
ATOM     24  H   UNL     1     154.164 167.678 185.389  0.00  0.00    +0.031 HD
ATOM     25  H   UNL     1     153.003 168.226 187.493  0.00  0.00    +0.057 HD
ATOM     26  H   UNL     1     151.671 165.558 186.771  0.00  0.00    +0.057 HD
ATOM     27  H   UNL     1     150.956 167.935 188.601  0.00  0.00    +0.038 HD
ATOM     28  H   UNL     1     149.130 166.250 186.826  0.00  0.00    +0.065 HD
ATOM     29  H   UNL     1     146.784 167.388 186.681  0.00  0.00    +0.054 HD
ATOM     30  H   UNL     1     146.041 167.791 188.320  0.00  0.00    +0.054 HD
ATOM     31  H   UNL     1     149.188 168.538 189.805  0.00  0.00    +0.035 HD
ATOM     32  H   UNL     1     149.479 166.710 191.344  0.00  0.00    +0.034 HD
ATOM     33  H   UNL     1     151.428 165.489 191.380  0.00  0.00    +0.079 HD
ATOM     34  H   UNL     1     152.723 164.118 189.791  0.00  0.00    +0.061 HD
ATOM     35  H   UNL     1     154.284 166.746 189.718  0.00  0.00    +0.060 HD
ATOM     36  H   UNL     1     148.445 163.354 189.269  0.00  0.00    +0.149 HD
ATOM     37  H   UNL     1     147.277 165.426 189.933  0.00  0.00    +0.050 HD
ENDROOT
BRANCH   1  38
ATOM     38  C   UNL     1     156.463 166.461 185.846  0.00  0.00    -0.055 C 
ATOM     39  H   UNL     1     157.371 166.085 186.331  0.00  0.00    +0.024 HD
ATOM     40  H   UNL     1     156.675 167.474 185.488  0.00  0.00    +0.024 HD
ATOM     41  H   UNL     1     156.259 165.831 184.974  0.00  0.00    +0.024 HD
ENDBRANCH   1  38
BRANCH  15  42
ATOM     42  C   UNL     1     156.598 165.353 189.484  0.00  0.00    -0.025 C 
ATOM     43  H   UNL     1     156.532 166.223 190.146  0.00  0.00    +0.026 HD
ATOM     44  H   UNL     1     157.090 164.542 190.035  0.00  0.00    +0.026 HD
ATOM     45  H   UNL     1     157.263 165.615 188.653  0.00  0.00    +0.026 HD
ENDBRANCH  15  42
BRANCH   9  46
ATOM     46  C   UNL     1     147.303 168.142 190.643  0.00  0.00    -0.058 C 
ATOM     47  H   UNL     1     147.542 169.080 191.156  0.00  0.00    +0.024 HD
ATOM     48  H   UNL     1     146.405 168.322 190.040  0.00  0.00    +0.024 HD
ATOM     49  H   UNL     1     147.050 167.402 191.408  0.00  0.00    +0.024 HD
ENDBRANCH   9  46
BRANCH  21  50
ATOM     50  C   UNL     1     147.957 164.660 191.800  0.00  0.00    -0.009 C 
ATOM     51  H   UNL     1     146.940 164.955 192.088  0.00  0.00    +0.033 HD
ATOM     52  H   UNL     1     147.938 163.563 191.752  0.00  0.00    +0.033 HD
BRANCH  50  53
ATOM     53  C   UNL     1     148.921 165.043 192.897  0.00  0.00    -0.046 A 
ATOM     54  C   UNL     1     150.112 164.328 193.077  0.00  0.00    -0.059 A 
ATOM     55  C   UNL     1     150.999 164.668 194.100  0.00  0.00    -0.062 A 
ATOM     56  C   UNL     1     150.712 165.733 194.949  0.00  0.00    -0.062 A 
ATOM     57  C   UNL     1     149.541 166.464 194.771  0.00  0.00    -0.062 A 
ATOM     58  C   UNL     1     148.654 166.125 193.748  0.00  0.00    -0.059 A 
ATOM     59  H   UNL     1     150.353 163.479 192.438  0.00  0.00    +0.062 HD
ATOM     60  H   UNL     1     151.906 164.087 194.240  0.00  0.00    +0.062 HD
ATOM     61  H   UNL     1     151.400 165.990 195.750  0.00  0.00    +0.062 HD
ATOM     62  H   UNL     1     149.316 167.296 195.432  0.00  0.00    +0.062 HD
ATOM     63  H   UNL     1     147.750 166.715 193.626  0.00  0.00    +0.062 HD
ENDBRANCH  50  53
ENDBRANCH  21  50
BRANCH  15  64
ATOM     64  O   UNL     1     155.106 163.523 189.295  0.00  0.00    -0.377 OA
ATOM     65  H   UNL     1     154.143 163.344 189.310  0.00  0.00    +0.211 HD
ENDBRANCH  15  64
BRANCH   6  66
ATOM     66  O   UNL     1     149.515 168.243 186.518  0.00  0.00    -0.387 OA
ATOM     67  H   UNL     1     148.629 168.617 186.375  0.00  0.00    +0.210 HD
ENDBRANCH   6  66
BRANCH  12  68
ATOM     68  O   UNL     1     152.134 167.333 190.663  0.00  0.00    -0.456 OA
BRANCH  68  69
ATOM     69  C   UNL     1     151.925 167.902 191.875  0.00  0.00    +0.305 C 
ATOM     70  O   UNL     1     151.038 168.690 192.162  0.00  0.00    -0.251 OA
BRANCH  69  71
ATOM     71  C   UNL     1     152.991 167.457 192.830  0.00  0.00    +0.033 C 
ATOM     72  H   UNL     1     152.599 166.664 193.472  0.00  0.00    +0.034 HD
ATOM     73  H   UNL     1     153.846 167.073 192.267  0.00  0.00    +0.034 HD
ATOM     74  H   UNL     1     153.332 168.304 193.431  0.00  0.00    +0.034 HD
ENDBRANCH  69  71
ENDBRANCH  68  69
ENDBRANCH  12  68
TORSDOF 10
ENDMDL
MODEL 6
REMARK VINA RESULT:      -6.5      4.275      8.389
REMARK  Name = Cytochalasin D_conf1
REMARK  10 active torsions:
REMARK  status: ('A' for Active; 'I' for Inactive)
REMARK    1  A    between atoms: C_1  and  C_2
REMARK    2  A    between atoms: C_7  and  O_37
REMARK    3  A    between atoms: C_10  and  C_36
REMARK    4  A    between atoms: C_13  and  O_21
REMARK    5  A    between atoms: C_16  and  C_19
REMARK    6  A    between atoms: C_16  and  O_20
REMARK    7  A    between atoms: O_21  and  C_22
REMARK    8  A    between atoms: C_22  and  C_24
REMARK    9  A    between atoms: C_28  and  C_29
REMARK   10  A    between atoms: C_29  and  C_30
REMARK                            x       y       z     vdW  Elec       q    Type
REMARK                         _______ _______ _______ _____ _____    ______ ____
ROOT
ATOM      1  C   UNL     1     151.038 158.101 188.121  0.00  0.00    +0.021 C 
ATOM      2  C   UNL     1     150.043 159.114 187.529  0.00  0.00    -0.025 C 
ATOM      3  C   UNL     1     150.524 160.537 187.655  0.00  0.00    -0.087 C 
ATOM      4  C   UNL     1     149.989 161.439 188.495  0.00  0.00    -0.081 C 
ATOM      5  C   UNL     1     150.477 162.881 188.636  0.00  0.00    +0.025 C 
ATOM      6  C   UNL     1     149.352 163.846 188.166  0.00  0.00    +0.084 C 
ATOM      7  C   UNL     1     149.697 165.312 188.341  0.00  0.00    -0.045 C 
ATOM      8  C   UNL     1     148.770 166.258 188.105  0.00  0.00    -0.097 C 
ATOM      9  C   UNL     1     151.116 165.581 188.803  0.00  0.00    -0.015 C 
ATOM     10  C   UNL     1     151.376 164.834 190.135  0.00  0.00    +0.002 C 
ATOM     11  C   UNL     1     151.038 163.280 190.055  0.00  0.00    +0.101 C 
ATOM     12  C   UNL     1     152.320 162.468 190.456  0.00  0.00    +0.136 C 
ATOM     13  C   UNL     1     152.089 161.018 190.834  0.00  0.00    -0.044 C 
ATOM     14  C   UNL     1     152.522 159.928 190.173  0.00  0.00    -0.046 C 
ATOM     15  C   UNL     1     152.167 158.499 190.493  0.00  0.00    +0.139 C 
ATOM     16  C   UNL     1     150.932 158.083 189.647  0.00  0.00    +0.171 C 
ATOM     17  O   UNL     1     149.881 157.748 190.209  0.00  0.00    -0.294 OA
ATOM     18  C   UNL     1     149.940 163.132 191.104  0.00  0.00    +0.224 C 
ATOM     19  O   UNL     1     149.295 162.129 191.368  0.00  0.00    -0.275 OA
ATOM     20  N   UNL     1     149.709 164.320 191.733  0.00  0.00    -0.311 N 
ATOM     21  C   UNL     1     150.547 165.399 191.315  0.00  0.00    +0.032 C 
ATOM     22  H   UNL     1     152.058 158.364 187.822  0.00  0.00    +0.038 HD
ATOM     23  H   UNL     1     149.056 159.002 187.995  0.00  0.00    +0.031 HD
ATOM     24  H   UNL     1     149.902 158.915 186.459  0.00  0.00    +0.031 HD
ATOM     25  H   UNL     1     151.359 160.824 187.017  0.00  0.00    +0.057 HD
ATOM     26  H   UNL     1     149.152 161.137 189.126  0.00  0.00    +0.057 HD
ATOM     27  H   UNL     1     151.297 162.991 187.912  0.00  0.00    +0.038 HD
ATOM     28  H   UNL     1     148.415 163.630 188.696  0.00  0.00    +0.065 HD
ATOM     29  H   UNL     1     147.774 165.985 187.766  0.00  0.00    +0.054 HD
ATOM     30  H   UNL     1     148.966 167.319 188.212  0.00  0.00    +0.054 HD
ATOM     31  H   UNL     1     151.786 165.155 188.043  0.00  0.00    +0.035 HD
ATOM     32  H   UNL     1     152.438 164.977 190.354  0.00  0.00    +0.034 HD
ATOM     33  H   UNL     1     152.792 162.924 191.331  0.00  0.00    +0.079 HD
ATOM     34  H   UNL     1     151.486 160.871 191.730  0.00  0.00    +0.061 HD
ATOM     35  H   UNL     1     153.121 160.067 189.276  0.00  0.00    +0.060 HD
ATOM     36  H   UNL     1     148.975 164.389 192.428  0.00  0.00    +0.149 HD
ATOM     37  H   UNL     1     149.858 166.178 190.974  0.00  0.00    +0.050 HD
ENDROOT
BRANCH   1  38
ATOM     38  C   UNL     1     150.749 156.691 187.605  0.00  0.00    -0.055 C 
ATOM     39  H   UNL     1     151.626 156.041 187.697  0.00  0.00    +0.024 HD
ATOM     40  H   UNL     1     150.463 156.714 186.548  0.00  0.00    +0.024 HD
ATOM     41  H   UNL     1     149.927 156.233 188.166  0.00  0.00    +0.024 HD
ENDBRANCH   1  38
BRANCH  15  42
ATOM     42  C   UNL     1     153.338 157.550 190.258  0.00  0.00    -0.025 C 
ATOM     43  H   UNL     1     154.145 158.012 189.680  0.00  0.00    +0.026 HD
ATOM     44  H   UNL     1     153.757 157.200 191.210  0.00  0.00    +0.026 HD
ATOM     45  H   UNL     1     153.008 156.657 189.715  0.00  0.00    +0.026 HD
ENDBRANCH  15  42
BRANCH   9  46
ATOM     46  C   UNL     1     151.530 167.058 188.897  0.00  0.00    -0.058 C 
ATOM     47  H   UNL     1     152.620 167.146 188.953  0.00  0.00    +0.024 HD
ATOM     48  H   UNL     1     151.205 167.609 188.006  0.00  0.00    +0.024 HD
ATOM     49  H   UNL     1     151.111 167.561 189.774  0.00  0.00    +0.024 HD
ENDBRANCH   9  46
BRANCH  21  50
ATOM     50  C   UNL     1     151.362 166.017 192.472  0.00  0.00    -0.009 C 
ATOM     51  H   UNL     1     152.381 165.610 192.441  0.00  0.00    +0.033 HD
ATOM     52  H   UNL     1     151.475 167.094 192.284  0.00  0.00    +0.033 HD
BRANCH  50  53
ATOM     53  C   UNL     1     150.800 165.863 193.864  0.00  0.00    -0.046 A 
ATOM     54  C   UNL     1     151.509 165.154 194.841  0.00  0.00    -0.059 A 
ATOM     55  C   UNL     1     150.986 164.995 196.126  0.00  0.00    -0.062 A 
ATOM     56  C   UNL     1     149.753 165.552 196.453  0.00  0.00    -0.062 A 
ATOM     57  C   UNL     1     149.046 166.275 195.497  0.00  0.00    -0.062 A 
ATOM     58  C   UNL     1     149.568 166.434 194.213  0.00  0.00    -0.059 A 
ATOM     59  H   UNL     1     152.467 164.693 194.608  0.00  0.00    +0.062 HD
ATOM     60  H   UNL     1     151.539 164.421 196.865  0.00  0.00    +0.062 HD
ATOM     61  H   UNL     1     149.344 165.420 197.451  0.00  0.00    +0.062 HD
ATOM     62  H   UNL     1     148.083 166.711 195.751  0.00  0.00    +0.062 HD
ATOM     63  H   UNL     1     148.998 167.008 193.487  0.00  0.00    +0.062 HD
ENDBRANCH  50  53
ENDBRANCH  21  50
BRANCH  15  64
ATOM     64  O   UNL     1     151.835 158.395 191.881  0.00  0.00    -0.377 OA
ATOM     65  H   UNL     1     152.063 157.478 192.139  0.00  0.00    +0.211 HD
ENDBRANCH  15  64
BRANCH   6  66
ATOM     66  O   UNL     1     149.117 163.657 186.766  0.00  0.00    -0.387 OA
ATOM     67  H   UNL     1     149.257 164.521 186.341  0.00  0.00    +0.210 HD
ENDBRANCH   6  66
BRANCH  12  68
ATOM     68  O   UNL     1     153.234 162.485 189.324  0.00  0.00    -0.456 OA
BRANCH  68  69
ATOM     69  C   UNL     1     154.497 162.941 189.498  0.00  0.00    +0.305 C 
ATOM     70  O   UNL     1     155.376 162.409 190.158  0.00  0.00    -0.251 OA
BRANCH  69  71
ATOM     71  C   UNL     1     154.661 164.251 188.789  0.00  0.00    +0.033 C 
ATOM     72  H   UNL     1     154.315 165.063 189.434  0.00  0.00    +0.034 HD
ATOM     73  H   UNL     1     155.718 164.407 188.553  0.00  0.00    +0.034 HD
ATOM     74  H   UNL     1     154.101 164.240 187.850  0.00  0.00    +0.034 HD
ENDBRANCH  69  71
ENDBRANCH  68  69
ENDBRANCH  12  68
TORSDOF 10
ENDMDL
MODEL 7
REMARK VINA RESULT:      -6.3      2.203      8.282
REMARK  Name = Cytochalasin D_conf1
REMARK  10 active torsions:
REMARK  status: ('A' for Active; 'I' for Inactive)
REMARK    1  A    between atoms: C_1  and  C_2
REMARK    2  A    between atoms: C_7  and  O_37
REMARK    3  A    between atoms: C_10  and  C_36
REMARK    4  A    between atoms: C_13  and  O_21
REMARK    5  A    between atoms: C_16  and  C_19
REMARK    6  A    between atoms: C_16  and  O_20
REMARK    7  A    between atoms: O_21  and  C_22
REMARK    8  A    between atoms: C_22  and  C_24
REMARK    9  A    between atoms: C_28  and  C_29
REMARK   10  A    between atoms: C_29  and  C_30
REMARK                            x       y       z     vdW  Elec       q    Type
REMARK                         _______ _______ _______ _____ _____    ______ ____
ROOT
ATOM      1  C   UNL     1     155.172 164.991 189.028  0.00  0.00    +0.021 C 
ATOM      2  C   UNL     1     154.708 166.458 189.044  0.00  0.00    -0.025 C 
ATOM      3  C   UNL     1     153.603 166.703 190.040  0.00  0.00    -0.087 C 
ATOM      4  C   UNL     1     152.326 166.949 189.699  0.00  0.00    -0.081 C 
ATOM      5  C   UNL     1     151.198 167.189 190.703  0.00  0.00    +0.025 C 
ATOM      6  C   UNL     1     150.677 168.647 190.542  0.00  0.00    +0.084 C 
ATOM      7  C   UNL     1     149.496 168.971 191.435  0.00  0.00    -0.045 C 
ATOM      8  C   UNL     1     148.855 170.147 191.308  0.00  0.00    -0.097 C 
ATOM      9  C   UNL     1     149.123 167.880 192.420  0.00  0.00    -0.015 C 
ATOM     10  C   UNL     1     148.835 166.565 191.650  0.00  0.00    +0.002 C 
ATOM     11  C   UNL     1     150.021 166.140 190.677  0.00  0.00    +0.101 C 
ATOM     12  C   UNL     1     150.487 164.691 191.061  0.00  0.00    +0.136 C 
ATOM     13  C   UNL     1     151.305 163.964 190.012  0.00  0.00    -0.044 C 
ATOM     14  C   UNL     1     152.596 163.591 190.104  0.00  0.00    -0.046 C 
ATOM     15  C   UNL     1     153.424 162.990 188.998  0.00  0.00    +0.139 C 
ATOM     16  C   UNL     1     154.176 164.127 188.253  0.00  0.00    +0.171 C 
ATOM     17  O   UNL     1     153.961 164.326 187.051  0.00  0.00    -0.294 OA
ATOM     18  C   UNL     1     149.343 166.158 189.311  0.00  0.00    +0.224 C 
ATOM     19  O   UNL     1     149.862 165.973 188.221  0.00  0.00    -0.275 OA
ATOM     20  N   UNL     1     148.018 166.461 189.433  0.00  0.00    -0.311 N 
ATOM     21  C   UNL     1     147.562 166.648 190.773  0.00  0.00    +0.032 C 
ATOM     22  H   UNL     1     155.265 164.620 190.055  0.00  0.00    +0.038 HD
ATOM     23  H   UNL     1     154.394 166.773 188.041  0.00  0.00    +0.031 HD
ATOM     24  H   UNL     1     155.545 167.110 189.324  0.00  0.00    +0.031 HD
ATOM     25  H   UNL     1     153.883 166.671 191.091  0.00  0.00    +0.057 HD
ATOM     26  H   UNL     1     152.061 166.981 188.642  0.00  0.00    +0.057 HD
ATOM     27  H   UNL     1     151.666 167.139 191.697  0.00  0.00    +0.038 HD
ATOM     28  H   UNL     1     150.405 168.843 189.497  0.00  0.00    +0.065 HD
ATOM     29  H   UNL     1     149.189 170.884 190.583  0.00  0.00    +0.054 HD
ATOM     30  H   UNL     1     148.007 170.429 191.923  0.00  0.00    +0.054 HD
ATOM     31  H   UNL     1     150.003 167.709 193.057  0.00  0.00    +0.035 HD
ATOM     32  H   UNL     1     148.684 165.800 192.416  0.00  0.00    +0.034 HD
ATOM     33  H   UNL     1     149.616 164.055 191.242  0.00  0.00    +0.079 HD
ATOM     34  H   UNL     1     150.772 163.750 189.086  0.00  0.00    +0.061 HD
ATOM     35  H   UNL     1     153.135 163.804 191.024  0.00  0.00    +0.060 HD
ATOM     36  H   UNL     1     147.443 166.552 188.604  0.00  0.00    +0.149 HD
ATOM     37  H   UNL     1     147.137 167.657 190.791  0.00  0.00    +0.050 HD
ENDROOT
BRANCH   1  38
ATOM     38  C   UNL     1     156.540 164.862 188.359  0.00  0.00    -0.055 C 
ATOM     39  H   UNL     1     157.338 165.264 188.993  0.00  0.00    +0.024 HD
ATOM     40  H   UNL     1     156.563 165.409 187.411  0.00  0.00    +0.024 HD
ATOM     41  H   UNL     1     156.772 163.812 188.148  0.00  0.00    +0.024 HD
ENDBRANCH   1  38
BRANCH  15  42
ATOM     42  C   UNL     1     154.399 161.937 189.519  0.00  0.00    -0.025 C 
ATOM     43  H   UNL     1     155.400 162.344 189.701  0.00  0.00    +0.026 HD
ATOM     44  H   UNL     1     154.035 161.493 190.453  0.00  0.00    +0.026 HD
ATOM     45  H   UNL     1     154.499 161.115 188.800  0.00  0.00    +0.026 HD
ENDBRANCH  15  42
BRANCH   9  46
ATOM     46  C   UNL     1     147.993 168.213 193.406  0.00  0.00    -0.058 C 
ATOM     47  H   UNL     1     148.089 167.608 194.314  0.00  0.00    +0.024 HD
ATOM     48  H   UNL     1     148.042 169.265 193.710  0.00  0.00    +0.024 HD
ATOM     49  H   UNL     1     146.998 168.030 192.989  0.00  0.00    +0.024 HD
ENDBRANCH   9  46
BRANCH  21  50
ATOM     50  C   UNL     1     146.416 165.689 191.163  0.00  0.00    -0.009 C 
ATOM     51  H   UNL     1     146.160 165.073 190.291  0.00  0.00    +0.033 HD
ATOM     52  H   UNL     1     146.792 164.982 191.915  0.00  0.00    +0.033 HD
BRANCH  50  53
ATOM     53  C   UNL     1     145.161 166.312 191.724  0.00  0.00    -0.046 A 
ATOM     54  C   UNL     1     144.843 166.172 193.080  0.00  0.00    -0.059 A 
ATOM     55  C   UNL     1     143.676 166.733 193.600  0.00  0.00    -0.062 A 
ATOM     56  C   UNL     1     142.816 167.451 192.773  0.00  0.00    -0.062 A 
ATOM     57  C   UNL     1     143.129 167.614 191.426  0.00  0.00    -0.062 A 
ATOM     58  C   UNL     1     144.296 167.053 190.906  0.00  0.00    -0.059 A 
ATOM     59  H   UNL     1     145.488 165.600 193.746  0.00  0.00    +0.062 HD
ATOM     60  H   UNL     1     143.433 166.594 194.650  0.00  0.00    +0.062 HD
ATOM     61  H   UNL     1     141.904 167.880 193.178  0.00  0.00    +0.062 HD
ATOM     62  H   UNL     1     142.459 168.175 190.779  0.00  0.00    +0.062 HD
ATOM     63  H   UNL     1     144.519 167.200 189.852  0.00  0.00    +0.062 HD
ENDBRANCH  50  53
ENDBRANCH  21  50
BRANCH  15  64
ATOM     64  O   UNL     1     152.563 162.319 188.073  0.00  0.00    -0.377 OA
ATOM     65  H   UNL     1     152.167 163.026 187.522  0.00  0.00    +0.211 HD
ENDBRANCH  15  64
BRANCH   6  66
ATOM     66  O   UNL     1     151.714 169.565 190.906  0.00  0.00    -0.387 OA
ATOM     67  H   UNL     1     151.542 170.388 190.417  0.00  0.00    +0.210 HD
ENDBRANCH   6  66
BRANCH  12  68
ATOM     68  O   UNL     1     151.301 164.784 192.263  0.00  0.00    -0.456 OA
BRANCH  68  69
ATOM     69  C   UNL     1     150.702 164.729 193.477  0.00  0.00    +0.305 C 
ATOM     70  O   UNL     1     149.714 164.073 193.767  0.00  0.00    -0.251 OA
BRANCH  69  71
ATOM     71  C   UNL     1     151.406 165.647 194.429  0.00  0.00    +0.033 C 
ATOM     72  H   UNL     1     150.690 166.048 195.149  0.00  0.00    +0.034 HD
ATOM     73  H   UNL     1     152.181 165.090 194.964  0.00  0.00    +0.034 HD
ATOM     74  H   UNL     1     151.891 166.457 193.876  0.00  0.00    +0.034 HD
ENDBRANCH  69  71
ENDBRANCH  68  69
ENDBRANCH  12  68
TORSDOF 10
ENDMDL
MODEL 8
REMARK VINA RESULT:      -6.1     15.833     19.061
REMARK  Name = Cytochalasin D_conf1
REMARK  10 active torsions:
REMARK  status: ('A' for Active; 'I' for Inactive)
REMARK    1  A    between atoms: C_1  and  C_2
REMARK    2  A    between atoms: C_7  and  O_37
REMARK    3  A    between atoms: C_10  and  C_36
REMARK    4  A    between atoms: C_13  and  O_21
REMARK    5  A    between atoms: C_16  and  C_19
REMARK    6  A    between atoms: C_16  and  O_20
REMARK    7  A    between atoms: O_21  and  C_22
REMARK    8  A    between atoms: C_22  and  C_24
REMARK    9  A    between atoms: C_28  and  C_29
REMARK   10  A    between atoms: C_29  and  C_30
REMARK                            x       y       z     vdW  Elec       q    Type
REMARK                         _______ _______ _______ _____ _____    ______ ____
ROOT
ATOM      1  C   UNL     1     133.280 173.362 197.155  0.00  0.00    +0.021 C 
ATOM      2  C   UNL     1     132.474 173.671 198.428  0.00  0.00    -0.025 C 
ATOM      3  C   UNL     1     133.066 174.805 199.225  0.00  0.00    -0.087 C 
ATOM      4  C   UNL     1     133.692 174.649 200.403  0.00  0.00    -0.081 C 
ATOM      5  C   UNL     1     134.304 175.793 201.213  0.00  0.00    +0.025 C 
ATOM      6  C   UNL     1     133.532 175.934 202.556  0.00  0.00    +0.084 C 
ATOM      7  C   UNL     1     134.108 176.989 203.479  0.00  0.00    -0.045 C 
ATOM      8  C   UNL     1     133.630 177.129 204.729  0.00  0.00    -0.097 C 
ATOM      9  C   UNL     1     135.233 177.812 202.883  0.00  0.00    -0.015 C 
ATOM     10  C   UNL     1     136.371 176.869 202.413  0.00  0.00    +0.002 C 
ATOM     11  C   UNL     1     135.863 175.718 201.438  0.00  0.00    +0.101 C 
ATOM     12  C   UNL     1     136.678 175.802 200.098  0.00  0.00    +0.136 C 
ATOM     13  C   UNL     1     136.634 174.566 199.222  0.00  0.00    -0.044 C 
ATOM     14  C   UNL     1     136.080 174.456 198.000  0.00  0.00    -0.046 C 
ATOM     15  C   UNL     1     135.930 173.184 197.207  0.00  0.00    +0.139 C 
ATOM     16  C   UNL     1     134.537 172.563 197.503  0.00  0.00    +0.171 C 
ATOM     17  O   UNL     1     134.457 171.441 198.018  0.00  0.00    -0.294 OA
ATOM     18  C   UNL     1     136.212 174.453 202.217  0.00  0.00    +0.224 C 
ATOM     19  O   UNL     1     135.951 173.299 201.916  0.00  0.00    -0.275 OA
ATOM     20  N   UNL     1     136.853 174.765 203.380  0.00  0.00    -0.311 N 
ATOM     21  C   UNL     1     137.087 176.158 203.588  0.00  0.00    +0.032 C 
ATOM     22  H   UNL     1     133.559 174.296 196.656  0.00  0.00    +0.038 HD
ATOM     23  H   UNL     1     132.382 172.774 199.053  0.00  0.00    +0.031 HD
ATOM     24  H   UNL     1     131.452 173.965 198.159  0.00  0.00    +0.031 HD
ATOM     25  H   UNL     1     132.969 175.801 198.795  0.00  0.00    +0.057 HD
ATOM     26  H   UNL     1     133.780 173.646 200.823  0.00  0.00    +0.057 HD
ATOM     27  H   UNL     1     134.094 176.708 200.642  0.00  0.00    +0.038 HD
ATOM     28  H   UNL     1     133.500 174.971 203.083  0.00  0.00    +0.065 HD
ATOM     29  H   UNL     1     132.812 176.505 205.082  0.00  0.00    +0.054 HD
ATOM     30  H   UNL     1     134.004 177.869 205.428  0.00  0.00    +0.054 HD
ATOM     31  H   UNL     1     134.826 178.314 201.994  0.00  0.00    +0.035 HD
ATOM     32  H   UNL     1     137.093 177.508 201.898  0.00  0.00    +0.034 HD
ATOM     33  H   UNL     1     137.737 175.966 200.316  0.00  0.00    +0.079 HD
ATOM     34  H   UNL     1     137.089 173.679 199.663  0.00  0.00    +0.061 HD
ATOM     35  H   UNL     1     135.620 175.336 197.555  0.00  0.00    +0.060 HD
ATOM     36  H   UNL     1     137.111 174.028 204.026  0.00  0.00    +0.149 HD
ATOM     37  H   UNL     1     136.602 176.389 204.542  0.00  0.00    +0.050 HD
ENDROOT
BRANCH   1  38
ATOM     38  C   UNL     1     132.447 172.538 196.172  0.00  0.00    -0.055 C 
ATOM     39  H   UNL     1     132.022 171.649 196.651  0.00  0.00    +0.024 HD
ATOM     40  H   UNL     1     133.060 172.200 195.330  0.00  0.00    +0.024 HD
ATOM     41  H   UNL     1     131.620 173.133 195.770  0.00  0.00    +0.024 HD
ENDBRANCH   1  38
BRANCH  15  42
ATOM     42  C   UNL     1     136.121 173.415 195.711  0.00  0.00    -0.025 C 
ATOM     43  H   UNL     1     136.176 174.478 195.452  0.00  0.00    +0.026 HD
ATOM     44  H   UNL     1     137.036 172.928 195.351  0.00  0.00    +0.026 HD
ATOM     45  H   UNL     1     135.291 172.977 195.143  0.00  0.00    +0.026 HD
ENDBRANCH  15  42
BRANCH   9  46
ATOM     46  C   UNL     1     135.775 178.954 203.755  0.00  0.00    -0.058 C 
ATOM     47  H   UNL     1     135.831 178.641 204.804  0.00  0.00    +0.024 HD
ATOM     48  H   UNL     1     136.790 179.231 203.445  0.00  0.00    +0.024 HD
ATOM     49  H   UNL     1     135.154 179.854 203.711  0.00  0.00    +0.024 HD
ENDBRANCH   9  46
BRANCH  21  50
ATOM     50  C   UNL     1     138.582 176.502 203.767  0.00  0.00    -0.009 C 
ATOM     51  H   UNL     1     138.812 176.524 204.840  0.00  0.00    +0.033 HD
ATOM     52  H   UNL     1     139.183 175.677 203.360  0.00  0.00    +0.033 HD
BRANCH  50  53
ATOM     53  C   UNL     1     139.074 177.775 203.122  0.00  0.00    -0.046 A 
ATOM     54  C   UNL     1     139.235 178.940 203.882  0.00  0.00    -0.059 A 
ATOM     55  C   UNL     1     139.674 180.124 203.286  0.00  0.00    -0.062 A 
ATOM     56  C   UNL     1     139.969 180.155 201.926  0.00  0.00    -0.062 A 
ATOM     57  C   UNL     1     139.831 179.000 201.162  0.00  0.00    -0.062 A 
ATOM     58  C   UNL     1     139.392 177.816 201.757  0.00  0.00    -0.059 A 
ATOM     59  H   UNL     1     138.995 178.949 204.944  0.00  0.00    +0.062 HD
ATOM     60  H   UNL     1     139.771 181.025 203.886  0.00  0.00    +0.062 HD
ATOM     61  H   UNL     1     140.303 181.079 201.463  0.00  0.00    +0.062 HD
ATOM     62  H   UNL     1     140.061 179.022 200.100  0.00  0.00    +0.062 HD
ATOM     63  H   UNL     1     139.299 176.926 201.139  0.00  0.00    +0.062 HD
ENDBRANCH  50  53
ENDBRANCH  21  50
BRANCH  15  64
ATOM     64  O   UNL     1     136.945 172.257 197.605  0.00  0.00    -0.377 OA
ATOM     65  H   UNL     1     136.544 171.716 198.316  0.00  0.00    +0.211 HD
ENDBRANCH  15  64
BRANCH   6  66
ATOM     66  O   UNL     1     132.183 176.333 202.290  0.00  0.00    -0.387 OA
ATOM     67  H   UNL     1     132.049 177.183 202.743  0.00  0.00    +0.210 HD
ENDBRANCH   6  66
BRANCH  12  68
ATOM     68  O   UNL     1     136.146 176.910 199.319  0.00  0.00    -0.456 OA
BRANCH  68  69
ATOM     69  C   UNL     1     136.974 177.913 198.940  0.00  0.00    +0.305 C 
ATOM     70  O   UNL     1     137.982 177.803 198.260  0.00  0.00    -0.251 OA
BRANCH  69  71
ATOM     71  C   UNL     1     136.498 179.207 199.528  0.00  0.00    +0.033 C 
ATOM     72  H   UNL     1     136.420 179.960 198.740  0.00  0.00    +0.034 HD
ATOM     73  H   UNL     1     135.514 179.059 199.982  0.00  0.00    +0.034 HD
ATOM     74  H   UNL     1     137.187 179.538 200.310  0.00  0.00    +0.034 HD
ENDBRANCH  69  71
ENDBRANCH  68  69
ENDBRANCH  12  68
TORSDOF 10
ENDMDL
MODEL 9
REMARK VINA RESULT:      -6.1      2.633      5.583
REMARK  Name = Cytochalasin D_conf1
REMARK  10 active torsions:
REMARK  status: ('A' for Active; 'I' for Inactive)
REMARK    1  A    between atoms: C_1  and  C_2
REMARK    2  A    between atoms: C_7  and  O_37
REMARK    3  A    between atoms: C_10  and  C_36
REMARK    4  A    between atoms: C_13  and  O_21
REMARK    5  A    between atoms: C_16  and  C_19
REMARK    6  A    between atoms: C_16  and  O_20
REMARK    7  A    between atoms: O_21  and  C_22
REMARK    8  A    between atoms: C_22  and  C_24
REMARK    9  A    between atoms: C_28  and  C_29
REMARK   10  A    between atoms: C_29  and  C_30
REMARK                            x       y       z     vdW  Elec       q    Type
REMARK                         _______ _______ _______ _____ _____    ______ ____
ROOT
ATOM      1  C   UNL     1     145.088 172.694 191.755  0.00  0.00    +0.021 C 
ATOM      2  C   UNL     1     144.203 171.819 190.852  0.00  0.00    -0.025 C 
ATOM      3  C   UNL     1     144.577 170.360 190.915  0.00  0.00    -0.087 C 
ATOM      4  C   UNL     1     145.182 169.696 189.916  0.00  0.00    -0.081 C 
ATOM      5  C   UNL     1     145.574 168.219 189.976  0.00  0.00    +0.025 C 
ATOM      6  C   UNL     1     144.747 167.431 188.920  0.00  0.00    +0.084 C 
ATOM      7  C   UNL     1     145.114 165.963 188.834  0.00  0.00    -0.045 C 
ATOM      8  C   UNL     1     144.580 165.187 187.873  0.00  0.00    -0.097 C 
ATOM      9  C   UNL     1     146.109 165.493 189.877  0.00  0.00    -0.015 C 
ATOM     10  C   UNL     1     147.398 166.348 189.785  0.00  0.00    +0.002 C 
ATOM     11  C   UNL     1     147.117 167.912 189.862  0.00  0.00    +0.101 C 
ATOM     12  C   UNL     1     147.948 168.512 191.051  0.00  0.00    +0.136 C 
ATOM     13  C   UNL     1     148.134 170.016 191.030  0.00  0.00    -0.044 C 
ATOM     14  C   UNL     1     147.644 170.907 191.913  0.00  0.00    -0.046 C 
ATOM     15  C   UNL     1     147.729 172.407 191.798  0.00  0.00    +0.139 C 
ATOM     16  C   UNL     1     146.447 172.935 191.096  0.00  0.00    +0.171 C 
ATOM     17  O   UNL     1     146.535 173.534 190.017  0.00  0.00    -0.294 OA
ATOM     18  C   UNL     1     147.642 168.405 188.517  0.00  0.00    +0.224 C 
ATOM     19  O   UNL     1     147.582 169.537 188.065  0.00  0.00    -0.275 OA
ATOM     20  N   UNL     1     148.187 167.375 187.805  0.00  0.00    -0.311 N 
ATOM     21  C   UNL     1     148.184 166.112 188.471  0.00  0.00    +0.032 C 
ATOM     22  H   UNL     1     145.227 172.205 192.725  0.00  0.00    +0.038 HD
ATOM     23  H   UNL     1     144.238 172.177 189.815  0.00  0.00    +0.031 HD
ATOM     24  H   UNL     1     143.155 171.898 191.168  0.00  0.00    +0.031 HD
ATOM     25  H   UNL     1     144.332 169.838 191.839  0.00  0.00    +0.057 HD
ATOM     26  H   UNL     1     145.419 170.232 188.996  0.00  0.00    +0.057 HD
ATOM     27  H   UNL     1     145.236 167.860 190.959  0.00  0.00    +0.038 HD
ATOM     28  H   UNL     1     144.856 167.890 187.929  0.00  0.00    +0.065 HD
ATOM     29  H   UNL     1     143.864 165.598 187.165  0.00  0.00    +0.054 HD
ATOM     30  H   UNL     1     144.807 164.132 187.769  0.00  0.00    +0.054 HD
ATOM     31  H   UNL     1     145.653 165.679 190.860  0.00  0.00    +0.035 HD
ATOM     32  H   UNL     1     148.023 166.036 190.627  0.00  0.00    +0.034 HD
ATOM     33  H   UNL     1     148.959 168.095 191.046  0.00  0.00    +0.079 HD
ATOM     34  H   UNL     1     148.714 170.393 190.187  0.00  0.00    +0.061 HD
ATOM     35  H   UNL     1     147.062 170.539 192.755  0.00  0.00    +0.060 HD
ATOM     36  H   UNL     1     148.541 167.540 186.871  0.00  0.00    +0.149 HD
ATOM     37  H   UNL     1     147.638 165.439 187.801  0.00  0.00    +0.050 HD
ENDROOT
BRANCH   1  38
ATOM     38  C   UNL     1     144.432 174.052 192.007  0.00  0.00    -0.055 C 
ATOM     39  H   UNL     1     143.413 174.087 191.606  0.00  0.00    +0.024 HD
ATOM     40  H   UNL     1     145.003 174.855 191.530  0.00  0.00    +0.024 HD
ATOM     41  H   UNL     1     144.381 174.266 193.080  0.00  0.00    +0.024 HD
ENDBRANCH   1  38
BRANCH  15  42
ATOM     42  C   UNL     1     147.927 173.077 193.154  0.00  0.00    -0.025 C 
ATOM     43  H   UNL     1     148.520 172.466 193.843  0.00  0.00    +0.026 HD
ATOM     44  H   UNL     1     148.424 174.048 193.044  0.00  0.00    +0.026 HD
ATOM     45  H   UNL     1     146.960 173.274 193.632  0.00  0.00    +0.026 HD
ENDBRANCH  15  42
BRANCH   9  46
ATOM     46  C   UNL     1     146.429 163.990 189.880  0.00  0.00    -0.058 C 
ATOM     47  H   UNL     1     145.683 163.442 190.466  0.00  0.00    +0.024 HD
ATOM     48  H   UNL     1     146.404 163.586 188.861  0.00  0.00    +0.024 HD
ATOM     49  H   UNL     1     147.413 163.767 190.305  0.00  0.00    +0.024 HD
ENDBRANCH   9  46
BRANCH  21  50
ATOM     50  C   UNL     1     149.596 165.509 188.634  0.00  0.00    -0.009 C 
ATOM     51  H   UNL     1     149.510 164.416 188.676  0.00  0.00    +0.033 HD
ATOM     52  H   UNL     1     150.174 165.718 187.723  0.00  0.00    +0.033 HD
BRANCH  50  53
ATOM     53  C   UNL     1     150.417 165.993 189.804  0.00  0.00    -0.046 A 
ATOM     54  C   UNL     1     151.045 167.244 189.762  0.00  0.00    -0.059 A 
ATOM     55  C   UNL     1     151.817 167.690 190.836  0.00  0.00    -0.062 A 
ATOM     56  C   UNL     1     151.965 166.895 191.969  0.00  0.00    -0.062 A 
ATOM     57  C   UNL     1     151.332 165.657 192.032  0.00  0.00    -0.062 A 
ATOM     58  C   UNL     1     150.559 165.211 190.960  0.00  0.00    -0.059 A 
ATOM     59  H   UNL     1     150.961 167.879 188.881  0.00  0.00    +0.062 HD
ATOM     60  H   UNL     1     152.317 168.653 190.776  0.00  0.00    +0.062 HD
ATOM     61  H   UNL     1     152.574 167.240 192.800  0.00  0.00    +0.062 HD
ATOM     62  H   UNL     1     151.445 165.035 192.916  0.00  0.00    +0.062 HD
ATOM     63  H   UNL     1     150.070 164.243 191.037  0.00  0.00    +0.062 HD
ENDBRANCH  50  53
ENDBRANCH  21  50
BRANCH  15  64
ATOM     64  O   UNL     1     148.868 172.756 191.005  0.00  0.00    -0.377 OA
ATOM     65  H   UNL     1     149.606 172.211 191.350  0.00  0.00    +0.211 HD
ENDBRANCH  15  64
BRANCH   6  66
ATOM     66  O   UNL     1     143.360 167.474 189.273  0.00  0.00    -0.387 OA
ATOM     67  H   UNL     1     143.322 167.517 190.244  0.00  0.00    +0.210 HD
ENDBRANCH   6  66
BRANCH  12  68
ATOM     68  O   UNL     1     147.268 168.172 192.291  0.00  0.00    -0.456 OA
BRANCH  68  69
ATOM     69  C   UNL     1     147.858 167.315 193.158  0.00  0.00    +0.305 C 
ATOM     70  O   UNL     1     148.993 167.398 193.599  0.00  0.00    -0.251 OA
BRANCH  69  71
ATOM     71  C   UNL     1     146.918 166.191 193.474  0.00  0.00    +0.033 C 
ATOM     72  H   UNL     1     147.489 165.303 193.752  0.00  0.00    +0.034 HD
ATOM     73  H   UNL     1     146.273 166.481 194.309  0.00  0.00    +0.034 HD
ATOM     74  H   UNL     1     146.280 165.984 192.609  0.00  0.00    +0.034 HD
ENDBRANCH  69  71
ENDBRANCH  68  69
ENDBRANCH  12  68
TORSDOF 10
ENDMDL
MODEL 10
REMARK VINA RESULT:      -6.1      4.336      8.307
REMARK  Name = Cytochalasin D_conf1
REMARK  10 active torsions:
REMARK  status: ('A' for Active; 'I' for Inactive)
REMARK    1  A    between atoms: C_1  and  C_2
REMARK    2  A    between atoms: C_7  and  O_37
REMARK    3  A    between atoms: C_10  and  C_36
REMARK    4  A    between atoms: C_13  and  O_21
REMARK    5  A    between atoms: C_16  and  C_19
REMARK    6  A    between atoms: C_16  and  O_20
REMARK    7  A    between atoms: O_21  and  C_22
REMARK    8  A    between atoms: C_22  and  C_24
REMARK    9  A    between atoms: C_28  and  C_29
REMARK   10  A    between atoms: C_29  and  C_30
REMARK                            x       y       z     vdW  Elec       q    Type
REMARK                         _______ _______ _______ _____ _____    ______ ____
ROOT
ATOM      1  C   UNL     1     151.171 157.906 188.206  0.00  0.00    +0.021 C 
ATOM      2  C   UNL     1     150.103 158.794 187.545  0.00  0.00    -0.025 C 
ATOM      3  C   UNL     1     150.445 160.260 187.619  0.00  0.00    -0.087 C 
ATOM      4  C   UNL     1     149.803 161.142 188.405  0.00  0.00    -0.081 C 
ATOM      5  C   UNL     1     150.149 162.629 188.494  0.00  0.00    +0.025 C 
ATOM      6  C   UNL     1     148.952 163.462 187.953  0.00  0.00    +0.084 C 
ATOM      7  C   UNL     1     149.153 164.959 188.071  0.00  0.00    -0.045 C 
ATOM      8  C   UNL     1     148.149 165.803 187.771  0.00  0.00    -0.097 C 
ATOM      9  C   UNL     1     150.526 165.382 188.557  0.00  0.00    -0.015 C 
ATOM     10  C   UNL     1     150.817 164.719 189.927  0.00  0.00    +0.002 C 
ATOM     11  C   UNL     1     150.628 163.138 189.908  0.00  0.00    +0.101 C 
ATOM     12  C   UNL     1     151.969 162.469 190.376  0.00  0.00    +0.136 C 
ATOM     13  C   UNL     1     151.863 161.021 190.812  0.00  0.00    -0.044 C 
ATOM     14  C   UNL     1     152.416 159.950 190.212  0.00  0.00    -0.046 C 
ATOM     15  C   UNL     1     152.187 158.509 190.586  0.00  0.00    +0.139 C 
ATOM     16  C   UNL     1     151.022 157.942 189.728  0.00  0.00    +0.171 C 
ATOM     17  O   UNL     1     149.992 157.533 190.278  0.00  0.00    -0.294 OA
ATOM     18  C   UNL     1     149.519 162.930 190.934  0.00  0.00    +0.224 C 
ATOM     19  O   UNL     1     148.963 161.883 191.226  0.00  0.00    -0.275 OA
ATOM     20  N   UNL     1     149.159 164.117 191.504  0.00  0.00    -0.311 N 
ATOM     21  C   UNL     1     149.904 165.252 191.059  0.00  0.00    +0.032 C 
ATOM     22  H   UNL     1     152.170 158.252 187.922  0.00  0.00    +0.038 HD
ATOM     23  H   UNL     1     149.118 158.609 187.991  0.00  0.00    +0.031 HD
ATOM     24  H   UNL     1     150.013 158.538 186.482  0.00  0.00    +0.031 HD
ATOM     25  H   UNL     1     151.267 160.598 186.991  0.00  0.00    +0.057 HD
ATOM     26  H   UNL     1     148.980 160.789 189.028  0.00  0.00    +0.057 HD
ATOM     27  H   UNL     1     150.976 162.785 187.787  0.00  0.00    +0.038 HD
ATOM     28  H   UNL     1     148.025 163.180 188.469  0.00  0.00    +0.065 HD
ATOM     29  H   UNL     1     147.193 165.422 187.419  0.00  0.00    +0.054 HD
ATOM     30  H   UNL     1     148.241 166.882 187.835  0.00  0.00    +0.054 HD
ATOM     31  H   UNL     1     151.256 164.990 187.834  0.00  0.00    +0.035 HD
ATOM     32  H   UNL     1     151.854 164.971 190.166  0.00  0.00    +0.034 HD
ATOM     33  H   UNL     1     152.370 163.004 191.242  0.00  0.00    +0.079 HD
ATOM     34  H   UNL     1     151.251 160.855 191.699  0.00  0.00    +0.061 HD
ATOM     35  H   UNL     1     153.026 160.107 189.324  0.00  0.00    +0.060 HD
ATOM     36  H   UNL     1     148.402 164.144 192.177  0.00  0.00    +0.149 HD
ATOM     37  H   UNL     1     149.155 165.947 190.667  0.00  0.00    +0.050 HD
ENDROOT
BRANCH   1  38
ATOM     38  C   UNL     1     151.030 156.455 187.746  0.00  0.00    -0.055 C 
ATOM     39  H   UNL     1     151.961 155.895 187.889  0.00  0.00    +0.024 HD
ATOM     40  H   UNL     1     150.775 156.406 186.683  0.00  0.00    +0.024 HD
ATOM     41  H   UNL     1     150.239 155.944 188.306  0.00  0.00    +0.024 HD
ENDBRANCH   1  38
BRANCH  15  42
ATOM     42  C   UNL     1     153.449 157.666 190.423  0.00  0.00    -0.025 C 
ATOM     43  H   UNL     1     154.366 158.249 190.561  0.00  0.00    +0.026 HD
ATOM     44  H   UNL     1     153.462 156.836 191.139  0.00  0.00    +0.026 HD
ATOM     45  H   UNL     1     153.487 157.217 189.423  0.00  0.00    +0.026 HD
ENDBRANCH  15  42
BRANCH   9  46
ATOM     46  C   UNL     1     150.797 166.894 188.595  0.00  0.00    -0.058 C 
ATOM     47  H   UNL     1     151.559 167.126 189.347  0.00  0.00    +0.024 HD
ATOM     48  H   UNL     1     151.177 167.244 187.628  0.00  0.00    +0.024 HD
ATOM     49  H   UNL     1     149.904 167.479 188.836  0.00  0.00    +0.024 HD
ENDBRANCH   9  46
BRANCH  21  50
ATOM     50  C   UNL     1     150.623 165.992 192.208  0.00  0.00    -0.009 C 
ATOM     51  H   UNL     1     150.176 165.683 193.161  0.00  0.00    +0.033 HD
ATOM     52  H   UNL     1     151.665 165.645 192.250  0.00  0.00    +0.033 HD
BRANCH  50  53
ATOM     53  C   UNL     1     150.657 167.500 192.135  0.00  0.00    -0.046 A 
ATOM     54  C   UNL     1     151.869 168.190 192.260  0.00  0.00    -0.059 A 
ATOM     55  C   UNL     1     151.904 169.584 192.209  0.00  0.00    -0.062 A 
ATOM     56  C   UNL     1     150.729 170.307 192.022  0.00  0.00    -0.062 A 
ATOM     57  C   UNL     1     149.519 169.634 191.879  0.00  0.00    -0.062 A 
ATOM     58  C   UNL     1     149.484 168.239 191.929  0.00  0.00    -0.059 A 
ATOM     59  H   UNL     1     152.802 167.651 192.424  0.00  0.00    +0.062 HD
ATOM     60  H   UNL     1     152.850 170.104 192.331  0.00  0.00    +0.062 HD
ATOM     61  H   UNL     1     150.756 171.392 191.992  0.00  0.00    +0.062 HD
ATOM     62  H   UNL     1     148.600 170.196 191.733  0.00  0.00    +0.062 HD
ATOM     63  H   UNL     1     148.527 167.738 191.808  0.00  0.00    +0.062 HD
ENDBRANCH  50  53
ENDBRANCH  21  50
BRANCH  15  64
ATOM     64  O   UNL     1     151.826 158.431 191.968  0.00  0.00    -0.377 OA
ATOM     65  H   UNL     1     150.878 158.185 191.980  0.00  0.00    +0.211 HD
ENDBRANCH  15  64
BRANCH   6  66
ATOM     66  O   UNL     1     148.778 163.193 186.558  0.00  0.00    -0.387 OA
ATOM     67  H   UNL     1     148.619 164.051 186.127  0.00  0.00    +0.210 HD
ENDBRANCH   6  66
BRANCH  12  68
ATOM     68  O   UNL     1     152.909 162.525 189.268  0.00  0.00    -0.456 OA
BRANCH  68  69
ATOM     69  C   UNL     1     154.155 163.013 189.479  0.00  0.00    +0.305 C 
ATOM     70  O   UNL     1     155.072 162.439 190.045  0.00  0.00    -0.251 OA
BRANCH  69  71
ATOM     71  C   UNL     1     154.243 164.413 188.952  0.00  0.00    +0.033 C 
ATOM     72  H   UNL     1     153.501 165.040 189.452  0.00  0.00    +0.034 HD
ATOM     73  H   UNL     1     155.243 164.813 189.149  0.00  0.00    +0.034 HD
ATOM     74  H   UNL     1     154.084 164.416 187.870  0.00  0.00    +0.034 HD
ENDBRANCH  69  71
ENDBRANCH  68  69
ENDBRANCH  12  68
TORSDOF 10
ENDMDL
