MODEL 1
REMARK VINA RESULT:      -7.7      0.000      0.000
REMARK  Name = Cytochalasin B_conf1
REMARK  6 active torsions:
REMARK  status: ('A' for Active; 'I' for Inactive)
REMARK    1  A    between atoms: C_1  and  C_2
REMARK    2  A    between atoms: C_6  and  O_35
REMARK    3  A    between atoms: C_17  and  O_34
REMARK    4  A    between atoms: C_20  and  C_33
REMARK    5  A    between atoms: C_22  and  C_26
REMARK    6  A    between atoms: C_26  and  C_27
REMARK                            x       y       z     vdW  Elec       q    Type
REMARK                         _______ _______ _______ _____ _____    ______ ____
ROOT
ATOM      1  C   UNL     1     151.747 163.093 187.702  0.00  0.00    -0.040 C 
ATOM      2  C   UNL     1     152.429 164.462 187.480  0.00  0.00    -0.050 C 
ATOM      3  C   UNL     1     152.310 165.063 186.068  0.00  0.00    -0.050 C 
ATOM      4  C   UNL     1     150.893 165.264 185.513  0.00  0.00    -0.023 C 
ATOM      5  C   UNL     1     150.157 166.535 185.970  0.00  0.00    +0.074 C 
ATOM      6  C   UNL     1     149.973 166.627 187.452  0.00  0.00    -0.049 C 
ATOM      7  C   UNL     1     148.883 166.240 188.134  0.00  0.00    +0.021 C 
ATOM      8  C   UNL     1     148.797 166.219 189.607  0.00  0.00    +0.333 C 
ATOM      9  O   UNL     1     147.842 165.741 190.200  0.00  0.00    -0.246 OA
ATOM     10  O   UNL     1     149.904 166.749 190.174  0.00  0.00    -0.444 OA
ATOM     11  C   UNL     1     150.137 166.530 191.587  0.00  0.00    +0.202 C 
ATOM     12  C   UNL     1     150.319 165.031 191.941  0.00  0.00    +0.056 C 
ATOM     13  C   UNL     1     151.290 164.294 191.019  0.00  0.00    -0.078 C 
ATOM     14  C   UNL     1     150.911 163.407 190.084  0.00  0.00    -0.087 C 
ATOM     15  C   UNL     1     151.858 162.659 189.183  0.00  0.00    -0.032 C 
ATOM     16  C   UNL     1     150.730 164.865 193.432  0.00  0.00    +0.087 C 
ATOM     17  C   UNL     1     150.134 165.927 194.340  0.00  0.00    -0.045 C 
ATOM     18  C   UNL     1     150.760 166.304 195.469  0.00  0.00    -0.097 C 
ATOM     19  C   UNL     1     148.840 166.523 193.818  0.00  0.00    -0.012 C 
ATOM     20  C   UNL     1     149.089 167.278 192.480  0.00  0.00    +0.033 C 
ATOM     21  C   UNL     1     149.666 168.705 192.613  0.00  0.00    +0.035 C 
ATOM     22  N   UNL     1     151.082 168.525 192.454  0.00  0.00    -0.308 N 
ATOM     23  C   UNL     1     151.422 167.330 191.865  0.00  0.00    +0.258 C 
ATOM     24  O   UNL     1     152.572 167.017 191.604  0.00  0.00    -0.271 OA
ATOM     25  H   UNL     1     150.683 163.167 187.449  0.00  0.00    +0.030 HD
ATOM     26  H   UNL     1     153.500 164.359 187.702  0.00  0.00    +0.027 HD
ATOM     27  H   UNL     1     152.058 165.182 188.212  0.00  0.00    +0.027 HD
ATOM     28  H   UNL     1     152.842 166.022 186.050  0.00  0.00    +0.027 HD
ATOM     29  H   UNL     1     152.856 164.413 185.374  0.00  0.00    +0.027 HD
ATOM     30  H   UNL     1     150.269 164.380 185.689  0.00  0.00    +0.029 HD
ATOM     31  H   UNL     1     150.976 165.319 184.419  0.00  0.00    +0.029 HD
ATOM     32  H   UNL     1     150.696 167.426 185.630  0.00  0.00    +0.064 HD
ATOM     33  H   UNL     1     150.836 167.013 187.991  0.00  0.00    +0.060 HD
ATOM     34  H   UNL     1     148.013 165.837 187.624  0.00  0.00    +0.069 HD
ATOM     35  H   UNL     1     149.346 164.535 191.814  0.00  0.00    +0.042 HD
ATOM     36  H   UNL     1     152.349 164.518 191.138  0.00  0.00    +0.057 HD
ATOM     37  H   UNL     1     149.853 163.177 189.959  0.00  0.00    +0.057 HD
ATOM     38  H   UNL     1     151.611 161.594 189.277  0.00  0.00    +0.031 HD
ATOM     39  H   UNL     1     152.893 162.766 189.530  0.00  0.00    +0.031 HD
ATOM     40  H   UNL     1     151.823 164.860 193.527  0.00  0.00    +0.065 HD
ATOM     41  H   UNL     1     150.371 167.075 196.126  0.00  0.00    +0.054 HD
ATOM     42  H   UNL     1     151.701 165.851 195.770  0.00  0.00    +0.054 HD
ATOM     43  H   UNL     1     148.197 165.663 193.573  0.00  0.00    +0.035 HD
ATOM     44  H   UNL     1     148.113 167.350 191.986  0.00  0.00    +0.037 HD
ATOM     45  H   UNL     1     149.507 169.137 193.603  0.00  0.00    +0.051 HD
ATOM     46  H   UNL     1     151.786 169.213 192.691  0.00  0.00    +0.149 HD
ENDROOT
BRANCH   1  47
ATOM     47  C   UNL     1     152.370 162.016 186.808  0.00  0.00    -0.062 C 
ATOM     48  H   UNL     1     153.396 161.788 187.116  0.00  0.00    +0.023 HD
ATOM     49  H   UNL     1     152.388 162.330 185.761  0.00  0.00    +0.023 HD
ATOM     50  H   UNL     1     151.789 161.088 186.855  0.00  0.00    +0.023 HD
ENDBRANCH   1  47
BRANCH  19  51
ATOM     51  C   UNL     1     148.010 167.333 194.821  0.00  0.00    -0.058 C 
ATOM     52  H   UNL     1     147.271 166.688 195.313  0.00  0.00    +0.024 HD
ATOM     53  H   UNL     1     148.613 167.793 195.608  0.00  0.00    +0.024 HD
ATOM     54  H   UNL     1     147.459 168.129 194.308  0.00  0.00    +0.024 HD
ENDBRANCH  19  51
BRANCH  21  55
ATOM     55  C   UNL     1     149.093 169.659 191.543  0.00  0.00    -0.009 C 
ATOM     56  H   UNL     1     149.795 169.792 190.712  0.00  0.00    +0.033 HD
ATOM     57  H   UNL     1     148.185 169.224 191.105  0.00  0.00    +0.033 HD
BRANCH  55  58
ATOM     58  C   UNL     1     148.741 171.016 192.111  0.00  0.00    -0.046 A 
ATOM     59  C   UNL     1     147.439 171.521 191.993  0.00  0.00    -0.059 A 
ATOM     60  C   UNL     1     147.112 172.763 192.537  0.00  0.00    -0.062 A 
ATOM     61  C   UNL     1     148.079 173.509 193.207  0.00  0.00    -0.062 A 
ATOM     62  C   UNL     1     149.376 173.015 193.333  0.00  0.00    -0.062 A 
ATOM     63  C   UNL     1     149.706 171.774 192.789  0.00  0.00    -0.059 A 
ATOM     64  H   UNL     1     146.671 170.952 191.472  0.00  0.00    +0.062 HD
ATOM     65  H   UNL     1     146.100 173.150 192.438  0.00  0.00    +0.062 HD
ATOM     66  H   UNL     1     147.824 174.477 193.630  0.00  0.00    +0.062 HD
ATOM     67  H   UNL     1     150.132 173.597 193.854  0.00  0.00    +0.062 HD
ATOM     68  H   UNL     1     150.722 171.399 192.897  0.00  0.00    +0.062 HD
ENDBRANCH  55  58
ENDBRANCH  21  55
BRANCH  16  69
ATOM     69  O   UNL     1     150.256 163.599 193.898  0.00  0.00    -0.387 OA
ATOM     70  H   UNL     1     149.288 163.613 193.820  0.00  0.00    +0.210 HD
ENDBRANCH  16  69
BRANCH   5  71
ATOM     71  O   UNL     1     148.874 166.560 185.346  0.00  0.00    -0.388 OA
ATOM     72  H   UNL     1     148.988 166.962 184.469  0.00  0.00    +0.210 HD
ENDBRANCH   5  71
TORSDOF 6
ENDMDL
MODEL 2
REMARK VINA RESULT:      -7.5      2.120      3.273
REMARK  Name = Cytochalasin B_conf1
REMARK  6 active torsions:
REMARK  status: ('A' for Active; 'I' for Inactive)
REMARK    1  A    between atoms: C_1  and  C_2
REMARK    2  A    between atoms: C_6  and  O_35
REMARK    3  A    between atoms: C_17  and  O_34
REMARK    4  A    between atoms: C_20  and  C_33
REMARK    5  A    between atoms: C_22  and  C_26
REMARK    6  A    between atoms: C_26  and  C_27
REMARK                            x       y       z     vdW  Elec       q    Type
REMARK                         _______ _______ _______ _____ _____    ______ ____
ROOT
ATOM      1  C   UNL     1     152.144 162.918 188.536  0.00  0.00    -0.040 C 
ATOM      2  C   UNL     1     152.805 163.554 189.780  0.00  0.00    -0.050 C 
ATOM      3  C   UNL     1     154.243 164.069 189.601  0.00  0.00    -0.050 C 
ATOM      4  C   UNL     1     154.481 165.102 188.491  0.00  0.00    -0.023 C 
ATOM      5  C   UNL     1     154.145 166.563 188.836  0.00  0.00    +0.074 C 
ATOM      6  C   UNL     1     152.715 166.778 189.221  0.00  0.00    -0.049 C 
ATOM      7  C   UNL     1     151.730 167.173 188.398  0.00  0.00    +0.021 C 
ATOM      8  C   UNL     1     150.308 167.239 188.786  0.00  0.00    +0.333 C 
ATOM      9  O   UNL     1     149.420 167.476 187.980  0.00  0.00    -0.246 OA
ATOM     10  O   UNL     1     150.142 166.970 190.100  0.00  0.00    -0.444 OA
ATOM     11  C   UNL     1     148.810 166.681 190.590  0.00  0.00    +0.202 C 
ATOM     12  C   UNL     1     148.198 165.405 189.954  0.00  0.00    +0.056 C 
ATOM     13  C   UNL     1     149.144 164.205 189.950  0.00  0.00    -0.078 C 
ATOM     14  C   UNL     1     149.755 163.733 188.850  0.00  0.00    -0.087 C 
ATOM     15  C   UNL     1     150.673 162.539 188.830  0.00  0.00    -0.032 C 
ATOM     16  C   UNL     1     146.845 165.048 190.631  0.00  0.00    +0.087 C 
ATOM     17  C   UNL     1     146.069 166.267 191.101  0.00  0.00    -0.045 C 
ATOM     18  C   UNL     1     145.225 166.190 192.144  0.00  0.00    -0.097 C 
ATOM     19  C   UNL     1     146.387 167.531 190.325  0.00  0.00    -0.012 C 
ATOM     20  C   UNL     1     147.875 167.937 190.533  0.00  0.00    +0.033 C 
ATOM     21  C   UNL     1     148.187 168.691 191.846  0.00  0.00    +0.035 C 
ATOM     22  N   UNL     1     148.631 167.661 192.742  0.00  0.00    -0.308 N 
ATOM     23  C   UNL     1     149.016 166.505 192.105  0.00  0.00    +0.258 C 
ATOM     24  O   UNL     1     149.467 165.536 192.694  0.00  0.00    -0.271 OA
ATOM     25  H   UNL     1     152.150 163.637 187.709  0.00  0.00    +0.030 HD
ATOM     26  H   UNL     1     152.824 162.807 190.587  0.00  0.00    +0.027 HD
ATOM     27  H   UNL     1     152.176 164.362 190.160  0.00  0.00    +0.027 HD
ATOM     28  H   UNL     1     154.589 164.484 190.556  0.00  0.00    +0.027 HD
ATOM     29  H   UNL     1     154.893 163.207 189.405  0.00  0.00    +0.027 HD
ATOM     30  H   UNL     1     153.980 164.808 187.561  0.00  0.00    +0.029 HD
ATOM     31  H   UNL     1     155.550 165.072 188.240  0.00  0.00    +0.029 HD
ATOM     32  H   UNL     1     154.782 166.913 189.655  0.00  0.00    +0.064 HD
ATOM     33  H   UNL     1     152.487 166.550 190.261  0.00  0.00    +0.060 HD
ATOM     34  H   UNL     1     151.925 167.394 187.353  0.00  0.00    +0.069 HD
ATOM     35  H   UNL     1     147.986 165.626 188.897  0.00  0.00    +0.042 HD
ATOM     36  H   UNL     1     149.327 163.719 190.907  0.00  0.00    +0.057 HD
ATOM     37  H   UNL     1     149.577 164.214 187.889  0.00  0.00    +0.057 HD
ATOM     38  H   UNL     1     150.300 161.866 188.048  0.00  0.00    +0.031 HD
ATOM     39  H   UNL     1     150.609 161.981 189.772  0.00  0.00    +0.031 HD
ATOM     40  H   UNL     1     147.009 164.361 191.471  0.00  0.00    +0.065 HD
ATOM     41  H   UNL     1     144.674 167.047 192.517  0.00  0.00    +0.054 HD
ATOM     42  H   UNL     1     145.063 165.253 192.672  0.00  0.00    +0.054 HD
ATOM     43  H   UNL     1     146.287 167.259 189.263  0.00  0.00    +0.035 HD
ATOM     44  H   UNL     1     148.130 168.595 189.694  0.00  0.00    +0.037 HD
ATOM     45  H   UNL     1     147.301 169.147 192.294  0.00  0.00    +0.051 HD
ATOM     46  H   UNL     1     148.717 167.762 193.746  0.00  0.00    +0.149 HD
ENDROOT
BRANCH   1  47
ATOM     47  C   UNL     1     152.910 161.671 188.082  0.00  0.00    -0.062 C 
ATOM     48  H   UNL     1     153.848 161.557 188.636  0.00  0.00    +0.023 HD
ATOM     49  H   UNL     1     153.145 161.716 187.015  0.00  0.00    +0.023 HD
ATOM     50  H   UNL     1     152.311 160.768 188.242  0.00  0.00    +0.023 HD
ENDBRANCH   1  47
BRANCH  19  51
ATOM     51  C   UNL     1     145.412 168.702 190.501  0.00  0.00    -0.058 C 
ATOM     52  H   UNL     1     144.660 168.695 189.703  0.00  0.00    +0.024 HD
ATOM     53  H   UNL     1     144.876 168.677 191.453  0.00  0.00    +0.024 HD
ATOM     54  H   UNL     1     145.946 169.657 190.440  0.00  0.00    +0.024 HD
ENDBRANCH  19  51
BRANCH  21  55
ATOM     55  C   UNL     1     149.269 169.773 191.644  0.00  0.00    -0.009 C 
ATOM     56  H   UNL     1     150.223 169.470 192.094  0.00  0.00    +0.033 HD
ATOM     57  H   UNL     1     149.469 169.904 190.572  0.00  0.00    +0.033 HD
BRANCH  55  58
ATOM     58  C   UNL     1     148.860 171.111 192.218  0.00  0.00    -0.046 A 
ATOM     59  C   UNL     1     147.548 171.580 192.062  0.00  0.00    -0.059 A 
ATOM     60  C   UNL     1     147.167 172.805 192.611  0.00  0.00    -0.062 A 
ATOM     61  C   UNL     1     148.089 173.569 193.323  0.00  0.00    -0.062 A 
ATOM     62  C   UNL     1     149.394 173.110 193.487  0.00  0.00    -0.062 A 
ATOM     63  C   UNL     1     149.779 171.886 192.938  0.00  0.00    -0.059 A 
ATOM     64  H   UNL     1     146.816 170.997 191.508  0.00  0.00    +0.062 HD
ATOM     65  H   UNL     1     146.148 173.165 192.482  0.00  0.00    +0.062 HD
ATOM     66  H   UNL     1     147.791 174.523 193.749  0.00  0.00    +0.062 HD
ATOM     67  H   UNL     1     150.115 173.706 194.041  0.00  0.00    +0.062 HD
ATOM     68  H   UNL     1     150.801 171.540 193.076  0.00  0.00    +0.062 HD
ENDBRANCH  55  58
ENDBRANCH  21  55
BRANCH  16  69
ATOM     69  O   UNL     1     146.023 164.367 189.680  0.00  0.00    -0.387 OA
ATOM     70  H   UNL     1     145.987 163.435 189.954  0.00  0.00    +0.210 HD
ENDBRANCH  16  69
BRANCH   5  71
ATOM     71  O   UNL     1     154.440 167.373 187.700  0.00  0.00    -0.388 OA
ATOM     72  H   UNL     1     154.292 166.826 186.911  0.00  0.00    +0.210 HD
ENDBRANCH   5  71
TORSDOF 6
ENDMDL
MODEL 3
REMARK VINA RESULT:      -7.4      3.279      6.508
REMARK  Name = Cytochalasin B_conf1
REMARK  6 active torsions:
REMARK  status: ('A' for Active; 'I' for Inactive)
REMARK    1  A    between atoms: C_1  and  C_2
REMARK    2  A    between atoms: C_6  and  O_35
REMARK    3  A    between atoms: C_17  and  O_34
REMARK    4  A    between atoms: C_20  and  C_33
REMARK    5  A    between atoms: C_22  and  C_26
REMARK    6  A    between atoms: C_26  and  C_27
REMARK                            x       y       z     vdW  Elec       q    Type
REMARK                         _______ _______ _______ _____ _____    ______ ____
ROOT
ATOM      1  C   UNL     1     143.493 166.841 192.429  0.00  0.00    -0.040 C 
ATOM      2  C   UNL     1     143.901 166.166 191.099  0.00  0.00    -0.050 C 
ATOM      3  C   UNL     1     143.297 166.765 189.816  0.00  0.00    -0.050 C 
ATOM      4  C   UNL     1     143.543 168.258 189.561  0.00  0.00    -0.023 C 
ATOM      5  C   UNL     1     144.899 168.628 188.934  0.00  0.00    +0.074 C 
ATOM      6  C   UNL     1     146.078 168.210 189.756  0.00  0.00    -0.049 C 
ATOM      7  C   UNL     1     146.735 168.981 190.637  0.00  0.00    +0.021 C 
ATOM      8  C   UNL     1     147.804 168.488 191.527  0.00  0.00    +0.333 C 
ATOM      9  O   UNL     1     148.292 169.179 192.408  0.00  0.00    -0.246 OA
ATOM     10  O   UNL     1     148.116 167.201 191.258  0.00  0.00    -0.444 OA
ATOM     11  C   UNL     1     148.906 166.459 192.219  0.00  0.00    +0.202 C 
ATOM     12  C   UNL     1     148.196 166.304 193.590  0.00  0.00    +0.056 C 
ATOM     13  C   UNL     1     146.742 165.848 193.482  0.00  0.00    -0.078 C 
ATOM     14  C   UNL     1     145.685 166.648 193.703  0.00  0.00    -0.087 C 
ATOM     15  C   UNL     1     144.248 166.206 193.620  0.00  0.00    -0.032 C 
ATOM     16  C   UNL     1     149.008 165.364 194.526  0.00  0.00    +0.087 C 
ATOM     17  C   UNL     1     150.510 165.449 194.306  0.00  0.00    -0.045 C 
ATOM     18  C   UNL     1     151.308 164.399 194.563  0.00  0.00    -0.097 C 
ATOM     19  C   UNL     1     150.970 166.778 193.736  0.00  0.00    -0.012 C 
ATOM     20  C   UNL     1     150.375 166.996 192.314  0.00  0.00    +0.033 C 
ATOM     21  C   UNL     1     151.109 166.273 191.162  0.00  0.00    +0.035 C 
ATOM     22  N   UNL     1     150.367 165.056 190.985  0.00  0.00    -0.308 N 
ATOM     23  C   UNL     1     149.109 165.094 191.538  0.00  0.00    +0.258 C 
ATOM     24  O   UNL     1     148.313 164.174 191.449  0.00  0.00    -0.271 OA
ATOM     25  H   UNL     1     143.749 167.906 192.393  0.00  0.00    +0.030 HD
ATOM     26  H   UNL     1     143.603 165.109 191.137  0.00  0.00    +0.027 HD
ATOM     27  H   UNL     1     144.989 166.149 191.013  0.00  0.00    +0.027 HD
ATOM     28  H   UNL     1     143.661 166.190 188.956  0.00  0.00    +0.027 HD
ATOM     29  H   UNL     1     142.213 166.601 189.840  0.00  0.00    +0.027 HD
ATOM     30  H   UNL     1     143.371 168.850 190.468  0.00  0.00    +0.029 HD
ATOM     31  H   UNL     1     142.766 168.604 188.865  0.00  0.00    +0.029 HD
ATOM     32  H   UNL     1     144.990 168.177 187.940  0.00  0.00    +0.064 HD
ATOM     33  H   UNL     1     146.375 167.171 189.624  0.00  0.00    +0.060 HD
ATOM     34  H   UNL     1     146.451 170.016 190.801  0.00  0.00    +0.069 HD
ATOM     35  H   UNL     1     148.168 167.294 194.067  0.00  0.00    +0.042 HD
ATOM     36  H   UNL     1     146.571 164.809 193.202  0.00  0.00    +0.057 HD
ATOM     37  H   UNL     1     145.849 167.688 193.984  0.00  0.00    +0.057 HD
ATOM     38  H   UNL     1     143.770 166.502 194.562  0.00  0.00    +0.031 HD
ATOM     39  H   UNL     1     144.178 165.112 193.571  0.00  0.00    +0.031 HD
ATOM     40  H   UNL     1     148.671 164.326 194.409  0.00  0.00    +0.065 HD
ATOM     41  H   UNL     1     152.380 164.422 194.396  0.00  0.00    +0.054 HD
ATOM     42  H   UNL     1     150.905 163.465 194.948  0.00  0.00    +0.054 HD
ATOM     43  H   UNL     1     150.519 167.548 194.381  0.00  0.00    +0.035 HD
ATOM     44  H   UNL     1     150.426 168.074 192.126  0.00  0.00    +0.037 HD
ATOM     45  H   UNL     1     152.132 165.990 191.422  0.00  0.00    +0.051 HD
ATOM     46  H   UNL     1     150.688 164.251 190.462  0.00  0.00    +0.149 HD
ENDROOT
BRANCH   1  47
ATOM     47  C   UNL     1     141.983 166.727 192.664  0.00  0.00    -0.062 C 
ATOM     48  H   UNL     1     141.485 167.691 192.518  0.00  0.00    +0.023 HD
ATOM     49  H   UNL     1     141.764 166.377 193.677  0.00  0.00    +0.023 HD
ATOM     50  H   UNL     1     141.535 166.007 191.971  0.00  0.00    +0.023 HD
ENDBRANCH   1  47
BRANCH  19  51
ATOM     51  C   UNL     1     152.474 167.067 193.811  0.00  0.00    -0.058 C 
ATOM     52  H   UNL     1     152.800 167.124 194.856  0.00  0.00    +0.024 HD
ATOM     53  H   UNL     1     153.084 166.303 193.322  0.00  0.00    +0.024 HD
ATOM     54  H   UNL     1     152.703 168.031 193.343  0.00  0.00    +0.024 HD
ENDBRANCH  19  51
BRANCH  21  55
ATOM     55  C   UNL     1     151.128 167.119 189.871  0.00  0.00    -0.009 C 
ATOM     56  H   UNL     1     150.281 166.870 189.221  0.00  0.00    +0.033 HD
ATOM     57  H   UNL     1     151.015 168.182 190.122  0.00  0.00    +0.033 HD
BRANCH  55  58
ATOM     58  C   UNL     1     152.413 166.951 189.091  0.00  0.00    -0.046 A 
ATOM     59  C   UNL     1     153.555 166.423 189.708  0.00  0.00    -0.059 A 
ATOM     60  C   UNL     1     154.733 166.249 188.980  0.00  0.00    -0.062 A 
ATOM     61  C   UNL     1     154.778 166.595 187.631  0.00  0.00    -0.062 A 
ATOM     62  C   UNL     1     153.648 167.117 187.008  0.00  0.00    -0.062 A 
ATOM     63  C   UNL     1     152.469 167.295 187.734  0.00  0.00    -0.059 A 
ATOM     64  H   UNL     1     153.538 166.148 190.760  0.00  0.00    +0.062 HD
ATOM     65  H   UNL     1     155.617 165.842 189.466  0.00  0.00    +0.062 HD
ATOM     66  H   UNL     1     155.696 166.459 187.065  0.00  0.00    +0.062 HD
ATOM     67  H   UNL     1     153.682 167.389 185.956  0.00  0.00    +0.062 HD
ATOM     68  H   UNL     1     151.593 167.701 187.233  0.00  0.00    +0.062 HD
ENDBRANCH  55  58
ENDBRANCH  21  55
BRANCH  16  69
ATOM     69  O   UNL     1     148.760 165.742 195.881  0.00  0.00    -0.387 OA
ATOM     70  H   UNL     1     147.806 165.630 196.036  0.00  0.00    +0.210 HD
ENDBRANCH  16  69
BRANCH   5  71
ATOM     71  O   UNL     1     144.942 170.043 188.758  0.00  0.00    -0.388 OA
ATOM     72  H   UNL     1     144.063 170.388 188.990  0.00  0.00    +0.210 HD
ENDBRANCH   5  71
TORSDOF 6
ENDMDL
MODEL 4
REMARK VINA RESULT:      -7.3      2.757      5.558
REMARK  Name = Cytochalasin B_conf1
REMARK  6 active torsions:
REMARK  status: ('A' for Active; 'I' for Inactive)
REMARK    1  A    between atoms: C_1  and  C_2
REMARK    2  A    between atoms: C_6  and  O_35
REMARK    3  A    between atoms: C_17  and  O_34
REMARK    4  A    between atoms: C_20  and  C_33
REMARK    5  A    between atoms: C_22  and  C_26
REMARK    6  A    between atoms: C_26  and  C_27
REMARK                            x       y       z     vdW  Elec       q    Type
REMARK                         _______ _______ _______ _____ _____    ______ ____
ROOT
ATOM      1  C   UNL     1     147.459 167.926 185.122  0.00  0.00    -0.040 C 
ATOM      2  C   UNL     1     148.187 169.134 185.756  0.00  0.00    -0.050 C 
ATOM      3  C   UNL     1     147.313 170.352 186.102  0.00  0.00    -0.050 C 
ATOM      4  C   UNL     1     146.120 170.111 187.037  0.00  0.00    -0.023 C 
ATOM      5  C   UNL     1     146.432 170.075 188.544  0.00  0.00    +0.074 C 
ATOM      6  C   UNL     1     147.408 169.010 188.933  0.00  0.00    -0.049 C 
ATOM      7  C   UNL     1     147.096 167.784 189.382  0.00  0.00    +0.021 C 
ATOM      8  C   UNL     1     148.087 166.717 189.623  0.00  0.00    +0.333 C 
ATOM      9  O   UNL     1     147.762 165.574 189.906  0.00  0.00    -0.246 OA
ATOM     10  O   UNL     1     149.349 167.168 189.450  0.00  0.00    -0.444 OA
ATOM     11  C   UNL     1     150.425 166.205 189.334  0.00  0.00    +0.202 C 
ATOM     12  C   UNL     1     150.275 165.282 188.096  0.00  0.00    +0.056 C 
ATOM     13  C   UNL     1     149.957 166.032 186.803  0.00  0.00    -0.078 C 
ATOM     14  C   UNL     1     148.754 166.023 186.205  0.00  0.00    -0.087 C 
ATOM     15  C   UNL     1     148.434 166.742 184.921  0.00  0.00    -0.032 C 
ATOM     16  C   UNL     1     151.532 164.382 187.925  0.00  0.00    +0.087 C 
ATOM     17  C   UNL     1     152.181 164.001 189.246  0.00  0.00    -0.045 C 
ATOM     18  C   UNL     1     153.497 163.741 189.321  0.00  0.00    -0.097 C 
ATOM     19  C   UNL     1     151.221 164.004 190.422  0.00  0.00    -0.012 C 
ATOM     20  C   UNL     1     150.678 165.440 190.678  0.00  0.00    +0.033 C 
ATOM     21  C   UNL     1     151.615 166.380 191.469  0.00  0.00    +0.035 C 
ATOM     22  N   UNL     1     152.305 167.121 190.451  0.00  0.00    -0.308 N 
ATOM     23  C   UNL     1     151.683 167.084 189.225  0.00  0.00    +0.258 C 
ATOM     24  O   UNL     1     152.093 167.691 188.250  0.00  0.00    -0.271 OA
ATOM     25  H   UNL     1     146.654 167.593 185.787  0.00  0.00    +0.030 HD
ATOM     26  H   UNL     1     148.965 169.478 185.059  0.00  0.00    +0.027 HD
ATOM     27  H   UNL     1     148.729 168.812 186.647  0.00  0.00    +0.027 HD
ATOM     28  H   UNL     1     147.954 171.132 186.532  0.00  0.00    +0.027 HD
ATOM     29  H   UNL     1     146.929 170.774 185.166  0.00  0.00    +0.027 HD
ATOM     30  H   UNL     1     145.561 169.215 186.745  0.00  0.00    +0.029 HD
ATOM     31  H   UNL     1     145.409 170.934 186.879  0.00  0.00    +0.029 HD
ATOM     32  H   UNL     1     146.825 171.044 188.870  0.00  0.00    +0.064 HD
ATOM     33  H   UNL     1     148.453 169.281 188.791  0.00  0.00    +0.060 HD
ATOM     34  H   UNL     1     146.063 167.481 189.519  0.00  0.00    +0.069 HD
ATOM     35  H   UNL     1     149.419 164.615 188.276  0.00  0.00    +0.042 HD
ATOM     36  H   UNL     1     150.767 166.608 186.357  0.00  0.00    +0.057 HD
ATOM     37  H   UNL     1     147.940 165.449 186.646  0.00  0.00    +0.057 HD
ATOM     38  H   UNL     1     147.985 166.002 184.247  0.00  0.00    +0.031 HD
ATOM     39  H   UNL     1     149.351 167.089 184.428  0.00  0.00    +0.031 HD
ATOM     40  H   UNL     1     152.267 164.875 187.275  0.00  0.00    +0.065 HD
ATOM     41  H   UNL     1     153.993 163.488 190.252  0.00  0.00    +0.054 HD
ATOM     42  H   UNL     1     154.131 163.783 188.439  0.00  0.00    +0.054 HD
ATOM     43  H   UNL     1     150.358 163.399 190.100  0.00  0.00    +0.035 HD
ATOM     44  H   UNL     1     149.754 165.316 191.254  0.00  0.00    +0.037 HD
ATOM     45  H   UNL     1     152.372 165.840 192.042  0.00  0.00    +0.051 HD
ATOM     46  H   UNL     1     153.141 167.674 190.600  0.00  0.00    +0.149 HD
ENDROOT
BRANCH   1  47
ATOM     47  C   UNL     1     146.832 168.304 183.776  0.00  0.00    -0.062 C 
ATOM     48  H   UNL     1     146.527 169.355 183.761  0.00  0.00    +0.023 HD
ATOM     49  H   UNL     1     145.953 167.689 183.560  0.00  0.00    +0.023 HD
ATOM     50  H   UNL     1     147.543 168.146 182.959  0.00  0.00    +0.023 HD
ENDBRANCH   1  47
BRANCH  19  51
ATOM     51  C   UNL     1     151.707 163.306 191.698  0.00  0.00    -0.058 C 
ATOM     52  H   UNL     1     152.541 162.632 191.470  0.00  0.00    +0.024 HD
ATOM     53  H   UNL     1     152.053 164.004 192.465  0.00  0.00    +0.024 HD
ATOM     54  H   UNL     1     150.905 162.699 192.132  0.00  0.00    +0.024 HD
ENDBRANCH  19  51
BRANCH  21  55
ATOM     55  C   UNL     1     150.829 167.312 192.415  0.00  0.00    -0.009 C 
ATOM     56  H   UNL     1     151.366 168.255 192.580  0.00  0.00    +0.033 HD
ATOM     57  H   UNL     1     149.870 167.587 191.955  0.00  0.00    +0.033 HD
BRANCH  55  58
ATOM     58  C   UNL     1     150.545 166.668 193.754  0.00  0.00    -0.046 A 
ATOM     59  C   UNL     1     151.595 166.191 194.550  0.00  0.00    -0.059 A 
ATOM     60  C   UNL     1     151.332 165.617 195.794  0.00  0.00    -0.062 A 
ATOM     61  C   UNL     1     150.021 165.519 196.255  0.00  0.00    -0.062 A 
ATOM     62  C   UNL     1     148.970 165.993 195.473  0.00  0.00    -0.062 A 
ATOM     63  C   UNL     1     149.230 166.566 194.227  0.00  0.00    -0.059 A 
ATOM     64  H   UNL     1     152.625 166.259 194.205  0.00  0.00    +0.062 HD
ATOM     65  H   UNL     1     152.152 165.245 196.405  0.00  0.00    +0.062 HD
ATOM     66  H   UNL     1     149.817 165.070 197.224  0.00  0.00    +0.062 HD
ATOM     67  H   UNL     1     147.947 165.915 195.831  0.00  0.00    +0.062 HD
ATOM     68  H   UNL     1     148.400 166.934 193.628  0.00  0.00    +0.062 HD
ENDBRANCH  55  58
ENDBRANCH  21  55
BRANCH  16  69
ATOM     69  O   UNL     1     151.141 163.167 187.282  0.00  0.00    -0.387 OA
ATOM     70  H   UNL     1     150.439 163.395 186.650  0.00  0.00    +0.210 HD
ENDBRANCH  16  69
BRANCH   5  71
ATOM     71  O   UNL     1     145.212 169.859 189.250  0.00  0.00    -0.388 OA
ATOM     72  H   UNL     1     144.532 170.407 188.823  0.00  0.00    +0.210 HD
ENDBRANCH   5  71
TORSDOF 6
ENDMDL
MODEL 5
REMARK VINA RESULT:      -7.1      2.813      7.629
REMARK  Name = Cytochalasin B_conf1
REMARK  6 active torsions:
REMARK  status: ('A' for Active; 'I' for Inactive)
REMARK    1  A    between atoms: C_1  and  C_2
REMARK    2  A    between atoms: C_6  and  O_35
REMARK    3  A    between atoms: C_17  and  O_34
REMARK    4  A    between atoms: C_20  and  C_33
REMARK    5  A    between atoms: C_22  and  C_26
REMARK    6  A    between atoms: C_26  and  C_27
REMARK                            x       y       z     vdW  Elec       q    Type
REMARK                         _______ _______ _______ _____ _____    ______ ____
ROOT
ATOM      1  C   UNL     1     145.111 172.335 190.946  0.00  0.00    -0.040 C 
ATOM      2  C   UNL     1     146.374 172.610 190.099  0.00  0.00    -0.050 C 
ATOM      3  C   UNL     1     147.331 173.691 190.631  0.00  0.00    -0.050 C 
ATOM      4  C   UNL     1     147.877 173.500 192.052  0.00  0.00    -0.023 C 
ATOM      5  C   UNL     1     149.082 172.554 192.197  0.00  0.00    +0.074 C 
ATOM      6  C   UNL     1     148.812 171.158 191.731  0.00  0.00    -0.049 C 
ATOM      7  C   UNL     1     148.429 170.130 192.506  0.00  0.00    +0.021 C 
ATOM      8  C   UNL     1     148.039 168.806 191.984  0.00  0.00    +0.333 C 
ATOM      9  O   UNL     1     147.571 167.933 192.700  0.00  0.00    -0.246 OA
ATOM     10  O   UNL     1     148.233 168.724 190.649  0.00  0.00    -0.444 OA
ATOM     11  C   UNL     1     147.623 167.630 189.922  0.00  0.00    +0.202 C 
ATOM     12  C   UNL     1     146.073 167.653 189.989  0.00  0.00    +0.056 C 
ATOM     13  C   UNL     1     145.464 169.024 189.696  0.00  0.00    -0.078 C 
ATOM     14  C   UNL     1     144.917 169.818 190.631  0.00  0.00    -0.087 C 
ATOM     15  C   UNL     1     144.296 171.162 190.352  0.00  0.00    -0.032 C 
ATOM     16  C   UNL     1     145.467 166.562 189.061  0.00  0.00    +0.087 C 
ATOM     17  C   UNL     1     146.334 165.319 188.949  0.00  0.00    -0.045 C 
ATOM     18  C   UNL     1     146.307 164.553 187.845  0.00  0.00    -0.097 C 
ATOM     19  C   UNL     1     147.230 165.089 190.152  0.00  0.00    -0.012 C 
ATOM     20  C   UNL     1     148.261 166.247 190.292  0.00  0.00    +0.033 C 
ATOM     21  C   UNL     1     149.502 166.155 189.376  0.00  0.00    +0.035 C 
ATOM     22  N   UNL     1     149.160 166.966 188.242  0.00  0.00    -0.308 N 
ATOM     23  C   UNL     1     148.122 167.836 188.481  0.00  0.00    +0.258 C 
ATOM     24  O   UNL     1     147.720 168.639 187.655  0.00  0.00    -0.271 OA
ATOM     25  H   UNL     1     145.406 172.060 191.966  0.00  0.00    +0.030 HD
ATOM     26  H   UNL     1     146.059 172.920 189.092  0.00  0.00    +0.027 HD
ATOM     27  H   UNL     1     146.926 171.680 189.947  0.00  0.00    +0.027 HD
ATOM     28  H   UNL     1     148.172 173.789 189.933  0.00  0.00    +0.027 HD
ATOM     29  H   UNL     1     146.809 174.655 190.596  0.00  0.00    +0.027 HD
ATOM     30  H   UNL     1     147.082 173.210 192.748  0.00  0.00    +0.029 HD
ATOM     31  H   UNL     1     148.202 174.486 192.413  0.00  0.00    +0.029 HD
ATOM     32  H   UNL     1     149.940 172.947 191.641  0.00  0.00    +0.064 HD
ATOM     33  H   UNL     1     148.912 171.013 190.656  0.00  0.00    +0.060 HD
ATOM     34  H   UNL     1     148.306 170.249 193.577  0.00  0.00    +0.069 HD
ATOM     35  H   UNL     1     145.778 167.405 191.019  0.00  0.00    +0.042 HD
ATOM     36  H   UNL     1     145.490 169.362 188.661  0.00  0.00    +0.057 HD
ATOM     37  H   UNL     1     144.888 169.485 191.668  0.00  0.00    +0.057 HD
ATOM     38  H   UNL     1     143.293 171.145 190.795  0.00  0.00    +0.031 HD
ATOM     39  H   UNL     1     144.154 171.310 189.274  0.00  0.00    +0.031 HD
ATOM     40  H   UNL     1     145.275 166.976 188.062  0.00  0.00    +0.065 HD
ATOM     41  H   UNL     1     146.930 163.673 187.727  0.00  0.00    +0.054 HD
ATOM     42  H   UNL     1     145.656 164.793 187.008  0.00  0.00    +0.054 HD
ATOM     43  H   UNL     1     146.569 165.155 191.030  0.00  0.00    +0.035 HD
ATOM     44  H   UNL     1     148.603 166.224 191.333  0.00  0.00    +0.037 HD
ATOM     45  H   UNL     1     149.681 165.143 189.005  0.00  0.00    +0.051 HD
ATOM     46  H   UNL     1     149.651 166.964 187.357  0.00  0.00    +0.149 HD
ENDROOT
BRANCH   1  47
ATOM     47  C   UNL     1     144.222 173.580 191.032  0.00  0.00    -0.062 C 
ATOM     48  H   UNL     1     144.361 174.227 190.160  0.00  0.00    +0.023 HD
ATOM     49  H   UNL     1     144.441 174.163 191.931  0.00  0.00    +0.023 HD
ATOM     50  H   UNL     1     143.165 173.300 191.081  0.00  0.00    +0.023 HD
ENDBRANCH   1  47
BRANCH  19  51
ATOM     51  C   UNL     1     147.866 163.699 190.270  0.00  0.00    -0.058 C 
ATOM     52  H   UNL     1     148.892 163.714 189.882  0.00  0.00    +0.024 HD
ATOM     53  H   UNL     1     147.914 163.333 191.299  0.00  0.00    +0.024 HD
ATOM     54  H   UNL     1     147.303 162.968 189.679  0.00  0.00    +0.024 HD
ENDBRANCH  19  51
BRANCH  21  55
ATOM     55  C   UNL     1     150.776 166.671 190.080  0.00  0.00    -0.009 C 
ATOM     56  H   UNL     1     151.678 166.391 189.523  0.00  0.00    +0.033 HD
ATOM     57  H   UNL     1     150.766 167.768 190.108  0.00  0.00    +0.033 HD
BRANCH  55  58
ATOM     58  C   UNL     1     150.896 166.161 191.499  0.00  0.00    -0.046 A 
ATOM     59  C   UNL     1     151.006 167.059 192.569  0.00  0.00    -0.059 A 
ATOM     60  C   UNL     1     151.095 166.586 193.880  0.00  0.00    -0.062 A 
ATOM     61  C   UNL     1     151.069 165.216 194.132  0.00  0.00    -0.062 A 
ATOM     62  C   UNL     1     150.957 164.316 193.075  0.00  0.00    -0.062 A 
ATOM     63  C   UNL     1     150.869 164.785 191.763  0.00  0.00    -0.059 A 
ATOM     64  H   UNL     1     151.029 168.131 192.391  0.00  0.00    +0.062 HD
ATOM     65  H   UNL     1     151.184 167.289 194.706  0.00  0.00    +0.062 HD
ATOM     66  H   UNL     1     151.140 164.850 195.152  0.00  0.00    +0.062 HD
ATOM     67  H   UNL     1     150.938 163.247 193.270  0.00  0.00    +0.062 HD
ATOM     68  H   UNL     1     150.779 164.070 190.948  0.00  0.00    +0.062 HD
ENDBRANCH  55  58
ENDBRANCH  21  55
BRANCH  16  69
ATOM     69  O   UNL     1     144.209 166.151 189.600  0.00  0.00    -0.387 OA
ATOM     70  H   UNL     1     144.188 166.445 190.526  0.00  0.00    +0.210 HD
ENDBRANCH  16  69
BRANCH   5  71
ATOM     71  O   UNL     1     149.458 172.512 193.573  0.00  0.00    -0.388 OA
ATOM     72  H   UNL     1     150.200 171.889 193.649  0.00  0.00    +0.210 HD
ENDBRANCH   5  71
TORSDOF 6
ENDMDL
MODEL 6
REMARK VINA RESULT:      -7.1      2.626      5.506
REMARK  Name = Cytochalasin B_conf1
REMARK  6 active torsions:
REMARK  status: ('A' for Active; 'I' for Inactive)
REMARK    1  A    between atoms: C_1  and  C_2
REMARK    2  A    between atoms: C_6  and  O_35
REMARK    3  A    between atoms: C_17  and  O_34
REMARK    4  A    between atoms: C_20  and  C_33
REMARK    5  A    between atoms: C_22  and  C_26
REMARK    6  A    between atoms: C_26  and  C_27
REMARK                            x       y       z     vdW  Elec       q    Type
REMARK                         _______ _______ _______ _____ _____    ______ ____
ROOT
ATOM      1  C   UNL     1     154.083 164.788 185.277  0.00  0.00    -0.040 C 
ATOM      2  C   UNL     1     153.891 163.522 186.144  0.00  0.00    -0.050 C 
ATOM      3  C   UNL     1     155.173 162.820 186.622  0.00  0.00    -0.050 C 
ATOM      4  C   UNL     1     156.173 163.665 187.423  0.00  0.00    -0.023 C 
ATOM      5  C   UNL     1     155.871 163.839 188.922  0.00  0.00    +0.074 C 
ATOM      6  C   UNL     1     154.553 164.491 189.200  0.00  0.00    -0.049 C 
ATOM      7  C   UNL     1     154.355 165.800 189.425  0.00  0.00    +0.021 C 
ATOM      8  C   UNL     1     153.023 166.421 189.557  0.00  0.00    +0.333 C 
ATOM      9  O   UNL     1     152.870 167.631 189.630  0.00  0.00    -0.246 OA
ATOM     10  O   UNL     1     152.041 165.492 189.544  0.00  0.00    -0.444 OA
ATOM     11  C   UNL     1     150.673 165.926 189.348  0.00  0.00    +0.202 C 
ATOM     12  C   UNL     1     150.448 166.603 187.970  0.00  0.00    +0.056 C 
ATOM     13  C   UNL     1     151.038 165.823 186.796  0.00  0.00    -0.078 C 
ATOM     14  C   UNL     1     152.141 166.194 186.125  0.00  0.00    -0.087 C 
ATOM     15  C   UNL     1     152.721 165.445 184.955  0.00  0.00    -0.032 C 
ATOM     16  C   UNL     1     148.939 166.898 187.743  0.00  0.00    +0.087 C 
ATOM     17  C   UNL     1     148.190 167.221 189.025  0.00  0.00    -0.045 C 
ATOM     18  C   UNL     1     146.878 166.958 189.147  0.00  0.00    -0.097 C 
ATOM     19  C   UNL     1     149.071 167.797 190.119  0.00  0.00    -0.012 C 
ATOM     20  C   UNL     1     150.137 166.754 190.565  0.00  0.00    +0.033 C 
ATOM     21  C   UNL     1     149.645 165.676 191.558  0.00  0.00    +0.035 C 
ATOM     22  N   UNL     1     149.305 164.560 190.722  0.00  0.00    -0.308 N 
ATOM     23  C   UNL     1     149.864 164.622 189.467  0.00  0.00    +0.258 C 
ATOM     24  O   UNL     1     149.729 163.744 188.631  0.00  0.00    -0.271 OA
ATOM     25  H   UNL     1     154.691 165.518 185.824  0.00  0.00    +0.030 HD
ATOM     26  H   UNL     1     153.312 162.788 185.566  0.00  0.00    +0.027 HD
ATOM     27  H   UNL     1     153.264 163.758 187.006  0.00  0.00    +0.027 HD
ATOM     28  H   UNL     1     154.892 161.941 187.214  0.00  0.00    +0.027 HD
ATOM     29  H   UNL     1     155.695 162.425 185.741  0.00  0.00    +0.027 HD
ATOM     30  H   UNL     1     156.333 164.642 186.954  0.00  0.00    +0.029 HD
ATOM     31  H   UNL     1     157.151 163.170 187.351  0.00  0.00    +0.029 HD
ATOM     32  H   UNL     1     155.891 162.866 189.426  0.00  0.00    +0.064 HD
ATOM     33  H   UNL     1     153.700 163.814 189.174  0.00  0.00    +0.060 HD
ATOM     34  H   UNL     1     155.184 166.499 189.441  0.00  0.00    +0.069 HD
ATOM     35  H   UNL     1     150.971 167.571 187.983  0.00  0.00    +0.042 HD
ATOM     36  H   UNL     1     150.523 164.909 186.504  0.00  0.00    +0.057 HD
ATOM     37  H   UNL     1     152.661 167.107 186.412  0.00  0.00    +0.057 HD
ATOM     38  H   UNL     1     152.842 166.171 184.141  0.00  0.00    +0.031 HD
ATOM     39  H   UNL     1     152.016 164.688 184.587  0.00  0.00    +0.031 HD
ATOM     40  H   UNL     1     148.459 166.054 187.231  0.00  0.00    +0.065 HD
ATOM     41  H   UNL     1     146.321 167.157 190.056  0.00  0.00    +0.054 HD
ATOM     42  H   UNL     1     146.313 166.520 188.328  0.00  0.00    +0.054 HD
ATOM     43  H   UNL     1     149.626 168.623 189.647  0.00  0.00    +0.035 HD
ATOM     44  H   UNL     1     150.936 167.325 191.051  0.00  0.00    +0.037 HD
ATOM     45  H   UNL     1     148.736 165.970 192.087  0.00  0.00    +0.051 HD
ATOM     46  H   UNL     1     148.756 163.761 191.014  0.00  0.00    +0.149 HD
ENDROOT
BRANCH   1  47
ATOM     47  C   UNL     1     154.811 164.455 183.970  0.00  0.00    -0.062 C 
ATOM     48  H   UNL     1     155.849 164.801 183.994  0.00  0.00    +0.023 HD
ATOM     49  H   UNL     1     154.316 164.917 183.111  0.00  0.00    +0.023 HD
ATOM     50  H   UNL     1     154.818 163.374 183.794  0.00  0.00    +0.023 HD
ENDBRANCH   1  47
BRANCH  19  51
ATOM     51  C   UNL     1     148.348 168.461 191.296  0.00  0.00    -0.058 C 
ATOM     52  H   UNL     1     149.074 168.879 192.004  0.00  0.00    +0.024 HD
ATOM     53  H   UNL     1     147.686 169.276 190.992  0.00  0.00    +0.024 HD
ATOM     54  H   UNL     1     147.747 167.725 191.841  0.00  0.00    +0.024 HD
ENDBRANCH  19  51
BRANCH  21  55
ATOM     55  C   UNL     1     150.734 165.304 192.587  0.00  0.00    -0.009 C 
ATOM     56  H   UNL     1     150.968 164.232 192.547  0.00  0.00    +0.033 HD
ATOM     57  H   UNL     1     151.669 165.826 192.345  0.00  0.00    +0.033 HD
BRANCH  55  58
ATOM     58  C   UNL     1     150.340 165.668 194.001  0.00  0.00    -0.046 A 
ATOM     59  C   UNL     1     148.995 165.879 194.331  0.00  0.00    -0.059 A 
ATOM     60  C   UNL     1     148.631 166.193 195.642  0.00  0.00    -0.062 A 
ATOM     61  C   UNL     1     149.606 166.295 196.632  0.00  0.00    -0.062 A 
ATOM     62  C   UNL     1     150.946 166.084 196.314  0.00  0.00    -0.062 A 
ATOM     63  C   UNL     1     151.313 165.771 195.005  0.00  0.00    -0.059 A 
ATOM     64  H   UNL     1     148.221 165.804 193.571  0.00  0.00    +0.062 HD
ATOM     65  H   UNL     1     147.585 166.359 195.891  0.00  0.00    +0.062 HD
ATOM     66  H   UNL     1     149.322 166.541 197.652  0.00  0.00    +0.062 HD
ATOM     67  H   UNL     1     151.708 166.165 197.086  0.00  0.00    +0.062 HD
ATOM     68  H   UNL     1     152.363 165.606 194.772  0.00  0.00    +0.062 HD
ENDBRANCH  55  58
ENDBRANCH  21  55
BRANCH  16  69
ATOM     69  O   UNL     1     148.819 168.038 186.888  0.00  0.00    -0.387 OA
ATOM     70  H   UNL     1     148.348 168.722 187.393  0.00  0.00    +0.210 HD
ENDBRANCH  16  69
BRANCH   5  71
ATOM     71  O   UNL     1     156.905 164.632 189.501  0.00  0.00    -0.388 OA
ATOM     72  H   UNL     1     157.007 164.343 190.423  0.00  0.00    +0.210 HD
ENDBRANCH   5  71
TORSDOF 6
ENDMDL
MODEL 7
REMARK VINA RESULT:      -7.0      4.463      6.313
REMARK  Name = Cytochalasin B_conf1
REMARK  6 active torsions:
REMARK  status: ('A' for Active; 'I' for Inactive)
REMARK    1  A    between atoms: C_1  and  C_2
REMARK    2  A    between atoms: C_6  and  O_35
REMARK    3  A    between atoms: C_17  and  O_34
REMARK    4  A    between atoms: C_20  and  C_33
REMARK    5  A    between atoms: C_22  and  C_26
REMARK    6  A    between atoms: C_26  and  C_27
REMARK                            x       y       z     vdW  Elec       q    Type
REMARK                         _______ _______ _______ _____ _____    ______ ____
ROOT
ATOM      1  C   UNL     1     142.029 165.211 187.868  0.00  0.00    -0.040 C 
ATOM      2  C   UNL     1     142.364 166.475 187.044  0.00  0.00    -0.050 C 
ATOM      3  C   UNL     1     141.200 167.446 186.780  0.00  0.00    -0.050 C 
ATOM      4  C   UNL     1     140.457 167.993 188.005  0.00  0.00    -0.023 C 
ATOM      5  C   UNL     1     141.112 169.187 188.722  0.00  0.00    +0.074 C 
ATOM      6  C   UNL     1     142.486 168.900 189.240  0.00  0.00    -0.049 C 
ATOM      7  C   UNL     1     142.790 168.507 190.487  0.00  0.00    +0.021 C 
ATOM      8  C   UNL     1     144.142 168.101 190.917  0.00  0.00    +0.333 C 
ATOM      9  O   UNL     1     144.362 167.624 192.020  0.00  0.00    -0.246 OA
ATOM     10  O   UNL     1     145.050 168.290 189.934  0.00  0.00    -0.444 OA
ATOM     11  C   UNL     1     146.352 167.666 190.057  0.00  0.00    +0.202 C 
ATOM     12  C   UNL     1     146.275 166.116 190.086  0.00  0.00    +0.056 C 
ATOM     13  C   UNL     1     145.390 165.523 188.990  0.00  0.00    -0.078 C 
ATOM     14  C   UNL     1     144.178 164.987 189.211  0.00  0.00    -0.087 C 
ATOM     15  C   UNL     1     143.305 164.381 188.143  0.00  0.00    -0.032 C 
ATOM     16  C   UNL     1     147.700 165.495 190.051  0.00  0.00    +0.087 C 
ATOM     17  C   UNL     1     148.744 166.347 190.753  0.00  0.00    -0.045 C 
ATOM     18  C   UNL     1     150.035 166.309 190.381  0.00  0.00    -0.097 C 
ATOM     19  C   UNL     1     148.173 167.244 191.837  0.00  0.00    -0.012 C 
ATOM     20  C   UNL     1     147.197 168.288 191.220  0.00  0.00    +0.033 C 
ATOM     21  C   UNL     1     147.860 169.526 190.575  0.00  0.00    +0.035 C 
ATOM     22  N   UNL     1     147.942 169.191 189.181  0.00  0.00    -0.308 N 
ATOM     23  C   UNL     1     147.106 168.164 188.812  0.00  0.00    +0.258 C 
ATOM     24  O   UNL     1     147.001 167.769 187.662  0.00  0.00    -0.271 OA
ATOM     25  H   UNL     1     141.602 165.505 188.834  0.00  0.00    +0.030 HD
ATOM     26  H   UNL     1     142.756 166.161 186.066  0.00  0.00    +0.027 HD
ATOM     27  H   UNL     1     143.187 167.016 187.516  0.00  0.00    +0.027 HD
ATOM     28  H   UNL     1     141.573 168.286 186.182  0.00  0.00    +0.027 HD
ATOM     29  H   UNL     1     140.469 166.935 186.141  0.00  0.00    +0.027 HD
ATOM     30  H   UNL     1     140.234 167.196 188.724  0.00  0.00    +0.029 HD
ATOM     31  H   UNL     1     139.468 168.330 187.665  0.00  0.00    +0.029 HD
ATOM     32  H   UNL     1     141.167 170.048 188.047  0.00  0.00    +0.064 HD
ATOM     33  H   UNL     1     143.277 168.996 188.498  0.00  0.00    +0.060 HD
ATOM     34  H   UNL     1     142.020 168.388 191.243  0.00  0.00    +0.069 HD
ATOM     35  H   UNL     1     145.814 165.821 191.039  0.00  0.00    +0.042 HD
ATOM     36  H   UNL     1     145.781 165.550 187.974  0.00  0.00    +0.057 HD
ATOM     37  H   UNL     1     143.782 164.957 190.225  0.00  0.00    +0.057 HD
ATOM     38  H   UNL     1     143.028 163.378 188.492  0.00  0.00    +0.031 HD
ATOM     39  H   UNL     1     143.869 164.238 187.213  0.00  0.00    +0.031 HD
ATOM     40  H   UNL     1     148.008 165.305 189.014  0.00  0.00    +0.065 HD
ATOM     41  H   UNL     1     150.799 166.922 190.848  0.00  0.00    +0.054 HD
ATOM     42  H   UNL     1     150.370 165.659 189.576  0.00  0.00    +0.054 HD
ATOM     43  H   UNL     1     147.560 166.586 192.472  0.00  0.00    +0.035 HD
ATOM     44  H   UNL     1     146.561 168.632 192.044  0.00  0.00    +0.037 HD
ATOM     45  H   UNL     1     148.880 169.692 190.926  0.00  0.00    +0.051 HD
ATOM     46  H   UNL     1     148.509 169.680 188.499  0.00  0.00    +0.149 HD
ENDROOT
BRANCH   1  47
ATOM     47  C   UNL     1     141.000 164.337 187.144  0.00  0.00    -0.062 C 
ATOM     48  H   UNL     1     140.009 164.803 187.150  0.00  0.00    +0.023 HD
ATOM     49  H   UNL     1     140.918 163.351 187.610  0.00  0.00    +0.023 HD
ATOM     50  H   UNL     1     141.292 164.177 186.101  0.00  0.00    +0.023 HD
ENDBRANCH   1  47
BRANCH  19  51
ATOM     51  C   UNL     1     149.183 167.864 192.810  0.00  0.00    -0.058 C 
ATOM     52  H   UNL     1     148.726 168.002 193.797  0.00  0.00    +0.024 HD
ATOM     53  H   UNL     1     150.078 167.253 192.949  0.00  0.00    +0.024 HD
ATOM     54  H   UNL     1     149.500 168.851 192.455  0.00  0.00    +0.024 HD
ENDBRANCH  19  51
BRANCH  21  55
ATOM     55  C   UNL     1     147.029 170.807 190.803  0.00  0.00    -0.009 C 
ATOM     56  H   UNL     1     146.924 171.383 189.874  0.00  0.00    +0.033 HD
ATOM     57  H   UNL     1     146.009 170.539 191.108  0.00  0.00    +0.033 HD
BRANCH  55  58
ATOM     58  C   UNL     1     147.624 171.699 191.869  0.00  0.00    -0.046 A 
ATOM     59  C   UNL     1     146.838 172.668 192.506  0.00  0.00    -0.059 A 
ATOM     60  C   UNL     1     147.385 173.475 193.505  0.00  0.00    -0.062 A 
ATOM     61  C   UNL     1     148.718 173.316 193.880  0.00  0.00    -0.062 A 
ATOM     62  C   UNL     1     149.506 172.353 193.255  0.00  0.00    -0.062 A 
ATOM     63  C   UNL     1     148.963 171.546 192.255  0.00  0.00    -0.059 A 
ATOM     64  H   UNL     1     145.796 172.806 192.225  0.00  0.00    +0.062 HD
ATOM     65  H   UNL     1     146.770 174.228 193.992  0.00  0.00    +0.062 HD
ATOM     66  H   UNL     1     149.142 173.945 194.658  0.00  0.00    +0.062 HD
ATOM     67  H   UNL     1     150.547 172.229 193.546  0.00  0.00    +0.062 HD
ATOM     68  H   UNL     1     149.591 170.796 191.778  0.00  0.00    +0.062 HD
ENDBRANCH  55  58
ENDBRANCH  21  55
BRANCH  16  69
ATOM     69  O   UNL     1     147.666 164.234 190.722  0.00  0.00    -0.387 OA
ATOM     70  H   UNL     1     148.534 163.817 190.587  0.00  0.00    +0.210 HD
ENDBRANCH  16  69
BRANCH   5  71
ATOM     71  O   UNL     1     140.280 169.566 189.817  0.00  0.00    -0.388 OA
ATOM     72  H   UNL     1     140.829 170.083 190.430  0.00  0.00    +0.210 HD
ENDBRANCH   5  71
TORSDOF 6
ENDMDL
MODEL 8
REMARK VINA RESULT:      -6.7      3.224      6.995
REMARK  Name = Cytochalasin B_conf1
REMARK  6 active torsions:
REMARK  status: ('A' for Active; 'I' for Inactive)
REMARK    1  A    between atoms: C_1  and  C_2
REMARK    2  A    between atoms: C_6  and  O_35
REMARK    3  A    between atoms: C_17  and  O_34
REMARK    4  A    between atoms: C_20  and  C_33
REMARK    5  A    between atoms: C_22  and  C_26
REMARK    6  A    between atoms: C_26  and  C_27
REMARK                            x       y       z     vdW  Elec       q    Type
REMARK                         _______ _______ _______ _____ _____    ______ ____
ROOT
ATOM      1  C   UNL     1     148.631 172.923 192.066  0.00  0.00    -0.040 C 
ATOM      2  C   UNL     1     147.341 172.474 192.791  0.00  0.00    -0.050 C 
ATOM      3  C   UNL     1     146.070 173.286 192.486  0.00  0.00    -0.050 C 
ATOM      4  C   UNL     1     145.646 173.392 191.015  0.00  0.00    -0.023 C 
ATOM      5  C   UNL     1     144.858 172.200 190.445  0.00  0.00    +0.074 C 
ATOM      6  C   UNL     1     145.600 170.902 190.507  0.00  0.00    -0.049 C 
ATOM      7  C   UNL     1     146.334 170.368 189.517  0.00  0.00    +0.021 C 
ATOM      8  C   UNL     1     147.162 169.155 189.667  0.00  0.00    +0.333 C 
ATOM      9  O   UNL     1     147.919 168.768 188.790  0.00  0.00    -0.246 OA
ATOM     10  O   UNL     1     146.992 168.589 190.882  0.00  0.00    -0.444 OA
ATOM     11  C   UNL     1     147.941 167.587 191.324  0.00  0.00    +0.202 C 
ATOM     12  C   UNL     1     149.383 168.145 191.463  0.00  0.00    +0.056 C 
ATOM     13  C   UNL     1     149.460 169.468 192.224  0.00  0.00    -0.078 C 
ATOM     14  C   UNL     1     149.702 170.655 191.643  0.00  0.00    -0.087 C 
ATOM     15  C   UNL     1     149.801 171.963 192.383  0.00  0.00    -0.032 C 
ATOM     16  C   UNL     1     150.324 167.081 192.095  0.00  0.00    +0.087 C 
ATOM     17  C   UNL     1     149.954 165.655 191.723  0.00  0.00    -0.045 C 
ATOM     18  C   UNL     1     150.236 164.629 192.544  0.00  0.00    -0.097 C 
ATOM     19  C   UNL     1     149.214 165.540 190.403  0.00  0.00    -0.012 C 
ATOM     20  C   UNL     1     147.841 166.269 190.483  0.00  0.00    +0.033 C 
ATOM     21  C   UNL     1     146.702 165.480 191.166  0.00  0.00    +0.035 C 
ATOM     22  N   UNL     1     146.717 165.948 192.523  0.00  0.00    -0.308 N 
ATOM     23  C   UNL     1     147.382 167.140 192.686  0.00  0.00    +0.258 C 
ATOM     24  O   UNL     1     147.461 167.720 193.757  0.00  0.00    -0.271 OA
ATOM     25  H   UNL     1     148.466 172.910 190.982  0.00  0.00    +0.030 HD
ATOM     26  H   UNL     1     147.512 172.530 193.875  0.00  0.00    +0.027 HD
ATOM     27  H   UNL     1     147.153 171.418 192.589  0.00  0.00    +0.027 HD
ATOM     28  H   UNL     1     145.240 172.868 193.069  0.00  0.00    +0.027 HD
ATOM     29  H   UNL     1     146.214 174.303 192.871  0.00  0.00    +0.027 HD
ATOM     30  H   UNL     1     146.502 173.624 190.371  0.00  0.00    +0.029 HD
ATOM     31  H   UNL     1     144.997 174.275 190.925  0.00  0.00    +0.029 HD
ATOM     32  H   UNL     1     143.909 172.085 190.980  0.00  0.00    +0.064 HD
ATOM     33  H   UNL     1     145.543 170.395 191.468  0.00  0.00    +0.060 HD
ATOM     34  H   UNL     1     146.421 170.859 188.554  0.00  0.00    +0.069 HD
ATOM     35  H   UNL     1     149.760 168.355 190.452  0.00  0.00    +0.042 HD
ATOM     36  H   UNL     1     149.302 169.427 193.300  0.00  0.00    +0.057 HD
ATOM     37  H   UNL     1     149.861 170.703 190.567  0.00  0.00    +0.057 HD
ATOM     38  H   UNL     1     150.751 172.424 192.086  0.00  0.00    +0.031 HD
ATOM     39  H   UNL     1     149.867 171.795 193.466  0.00  0.00    +0.031 HD
ATOM     40  H   UNL     1     150.343 167.190 193.187  0.00  0.00    +0.065 HD
ATOM     41  H   UNL     1     149.965 163.603 192.316  0.00  0.00    +0.054 HD
ATOM     42  H   UNL     1     150.748 164.788 193.490  0.00  0.00    +0.054 HD
ATOM     43  H   UNL     1     149.820 166.101 189.675  0.00  0.00    +0.035 HD
ATOM     44  H   UNL     1     147.544 166.470 189.448  0.00  0.00    +0.037 HD
ATOM     45  H   UNL     1     146.889 164.404 191.195  0.00  0.00    +0.051 HD
ATOM     46  H   UNL     1     146.248 165.497 193.299  0.00  0.00    +0.149 HD
ENDROOT
BRANCH   1  47
ATOM     47  C   UNL     1     149.020 174.350 192.466  0.00  0.00    -0.062 C 
ATOM     48  H   UNL     1     149.738 174.779 191.760  0.00  0.00    +0.023 HD
ATOM     49  H   UNL     1     149.465 174.375 193.465  0.00  0.00    +0.023 HD
ATOM     50  H   UNL     1     148.139 175.001 192.490  0.00  0.00    +0.023 HD
ENDBRANCH   1  47
BRANCH  19  51
ATOM     51  C   UNL     1     149.115 164.134 189.798  0.00  0.00    -0.058 C 
ATOM     52  H   UNL     1     149.025 164.194 188.707  0.00  0.00    +0.024 HD
ATOM     53  H   UNL     1     149.984 163.508 190.018  0.00  0.00    +0.024 HD
ATOM     54  H   UNL     1     148.224 163.618 190.172  0.00  0.00    +0.024 HD
ENDBRANCH  19  51
BRANCH  21  55
ATOM     55  C   UNL     1     145.338 165.740 190.491  0.00  0.00    -0.009 C 
ATOM     56  H   UNL     1     145.458 166.296 189.553  0.00  0.00    +0.033 HD
ATOM     57  H   UNL     1     144.870 164.785 190.218  0.00  0.00    +0.033 HD
BRANCH  55  58
ATOM     58  C   UNL     1     144.385 166.495 191.391  0.00  0.00    -0.046 A 
ATOM     59  C   UNL     1     143.799 167.693 190.960  0.00  0.00    -0.059 A 
ATOM     60  C   UNL     1     142.903 168.376 191.784  0.00  0.00    -0.062 A 
ATOM     61  C   UNL     1     142.581 167.866 193.041  0.00  0.00    -0.062 A 
ATOM     62  C   UNL     1     143.156 166.675 193.476  0.00  0.00    -0.062 A 
ATOM     63  C   UNL     1     144.053 165.990 192.656  0.00  0.00    -0.059 A 
ATOM     64  H   UNL     1     144.040 168.105 189.983  0.00  0.00    +0.062 HD
ATOM     65  H   UNL     1     142.456 169.308 191.445  0.00  0.00    +0.062 HD
ATOM     66  H   UNL     1     141.884 168.400 193.681  0.00  0.00    +0.062 HD
ATOM     67  H   UNL     1     142.906 166.277 194.457  0.00  0.00    +0.062 HD
ATOM     68  H   UNL     1     144.492 165.059 193.008  0.00  0.00    +0.062 HD
ENDBRANCH  55  58
ENDBRANCH  21  55
BRANCH  16  69
ATOM     69  O   UNL     1     151.653 167.308 191.622  0.00  0.00    -0.387 OA
ATOM     70  H   UNL     1     151.823 168.262 191.701  0.00  0.00    +0.210 HD
ENDBRANCH  16  69
BRANCH   5  71
ATOM     71  O   UNL     1     144.540 172.481 189.083  0.00  0.00    -0.388 OA
ATOM     72  H   UNL     1     144.332 171.633 188.656  0.00  0.00    +0.210 HD
ENDBRANCH   5  71
TORSDOF 6
ENDMDL
MODEL 9
REMARK VINA RESULT:      -6.7      2.736      7.292
REMARK  Name = Cytochalasin B_conf1
REMARK  6 active torsions:
REMARK  status: ('A' for Active; 'I' for Inactive)
REMARK    1  A    between atoms: C_1  and  C_2
REMARK    2  A    between atoms: C_6  and  O_35
REMARK    3  A    between atoms: C_17  and  O_34
REMARK    4  A    between atoms: C_20  and  C_33
REMARK    5  A    between atoms: C_22  and  C_26
REMARK    6  A    between atoms: C_26  and  C_27
REMARK                            x       y       z     vdW  Elec       q    Type
REMARK                         _______ _______ _______ _____ _____    ______ ____
ROOT
ATOM      1  C   UNL     1     148.649 172.824 191.932  0.00  0.00    -0.040 C 
ATOM      2  C   UNL     1     147.327 172.362 192.587  0.00  0.00    -0.050 C 
ATOM      3  C   UNL     1     146.049 173.086 192.131  0.00  0.00    -0.050 C 
ATOM      4  C   UNL     1     145.739 173.071 190.628  0.00  0.00    -0.023 C 
ATOM      5  C   UNL     1     145.053 171.805 190.086  0.00  0.00    +0.074 C 
ATOM      6  C   UNL     1     145.845 170.553 190.297  0.00  0.00    -0.049 C 
ATOM      7  C   UNL     1     146.677 169.990 189.406  0.00  0.00    +0.021 C 
ATOM      8  C   UNL     1     147.544 168.833 189.705  0.00  0.00    +0.333 C 
ATOM      9  O   UNL     1     148.384 168.425 188.918  0.00  0.00    -0.246 OA
ATOM     10  O   UNL     1     147.304 168.343 190.941  0.00  0.00    -0.444 OA
ATOM     11  C   UNL     1     148.258 167.422 191.524  0.00  0.00    +0.202 C 
ATOM     12  C   UNL     1     149.658 168.059 191.732  0.00  0.00    +0.056 C 
ATOM     13  C   UNL     1     149.616 169.433 192.399  0.00  0.00    -0.078 C 
ATOM     14  C   UNL     1     149.850 170.589 191.756  0.00  0.00    -0.087 C 
ATOM     15  C   UNL     1     149.832 171.947 192.406  0.00  0.00    -0.032 C 
ATOM     16  C   UNL     1     150.593 167.088 192.508  0.00  0.00    +0.087 C 
ATOM     17  C   UNL     1     150.317 165.624 192.212  0.00  0.00    -0.045 C 
ATOM     18  C   UNL     1     150.579 164.671 193.123  0.00  0.00    -0.097 C 
ATOM     19  C   UNL     1     149.690 165.383 190.851  0.00  0.00    -0.012 C 
ATOM     20  C   UNL     1     148.284 166.047 190.774  0.00  0.00    +0.033 C 
ATOM     21  C   UNL     1     147.130 165.249 191.423  0.00  0.00    +0.035 C 
ATOM     22  N   UNL     1     147.018 165.809 192.741  0.00  0.00    -0.308 N 
ATOM     23  C   UNL     1     147.613 167.041 192.868  0.00  0.00    +0.258 C 
ATOM     24  O   UNL     1     147.582 167.695 193.898  0.00  0.00    -0.271 OA
ATOM     25  H   UNL     1     148.572 172.729 190.843  0.00  0.00    +0.030 HD
ATOM     26  H   UNL     1     147.410 172.499 193.675  0.00  0.00    +0.027 HD
ATOM     27  H   UNL     1     147.203 171.286 192.448  0.00  0.00    +0.027 HD
ATOM     28  H   UNL     1     145.195 172.668 192.677  0.00  0.00    +0.027 HD
ATOM     29  H   UNL     1     146.117 174.133 192.451  0.00  0.00    +0.027 HD
ATOM     30  H   UNL     1     146.632 173.301 190.035  0.00  0.00    +0.029 HD
ATOM     31  H   UNL     1     145.061 173.912 190.425  0.00  0.00    +0.029 HD
ATOM     32  H   UNL     1     144.071 171.679 190.554  0.00  0.00    +0.064 HD
ATOM     33  H   UNL     1     145.734 170.110 191.285  0.00  0.00    +0.060 HD
ATOM     34  H   UNL     1     146.818 170.418 188.419  0.00  0.00    +0.069 HD
ATOM     35  H   UNL     1     150.105 168.218 190.740  0.00  0.00    +0.042 HD
ATOM     36  H   UNL     1     149.376 169.457 193.461  0.00  0.00    +0.057 HD
ATOM     37  H   UNL     1     150.092 170.572 190.693  0.00  0.00    +0.057 HD
ATOM     38  H   UNL     1     150.781 172.434 192.149  0.00  0.00    +0.031 HD
ATOM     39  H   UNL     1     149.820 171.856 193.499  0.00  0.00    +0.031 HD
ATOM     40  H   UNL     1     150.521 167.272 193.587  0.00  0.00    +0.065 HD
ATOM     41  H   UNL     1     150.372 163.621 192.949  0.00  0.00    +0.054 HD
ATOM     42  H   UNL     1     151.007 164.920 194.091  0.00  0.00    +0.054 HD
ATOM     43  H   UNL     1     150.326 165.923 190.132  0.00  0.00    +0.035 HD
ATOM     44  H   UNL     1     148.061 166.162 189.708  0.00  0.00    +0.037 HD
ATOM     45  H   UNL     1     147.362 164.189 191.543  0.00  0.00    +0.051 HD
ATOM     46  H   UNL     1     146.508 165.389 193.509  0.00  0.00    +0.149 HD
ENDROOT
BRANCH   1  47
ATOM     47  C   UNL     1     148.942 174.292 192.258  0.00  0.00    -0.062 C 
ATOM     48  H   UNL     1     149.507 174.772 191.452  0.00  0.00    +0.023 HD
ATOM     49  H   UNL     1     149.516 174.387 193.184  0.00  0.00    +0.023 HD
ATOM     50  H   UNL     1     148.011 174.852 192.397  0.00  0.00    +0.023 HD
ENDBRANCH   1  47
BRANCH  19  51
ATOM     51  C   UNL     1     149.702 163.936 190.342  0.00  0.00    -0.058 C 
ATOM     52  H   UNL     1     150.588 163.408 190.714  0.00  0.00    +0.024 HD
ATOM     53  H   UNL     1     148.827 163.361 190.656  0.00  0.00    +0.024 HD
ATOM     54  H   UNL     1     149.744 163.915 189.248  0.00  0.00    +0.024 HD
ENDBRANCH  19  51
BRANCH  21  55
ATOM     55  C   UNL     1     145.813 165.395 190.631  0.00  0.00    -0.009 C 
ATOM     56  H   UNL     1     145.008 164.807 191.087  0.00  0.00    +0.033 HD
ATOM     57  H   UNL     1     145.477 166.440 190.658  0.00  0.00    +0.033 HD
BRANCH  55  58
ATOM     58  C   UNL     1     145.964 164.983 189.183  0.00  0.00    -0.046 A 
ATOM     59  C   UNL     1     145.820 165.926 188.157  0.00  0.00    -0.059 A 
ATOM     60  C   UNL     1     145.981 165.547 186.823  0.00  0.00    -0.062 A 
ATOM     61  C   UNL     1     146.291 164.227 186.504  0.00  0.00    -0.062 A 
ATOM     62  C   UNL     1     146.439 163.283 187.518  0.00  0.00    -0.062 A 
ATOM     63  C   UNL     1     146.278 163.658 188.852  0.00  0.00    -0.059 A 
ATOM     64  H   UNL     1     145.577 166.961 188.388  0.00  0.00    +0.062 HD
ATOM     65  H   UNL     1     145.864 166.284 186.032  0.00  0.00    +0.062 HD
ATOM     66  H   UNL     1     146.415 163.933 185.466  0.00  0.00    +0.062 HD
ATOM     67  H   UNL     1     146.680 162.252 187.270  0.00  0.00    +0.062 HD
ATOM     68  H   UNL     1     146.399 162.910 189.633  0.00  0.00    +0.062 HD
ENDBRANCH  55  58
ENDBRANCH  21  55
BRANCH  16  69
ATOM     69  O   UNL     1     151.944 167.349 192.121  0.00  0.00    -0.387 OA
ATOM     70  H   UNL     1     151.908 167.884 191.310  0.00  0.00    +0.210 HD
ENDBRANCH  16  69
BRANCH   5  71
ATOM     71  O   UNL     1     144.831 171.977 188.687  0.00  0.00    -0.388 OA
ATOM     72  H   UNL     1     144.523 171.123 188.339  0.00  0.00    +0.210 HD
ENDBRANCH   5  71
TORSDOF 6
ENDMDL
MODEL 10
REMARK VINA RESULT:      -6.7      6.162      9.882
REMARK  Name = Cytochalasin B_conf1
REMARK  6 active torsions:
REMARK  status: ('A' for Active; 'I' for Inactive)
REMARK    1  A    between atoms: C_1  and  C_2
REMARK    2  A    between atoms: C_6  and  O_35
REMARK    3  A    between atoms: C_17  and  O_34
REMARK    4  A    between atoms: C_20  and  C_33
REMARK    5  A    between atoms: C_22  and  C_26
REMARK    6  A    between atoms: C_26  and  C_27
REMARK                            x       y       z     vdW  Elec       q    Type
REMARK                         _______ _______ _______ _____ _____    ______ ____
ROOT
ATOM      1  C   UNL     1     138.717 170.616 188.768  0.00  0.00    -0.040 C 
ATOM      2  C   UNL     1     139.195 172.060 188.493  0.00  0.00    -0.050 C 
ATOM      3  C   UNL     1     138.467 173.178 189.258  0.00  0.00    -0.050 C 
ATOM      4  C   UNL     1     138.456 173.081 190.790  0.00  0.00    -0.023 C 
ATOM      5  C   UNL     1     139.714 173.590 191.514  0.00  0.00    +0.074 C 
ATOM      6  C   UNL     1     140.967 172.871 191.123  0.00  0.00    -0.049 C 
ATOM      7  C   UNL     1     141.511 171.829 191.771  0.00  0.00    +0.021 C 
ATOM      8  C   UNL     1     142.670 171.063 191.274  0.00  0.00    +0.333 C 
ATOM      9  O   UNL     1     143.060 170.041 191.818  0.00  0.00    -0.246 OA
ATOM     10  O   UNL     1     143.184 171.616 190.153  0.00  0.00    -0.444 OA
ATOM     11  C   UNL     1     144.111 170.841 189.355  0.00  0.00    +0.202 C 
ATOM     12  C   UNL     1     143.474 169.551 188.774  0.00  0.00    +0.056 C 
ATOM     13  C   UNL     1     142.112 169.778 188.119  0.00  0.00    -0.078 C 
ATOM     14  C   UNL     1     140.944 169.393 188.659  0.00  0.00    -0.087 C 
ATOM     15  C   UNL     1     139.598 169.592 188.014  0.00  0.00    -0.032 C 
ATOM     16  C   UNL     1     144.455 168.846 187.795  0.00  0.00    +0.087 C 
ATOM     17  C   UNL     1     145.914 169.022 188.178  0.00  0.00    -0.045 C 
ATOM     18  C   UNL     1     146.882 169.002 187.246  0.00  0.00    -0.097 C 
ATOM     19  C   UNL     1     146.133 169.267 189.660  0.00  0.00    -0.012 C 
ATOM     20  C   UNL     1     145.473 170.608 190.094  0.00  0.00    +0.033 C 
ATOM     21  C   UNL     1     146.286 171.885 189.785  0.00  0.00    +0.035 C 
ATOM     22  N   UNL     1     145.751 172.346 188.535  0.00  0.00    -0.308 N 
ATOM     23  C   UNL     1     144.519 171.815 188.234  0.00  0.00    +0.258 C 
ATOM     24  O   UNL     1     143.884 172.122 187.239  0.00  0.00    -0.271 OA
ATOM     25  H   UNL     1     138.792 170.403 189.841  0.00  0.00    +0.030 HD
ATOM     26  H   UNL     1     139.077 172.268 187.420  0.00  0.00    +0.027 HD
ATOM     27  H   UNL     1     140.269 172.134 188.677  0.00  0.00    +0.027 HD
ATOM     28  H   UNL     1     138.897 174.142 188.963  0.00  0.00    +0.027 HD
ATOM     29  H   UNL     1     137.426 173.205 188.914  0.00  0.00    +0.027 HD
ATOM     30  H   UNL     1     138.212 172.065 191.122  0.00  0.00    +0.029 HD
ATOM     31  H   UNL     1     137.614 173.689 191.150  0.00  0.00    +0.029 HD
ATOM     32  H   UNL     1     139.852 174.660 191.324  0.00  0.00    +0.064 HD
ATOM     33  H   UNL     1     141.428 173.235 190.206  0.00  0.00    +0.060 HD
ATOM     34  H   UNL     1     141.064 171.436 192.679  0.00  0.00    +0.069 HD
ATOM     35  H   UNL     1     143.294 168.860 189.611  0.00  0.00    +0.042 HD
ATOM     36  H   UNL     1     142.108 170.291 187.158  0.00  0.00    +0.057 HD
ATOM     37  H   UNL     1     140.941 168.879 189.620  0.00  0.00    +0.057 HD
ATOM     38  H   UNL     1     139.103 168.613 188.003  0.00  0.00    +0.031 HD
ATOM     39  H   UNL     1     139.708 169.892 186.964  0.00  0.00    +0.031 HD
ATOM     40  H   UNL     1     144.291 169.202 186.770  0.00  0.00    +0.065 HD
ATOM     41  H   UNL     1     147.931 169.147 187.485  0.00  0.00    +0.054 HD
ATOM     42  H   UNL     1     146.650 168.847 186.195  0.00  0.00    +0.054 HD
ATOM     43  H   UNL     1     145.578 168.468 190.176  0.00  0.00    +0.035 HD
ATOM     44  H   UNL     1     145.339 170.543 191.179  0.00  0.00    +0.037 HD
ATOM     45  H   UNL     1     147.348 171.685 189.626  0.00  0.00    +0.051 HD
ATOM     46  H   UNL     1     146.186 173.036 187.935  0.00  0.00    +0.149 HD
ENDROOT
BRANCH   1  47
ATOM     47  C   UNL     1     137.253 170.431 188.353  0.00  0.00    -0.062 C 
ATOM     48  H   UNL     1     136.626 170.176 189.213  0.00  0.00    +0.023 HD
ATOM     49  H   UNL     1     137.149 169.639 187.605  0.00  0.00    +0.023 HD
ATOM     50  H   UNL     1     136.858 171.349 187.906  0.00  0.00    +0.023 HD
ENDBRANCH   1  47
BRANCH  19  51
ATOM     51  C   UNL     1     147.570 169.109 190.171  0.00  0.00    -0.058 C 
ATOM     52  H   UNL     1     147.955 168.111 189.928  0.00  0.00    +0.024 HD
ATOM     53  H   UNL     1     148.263 169.837 189.741  0.00  0.00    +0.024 HD
ATOM     54  H   UNL     1     147.603 169.216 191.261  0.00  0.00    +0.024 HD
ENDBRANCH  19  51
BRANCH  21  55
ATOM     55  C   UNL     1     146.130 172.948 190.895  0.00  0.00    -0.009 C 
ATOM     56  H   UNL     1     146.073 173.958 190.471  0.00  0.00    +0.033 HD
ATOM     57  H   UNL     1     145.184 172.790 191.430  0.00  0.00    +0.033 HD
BRANCH  55  58
ATOM     58  C   UNL     1     147.258 172.899 191.901  0.00  0.00    -0.046 A 
ATOM     59  C   UNL     1     148.489 172.323 191.561  0.00  0.00    -0.059 A 
ATOM     60  C   UNL     1     149.536 172.299 192.485  0.00  0.00    -0.062 A 
ATOM     61  C   UNL     1     149.362 172.854 193.751  0.00  0.00    -0.062 A 
ATOM     62  C   UNL     1     148.143 173.431 194.097  0.00  0.00    -0.062 A 
ATOM     63  C   UNL     1     147.095 173.455 193.177  0.00  0.00    -0.059 A 
ATOM     64  H   UNL     1     148.642 171.885 190.577  0.00  0.00    +0.062 HD
ATOM     65  H   UNL     1     150.487 171.847 192.215  0.00  0.00    +0.062 HD
ATOM     66  H   UNL     1     150.178 172.834 194.470  0.00  0.00    +0.062 HD
ATOM     67  H   UNL     1     148.006 173.863 195.086  0.00  0.00    +0.062 HD
ATOM     68  H   UNL     1     146.149 173.912 193.461  0.00  0.00    +0.062 HD
ENDBRANCH  55  58
ENDBRANCH  21  55
BRANCH  16  69
ATOM     69  O   UNL     1     144.183 167.443 187.808  0.00  0.00    -0.387 OA
ATOM     70  H   UNL     1     143.738 167.233 186.969  0.00  0.00    +0.210 HD
ENDBRANCH  16  69
BRANCH   5  71
ATOM     71  O   UNL     1     139.518 173.436 192.919  0.00  0.00    -0.388 OA
ATOM     72  H   UNL     1     138.582 173.209 193.054  0.00  0.00    +0.210 HD
ENDBRANCH   5  71
TORSDOF 6
ENDMDL
