MODEL 1
REMARK VINA RESULT:      -7.2      0.000      0.000
REMARK  Name = Cytochalasin D_conf3
REMARK  10 active torsions:
REMARK  status: ('A' for Active; 'I' for Inactive)
REMARK    1  A    between atoms: C_1  and  C_2
REMARK    2  A    between atoms: C_7  and  O_37
REMARK    3  A    between atoms: C_10  and  C_36
REMARK    4  A    between atoms: C_13  and  O_21
REMARK    5  A    between atoms: C_16  and  C_19
REMARK    6  A    between atoms: C_16  and  O_20
REMARK    7  A    between atoms: O_21  and  C_22
REMARK    8  A    between atoms: C_22  and  C_24
REMARK    9  A    between atoms: C_28  and  C_29
REMARK   10  A    between atoms: C_29  and  C_30
REMARK                            x       y       z     vdW  Elec       q    Type
REMARK                         _______ _______ _______ _____ _____    ______ ____
ROOT
ATOM      1  C   UNL     1     152.494 161.595 188.849  0.00  0.00    +0.021 C 
ATOM      2  C   UNL     1     152.738 162.207 190.237  0.00  0.00    -0.025 C 
ATOM      3  C   UNL     1     151.570 162.959 190.819  0.00  0.00    -0.087 C 
ATOM      4  C   UNL     1     151.700 164.169 191.393  0.00  0.00    -0.081 C 
ATOM      5  C   UNL     1     150.553 165.022 191.936  0.00  0.00    +0.025 C 
ATOM      6  C   UNL     1     150.678 165.038 193.492  0.00  0.00    +0.084 C 
ATOM      7  C   UNL     1     149.810 166.075 194.164  0.00  0.00    -0.045 C 
ATOM      8  C   UNL     1     150.086 166.506 195.408  0.00  0.00    -0.097 C 
ATOM      9  C   UNL     1     148.671 166.565 193.302  0.00  0.00    -0.015 C 
ATOM     10  C   UNL     1     149.247 167.293 192.057  0.00  0.00    +0.002 C 
ATOM     11  C   UNL     1     150.424 166.479 191.349  0.00  0.00    +0.101 C 
ATOM     12  C   UNL     1     150.220 166.546 189.796  0.00  0.00    +0.136 C 
ATOM     13  C   UNL     1     151.293 165.858 188.972  0.00  0.00    -0.044 C 
ATOM     14  C   UNL     1     151.109 164.791 188.171  0.00  0.00    -0.046 C 
ATOM     15  C   UNL     1     152.165 163.913 187.525  0.00  0.00    +0.139 C 
ATOM     16  C   UNL     1     151.727 162.448 187.837  0.00  0.00    +0.171 C 
ATOM     17  O   UNL     1     150.735 161.952 187.281  0.00  0.00    -0.294 OA
ATOM     18  C   UNL     1     151.647 167.315 191.703  0.00  0.00    +0.224 C 
ATOM     19  O   UNL     1     152.817 167.008 191.545  0.00  0.00    -0.275 OA
ATOM     20  N   UNL     1     151.259 168.518 192.218  0.00  0.00    -0.311 N 
ATOM     21  C   UNL     1     149.840 168.693 192.363  0.00  0.00    +0.032 C 
ATOM     22  H   UNL     1     151.854 160.714 189.014  0.00  0.00    +0.038 HD
ATOM     23  H   UNL     1     153.631 162.845 190.218  0.00  0.00    +0.031 HD
ATOM     24  H   UNL     1     152.981 161.390 190.930  0.00  0.00    +0.031 HD
ATOM     25  H   UNL     1     150.587 162.497 190.738  0.00  0.00    +0.057 HD
ATOM     26  H   UNL     1     152.699 164.595 191.490  0.00  0.00    +0.057 HD
ATOM     27  H   UNL     1     149.625 164.490 191.680  0.00  0.00    +0.038 HD
ATOM     28  H   UNL     1     151.724 165.190 193.792  0.00  0.00    +0.065 HD
ATOM     29  H   UNL     1     150.923 166.096 195.966  0.00  0.00    +0.054 HD
ATOM     30  H   UNL     1     149.485 167.251 195.919  0.00  0.00    +0.054 HD
ATOM     31  H   UNL     1     148.146 165.669 192.939  0.00  0.00    +0.035 HD
ATOM     32  H   UNL     1     148.399 167.407 191.375  0.00  0.00    +0.034 HD
ATOM     33  H   UNL     1     150.231 167.598 189.487  0.00  0.00    +0.079 HD
ATOM     34  H   UNL     1     152.296 166.260 189.106  0.00  0.00    +0.061 HD
ATOM     35  H   UNL     1     150.092 164.426 188.019  0.00  0.00    +0.060 HD
ATOM     36  H   UNL     1     151.956 169.191 192.519  0.00  0.00    +0.149 HD
ATOM     37  H   UNL     1     149.688 168.989 193.404  0.00  0.00    +0.050 HD
ENDROOT
BRANCH   1  38
ATOM     38  C   UNL     1     153.789 161.080 188.225  0.00  0.00    -0.055 C 
ATOM     39  H   UNL     1     153.765 161.183 187.134  0.00  0.00    +0.024 HD
ATOM     40  H   UNL     1     153.938 160.022 188.461  0.00  0.00    +0.024 HD
ATOM     41  H   UNL     1     154.663 161.631 188.587  0.00  0.00    +0.024 HD
ENDBRANCH   1  38
BRANCH  15  42
ATOM     42  C   UNL     1     152.159 164.114 186.009  0.00  0.00    -0.025 C 
ATOM     43  H   UNL     1     151.255 164.625 185.657  0.00  0.00    +0.026 HD
ATOM     44  H   UNL     1     152.218 163.147 185.494  0.00  0.00    +0.026 HD
ATOM     45  H   UNL     1     153.030 164.696 185.685  0.00  0.00    +0.026 HD
ENDBRANCH  15  42
BRANCH   9  46
ATOM     46  C   UNL     1     147.575 167.367 194.016  0.00  0.00    -0.058 C 
ATOM     47  H   UNL     1     146.694 166.740 194.189  0.00  0.00    +0.024 HD
ATOM     48  H   UNL     1     147.255 168.250 193.457  0.00  0.00    +0.024 HD
ATOM     49  H   UNL     1     147.928 167.710 194.995  0.00  0.00    +0.024 HD
ENDBRANCH   9  46
BRANCH  21  50
ATOM     50  C   UNL     1     149.337 169.817 191.435  0.00  0.00    -0.009 C 
ATOM     51  H   UNL     1     150.134 170.093 190.729  0.00  0.00    +0.033 HD
ATOM     52  H   UNL     1     148.515 169.458 190.806  0.00  0.00    +0.033 HD
BRANCH  50  53
ATOM     53  C   UNL     1     148.925 171.070 192.169  0.00  0.00    -0.046 A 
ATOM     54  C   UNL     1     147.610 171.544 192.081  0.00  0.00    -0.059 A 
ATOM     55  C   UNL     1     147.224 172.696 192.768  0.00  0.00    -0.062 A 
ATOM     56  C   UNL     1     148.149 173.389 193.545  0.00  0.00    -0.062 A 
ATOM     57  C   UNL     1     149.464 172.936 193.628  0.00  0.00    -0.062 A 
ATOM     58  C   UNL     1     149.851 171.785 192.940  0.00  0.00    -0.059 A 
ATOM     59  H   UNL     1     146.874 171.026 191.467  0.00  0.00    +0.062 HD
ATOM     60  H   UNL     1     146.201 173.057 192.691  0.00  0.00    +0.062 HD
ATOM     61  H   UNL     1     147.849 174.287 194.077  0.00  0.00    +0.062 HD
ATOM     62  H   UNL     1     150.190 173.482 194.226  0.00  0.00    +0.062 HD
ATOM     63  H   UNL     1     150.885 171.451 193.012  0.00  0.00    +0.062 HD
ENDBRANCH  50  53
ENDBRANCH  21  50
BRANCH  15  64
ATOM     64  O   UNL     1     153.467 164.249 187.971  0.00  0.00    -0.377 OA
ATOM     65  H   UNL     1     153.482 165.196 188.181  0.00  0.00    +0.211 HD
ENDBRANCH  15  64
BRANCH   6  66
ATOM     66  O   UNL     1     150.259 163.772 194.008  0.00  0.00    -0.387 OA
ATOM     67  H   UNL     1     151.014 163.166 193.908  0.00  0.00    +0.210 HD
ENDBRANCH   6  66
BRANCH  12  68
ATOM     68  O   UNL     1     148.941 165.937 189.500  0.00  0.00    -0.456 OA
BRANCH  68  69
ATOM     69  C   UNL     1     148.027 166.701 188.846  0.00  0.00    +0.305 C 
ATOM     70  O   UNL     1     148.265 167.478 187.933  0.00  0.00    -0.251 OA
BRANCH  69  71
ATOM     71  C   UNL     1     146.666 166.476 189.431  0.00  0.00    +0.033 C 
ATOM     72  H   UNL     1     145.960 166.244 188.629  0.00  0.00    +0.034 HD
ATOM     73  H   UNL     1     146.694 165.631 190.123  0.00  0.00    +0.034 HD
ATOM     74  H   UNL     1     146.330 167.382 189.943  0.00  0.00    +0.034 HD
ENDBRANCH  69  71
ENDBRANCH  68  69
ENDBRANCH  12  68
TORSDOF 10
ENDMDL
MODEL 2
REMARK VINA RESULT:      -6.9      6.278      9.782
REMARK  Name = Cytochalasin D_conf3
REMARK  10 active torsions:
REMARK  status: ('A' for Active; 'I' for Inactive)
REMARK    1  A    between atoms: C_1  and  C_2
REMARK    2  A    between atoms: C_7  and  O_37
REMARK    3  A    between atoms: C_10  and  C_36
REMARK    4  A    between atoms: C_13  and  O_21
REMARK    5  A    between atoms: C_16  and  C_19
REMARK    6  A    between atoms: C_16  and  O_20
REMARK    7  A    between atoms: O_21  and  C_22
REMARK    8  A    between atoms: C_22  and  C_24
REMARK    9  A    between atoms: C_28  and  C_29
REMARK   10  A    between atoms: C_29  and  C_30
REMARK                            x       y       z     vdW  Elec       q    Type
REMARK                         _______ _______ _______ _____ _____    ______ ____
ROOT
ATOM      1  C   UNL     1     148.928 170.781 192.106  0.00  0.00    +0.021 C 
ATOM      2  C   UNL     1     148.208 172.078 191.703  0.00  0.00    -0.025 C 
ATOM      3  C   UNL     1     146.751 172.143 192.079  0.00  0.00    -0.087 C 
ATOM      4  C   UNL     1     145.800 172.561 191.223  0.00  0.00    -0.081 C 
ATOM      5  C   UNL     1     144.297 172.583 191.507  0.00  0.00    +0.025 C 
ATOM      6  C   UNL     1     143.867 174.079 191.629  0.00  0.00    +0.084 C 
ATOM      7  C   UNL     1     142.371 174.287 191.607  0.00  0.00    -0.045 C 
ATOM      8  C   UNL     1     141.845 175.483 191.289  0.00  0.00    -0.097 C 
ATOM      9  C   UNL     1     141.580 173.045 191.941  0.00  0.00    -0.015 C 
ATOM     10  C   UNL     1     141.834 171.968 190.851  0.00  0.00    +0.002 C 
ATOM     11  C   UNL     1     143.381 171.796 190.495  0.00  0.00    +0.101 C 
ATOM     12  C   UNL     1     143.702 170.266 190.371  0.00  0.00    +0.136 C 
ATOM     13  C   UNL     1     145.132 169.934 189.984  0.00  0.00    -0.044 C 
ATOM     14  C   UNL     1     146.021 169.268 190.745  0.00  0.00    -0.046 C 
ATOM     15  C   UNL     1     147.515 169.123 190.528  0.00  0.00    +0.139 C 
ATOM     16  C   UNL     1     148.166 169.471 191.904  0.00  0.00    +0.171 C 
ATOM     17  O   UNL     1     148.061 168.695 192.866  0.00  0.00    -0.294 OA
ATOM     18  C   UNL     1     143.458 172.410 189.105  0.00  0.00    +0.224 C 
ATOM     19  O   UNL     1     144.468 172.682 188.477  0.00  0.00    -0.275 OA
ATOM     20  N   UNL     1     142.201 172.605 188.608  0.00  0.00    -0.311 N 
ATOM     21  C   UNL     1     141.130 172.258 189.501  0.00  0.00    +0.032 C 
ATOM     22  H   UNL     1     149.086 170.847 193.194  0.00  0.00    +0.038 HD
ATOM     23  H   UNL     1     148.334 172.263 190.630  0.00  0.00    +0.031 HD
ATOM     24  H   UNL     1     148.714 172.916 192.203  0.00  0.00    +0.031 HD
ATOM     25  H   UNL     1     146.477 171.811 193.079  0.00  0.00    +0.057 HD
ATOM     26  H   UNL     1     146.105 172.917 190.239  0.00  0.00    +0.057 HD
ATOM     27  H   UNL     1     144.164 172.114 192.493  0.00  0.00    +0.038 HD
ATOM     28  H   UNL     1     144.329 174.678 190.832  0.00  0.00    +0.065 HD
ATOM     29  H   UNL     1     142.486 176.333 191.069  0.00  0.00    +0.054 HD
ATOM     30  H   UNL     1     140.777 175.667 191.262  0.00  0.00    +0.054 HD
ATOM     31  H   UNL     1     141.992 172.656 192.884  0.00  0.00    +0.035 HD
ATOM     32  H   UNL     1     141.433 171.039 191.270  0.00  0.00    +0.034 HD
ATOM     33  H   UNL     1     143.069 169.839 189.585  0.00  0.00    +0.079 HD
ATOM     34  H   UNL     1     145.444 170.331 189.020  0.00  0.00    +0.061 HD
ATOM     35  H   UNL     1     145.679 168.845 191.692  0.00  0.00    +0.060 HD
ATOM     36  H   UNL     1     142.076 173.022 187.692  0.00  0.00    +0.149 HD
ATOM     37  H   UNL     1     140.492 173.144 189.548  0.00  0.00    +0.050 HD
ENDROOT
BRANCH   1  38
ATOM     38  C   UNL     1     150.313 170.685 191.470  0.00  0.00    -0.055 C 
ATOM     39  H   UNL     1     150.710 169.667 191.552  0.00  0.00    +0.024 HD
ATOM     40  H   UNL     1     151.014 171.363 191.966  0.00  0.00    +0.024 HD
ATOM     41  H   UNL     1     150.291 170.944 190.407  0.00  0.00    +0.024 HD
ENDBRANCH   1  38
BRANCH  15  42
ATOM     42  C   UNL     1     147.857 167.674 190.177  0.00  0.00    -0.025 C 
ATOM     43  H   UNL     1     148.204 167.103 191.046  0.00  0.00    +0.026 HD
ATOM     44  H   UNL     1     148.646 167.639 189.416  0.00  0.00    +0.026 HD
ATOM     45  H   UNL     1     146.988 167.156 189.752  0.00  0.00    +0.026 HD
ENDBRANCH  15  42
BRANCH   9  46
ATOM     46  C   UNL     1     140.091 173.251 192.250  0.00  0.00    -0.058 C 
ATOM     47  H   UNL     1     139.798 172.668 193.129  0.00  0.00    +0.024 HD
ATOM     48  H   UNL     1     139.436 172.964 191.422  0.00  0.00    +0.024 HD
ATOM     49  H   UNL     1     139.889 174.304 192.476  0.00  0.00    +0.024 HD
ENDBRANCH   9  46
BRANCH  21  50
ATOM     50  C   UNL     1     140.319 171.075 188.935  0.00  0.00    -0.009 C 
ATOM     51  H   UNL     1     140.225 171.184 187.845  0.00  0.00    +0.033 HD
ATOM     52  H   UNL     1     140.860 170.133 189.079  0.00  0.00    +0.033 HD
BRANCH  50  53
ATOM     53  C   UNL     1     138.925 170.968 189.505  0.00  0.00    -0.046 A 
ATOM     54  C   UNL     1     137.858 171.650 188.906  0.00  0.00    -0.059 A 
ATOM     55  C   UNL     1     136.567 171.543 189.425  0.00  0.00    -0.062 A 
ATOM     56  C   UNL     1     136.330 170.759 190.551  0.00  0.00    -0.062 A 
ATOM     57  C   UNL     1     137.385 170.088 191.165  0.00  0.00    -0.062 A 
ATOM     58  C   UNL     1     138.677 170.195 190.648  0.00  0.00    -0.059 A 
ATOM     59  H   UNL     1     138.024 172.280 188.034  0.00  0.00    +0.062 HD
ATOM     60  H   UNL     1     135.747 172.079 188.953  0.00  0.00    +0.062 HD
ATOM     61  H   UNL     1     135.325 170.679 190.956  0.00  0.00    +0.062 HD
ATOM     62  H   UNL     1     137.203 169.484 192.050  0.00  0.00    +0.062 HD
ATOM     63  H   UNL     1     139.489 169.670 191.146  0.00  0.00    +0.062 HD
ENDBRANCH  50  53
ENDBRANCH  21  50
BRANCH  15  64
ATOM     64  O   UNL     1     147.965 169.917 189.444  0.00  0.00    -0.377 OA
ATOM     65  H   UNL     1     147.467 170.750 189.450  0.00  0.00    +0.211 HD
ENDBRANCH  15  64
BRANCH   6  66
ATOM     66  O   UNL     1     144.325 174.596 192.881  0.00  0.00    -0.387 OA
ATOM     67  H   UNL     1     145.235 174.275 193.000  0.00  0.00    +0.210 HD
ENDBRANCH   6  66
BRANCH  12  68
ATOM     68  O   UNL     1     143.412 169.656 191.651  0.00  0.00    -0.456 OA
BRANCH  68  69
ATOM     69  C   UNL     1     142.604 168.564 191.649  0.00  0.00    +0.305 C 
ATOM     70  O   UNL     1     141.659 168.374 190.898  0.00  0.00    -0.251 OA
BRANCH  69  71
ATOM     71  C   UNL     1     143.021 167.621 192.736  0.00  0.00    +0.033 C 
ATOM     72  H   UNL     1     142.278 166.824 192.831  0.00  0.00    +0.034 HD
ATOM     73  H   UNL     1     143.984 167.168 192.486  0.00  0.00    +0.034 HD
ATOM     74  H   UNL     1     143.084 168.157 193.687  0.00  0.00    +0.034 HD
ENDBRANCH  69  71
ENDBRANCH  68  69
ENDBRANCH  12  68
TORSDOF 10
ENDMDL
MODEL 3
REMARK VINA RESULT:      -6.7      1.996      3.598
REMARK  Name = Cytochalasin D_conf3
REMARK  10 active torsions:
REMARK  status: ('A' for Active; 'I' for Inactive)
REMARK    1  A    between atoms: C_1  and  C_2
REMARK    2  A    between atoms: C_7  and  O_37
REMARK    3  A    between atoms: C_10  and  C_36
REMARK    4  A    between atoms: C_13  and  O_21
REMARK    5  A    between atoms: C_16  and  C_19
REMARK    6  A    between atoms: C_16  and  O_20
REMARK    7  A    between atoms: O_21  and  C_22
REMARK    8  A    between atoms: C_22  and  C_24
REMARK    9  A    between atoms: C_28  and  C_29
REMARK   10  A    between atoms: C_29  and  C_30
REMARK                            x       y       z     vdW  Elec       q    Type
REMARK                         _______ _______ _______ _____ _____    ______ ____
ROOT
ATOM      1  C   UNL     1     149.919 161.014 189.542  0.00  0.00    +0.021 C 
ATOM      2  C   UNL     1     148.685 161.635 190.214  0.00  0.00    -0.025 C 
ATOM      3  C   UNL     1     148.308 163.006 189.716  0.00  0.00    -0.087 C 
ATOM      4  C   UNL     1     147.998 164.019 190.546  0.00  0.00    -0.081 C 
ATOM      5  C   UNL     1     147.679 165.452 190.118  0.00  0.00    +0.025 C 
ATOM      6  C   UNL     1     146.159 165.690 190.378  0.00  0.00    +0.084 C 
ATOM      7  C   UNL     1     145.746 167.141 190.295  0.00  0.00    -0.045 C 
ATOM      8  C   UNL     1     144.613 167.570 190.879  0.00  0.00    -0.097 C 
ATOM      9  C   UNL     1     146.723 168.009 189.539  0.00  0.00    -0.015 C 
ATOM     10  C   UNL     1     148.077 168.038 190.300  0.00  0.00    +0.002 C 
ATOM     11  C   UNL     1     148.564 166.588 190.759  0.00  0.00    +0.101 C 
ATOM     12  C   UNL     1     150.101 166.461 190.480  0.00  0.00    +0.136 C 
ATOM     13  C   UNL     1     150.732 165.149 190.911  0.00  0.00    -0.044 C 
ATOM     14  C   UNL     1     151.295 164.238 190.093  0.00  0.00    -0.046 C 
ATOM     15  C   UNL     1     151.711 162.817 190.423  0.00  0.00    +0.139 C 
ATOM     16  C   UNL     1     151.110 161.938 189.281  0.00  0.00    +0.171 C 
ATOM     17  O   UNL     1     151.577 161.987 188.133  0.00  0.00    -0.294 OA
ATOM     18  C   UNL     1     148.359 166.646 192.267  0.00  0.00    +0.224 C 
ATOM     19  O   UNL     1     148.416 165.714 193.052  0.00  0.00    -0.275 OA
ATOM     20  N   UNL     1     148.120 167.932 192.658  0.00  0.00    -0.311 N 
ATOM     21  C   UNL     1     148.056 168.893 191.593  0.00  0.00    +0.032 C 
ATOM     22  H   UNL     1     149.591 160.692 188.541  0.00  0.00    +0.038 HD
ATOM     23  H   UNL     1     148.813 161.647 191.303  0.00  0.00    +0.031 HD
ATOM     24  H   UNL     1     147.829 160.972 190.030  0.00  0.00    +0.031 HD
ATOM     25  H   UNL     1     148.318 163.167 188.639  0.00  0.00    +0.057 HD
ATOM     26  H   UNL     1     147.965 163.822 191.618  0.00  0.00    +0.057 HD
ATOM     27  H   UNL     1     147.844 165.492 189.031  0.00  0.00    +0.038 HD
ATOM     28  H   UNL     1     145.868 165.286 191.357  0.00  0.00    +0.065 HD
ATOM     29  H   UNL     1     143.957 166.878 191.399  0.00  0.00    +0.054 HD
ATOM     30  H   UNL     1     144.288 168.604 190.841  0.00  0.00    +0.054 HD
ATOM     31  H   UNL     1     146.904 167.510 188.576  0.00  0.00    +0.035 HD
ATOM     32  H   UNL     1     148.791 168.474 189.595  0.00  0.00    +0.034 HD
ATOM     33  H   UNL     1     150.624 167.245 191.039  0.00  0.00    +0.079 HD
ATOM     34  H   UNL     1     150.656 164.938 191.976  0.00  0.00    +0.061 HD
ATOM     35  H   UNL     1     151.395 164.483 189.034  0.00  0.00    +0.060 HD
ATOM     36  H   UNL     1     147.949 168.142 193.635  0.00  0.00    +0.149 HD
ATOM     37  H   UNL     1     147.105 169.415 191.729  0.00  0.00    +0.050 HD
ENDROOT
BRANCH   1  38
ATOM     38  C   UNL     1     150.385 159.756 190.272  0.00  0.00    -0.055 C 
ATOM     39  H   UNL     1     150.671 158.974 189.559  0.00  0.00    +0.024 HD
ATOM     40  H   UNL     1     149.586 159.359 190.906  0.00  0.00    +0.024 HD
ATOM     41  H   UNL     1     151.252 159.952 190.909  0.00  0.00    +0.024 HD
ENDBRANCH   1  38
BRANCH  15  42
ATOM     42  C   UNL     1     153.235 162.694 190.384  0.00  0.00    -0.025 C 
ATOM     43  H   UNL     1     153.735 163.494 190.942  0.00  0.00    +0.026 HD
ATOM     44  H   UNL     1     153.597 162.731 189.350  0.00  0.00    +0.026 HD
ATOM     45  H   UNL     1     153.563 161.732 190.797  0.00  0.00    +0.026 HD
ENDBRANCH  15  42
BRANCH   9  46
ATOM     46  C   UNL     1     146.226 169.404 189.141  0.00  0.00    -0.058 C 
ATOM     47  H   UNL     1     145.876 169.404 188.103  0.00  0.00    +0.024 HD
ATOM     48  H   UNL     1     146.991 170.178 189.239  0.00  0.00    +0.024 HD
ATOM     49  H   UNL     1     145.378 169.702 189.770  0.00  0.00    +0.024 HD
ENDBRANCH   9  46
BRANCH  21  50
ATOM     50  C   UNL     1     149.214 169.905 191.708  0.00  0.00    -0.009 C 
ATOM     51  H   UNL     1     150.015 169.475 192.326  0.00  0.00    +0.033 HD
ATOM     52  H   UNL     1     149.674 170.077 190.729  0.00  0.00    +0.033 HD
BRANCH  50  53
ATOM     53  C   UNL     1     148.811 171.219 192.334  0.00  0.00    -0.046 A 
ATOM     54  C   UNL     1     147.516 171.722 192.158  0.00  0.00    -0.059 A 
ATOM     55  C   UNL     1     147.138 172.931 192.745  0.00  0.00    -0.062 A 
ATOM     56  C   UNL     1     148.054 173.652 193.508  0.00  0.00    -0.062 A 
ATOM     57  C   UNL     1     149.350 173.170 193.678  0.00  0.00    -0.062 A 
ATOM     58  C   UNL     1     149.728 171.962 193.090  0.00  0.00    -0.059 A 
ATOM     59  H   UNL     1     146.789 171.182 191.553  0.00  0.00    +0.062 HD
ATOM     60  H   UNL     1     146.131 173.313 192.600  0.00  0.00    +0.062 HD
ATOM     61  H   UNL     1     147.760 174.594 193.962  0.00  0.00    +0.062 HD
ATOM     62  H   UNL     1     150.067 173.737 194.265  0.00  0.00    +0.062 HD
ATOM     63  H   UNL     1     150.747 171.606 193.228  0.00  0.00    +0.062 HD
ENDBRANCH  50  53
ENDBRANCH  21  50
BRANCH  15  64
ATOM     64  O   UNL     1     151.309 162.444 191.729  0.00  0.00    -0.377 OA
ATOM     65  H   UNL     1     151.579 161.524 191.879  0.00  0.00    +0.211 HD
ENDBRANCH  15  64
BRANCH   6  66
ATOM     66  O   UNL     1     145.400 165.001 189.381  0.00  0.00    -0.387 OA
ATOM     67  H   UNL     1     146.036 164.489 188.851  0.00  0.00    +0.210 HD
ENDBRANCH   6  66
BRANCH  12  68
ATOM     68  O   UNL     1     150.299 166.628 189.056  0.00  0.00    -0.456 OA
BRANCH  68  69
ATOM     69  C   UNL     1     151.438 167.252 188.656  0.00  0.00    +0.305 C 
ATOM     70  O   UNL     1     152.149 167.959 189.355  0.00  0.00    -0.251 OA
BRANCH  69  71
ATOM     71  C   UNL     1     151.690 166.971 187.206  0.00  0.00    +0.033 C 
ATOM     72  H   UNL     1     150.951 166.252 186.842  0.00  0.00    +0.034 HD
ATOM     73  H   UNL     1     151.590 167.893 186.627  0.00  0.00    +0.034 HD
ATOM     74  H   UNL     1     152.689 166.544 187.080  0.00  0.00    +0.034 HD
ENDBRANCH  69  71
ENDBRANCH  68  69
ENDBRANCH  12  68
TORSDOF 10
ENDMDL
MODEL 4
REMARK VINA RESULT:      -6.6      3.202      7.282
REMARK  Name = Cytochalasin D_conf3
REMARK  10 active torsions:
REMARK  status: ('A' for Active; 'I' for Inactive)
REMARK    1  A    between atoms: C_1  and  C_2
REMARK    2  A    between atoms: C_7  and  O_37
REMARK    3  A    between atoms: C_10  and  C_36
REMARK    4  A    between atoms: C_13  and  O_21
REMARK    5  A    between atoms: C_16  and  C_19
REMARK    6  A    between atoms: C_16  and  O_20
REMARK    7  A    between atoms: O_21  and  C_22
REMARK    8  A    between atoms: C_22  and  C_24
REMARK    9  A    between atoms: C_28  and  C_29
REMARK   10  A    between atoms: C_29  and  C_30
REMARK                            x       y       z     vdW  Elec       q    Type
REMARK                         _______ _______ _______ _____ _____    ______ ____
ROOT
ATOM      1  C   UNL     1     142.634 167.077 193.019  0.00  0.00    +0.021 C 
ATOM      2  C   UNL     1     143.708 166.007 193.271  0.00  0.00    -0.025 C 
ATOM      3  C   UNL     1     145.112 166.534 193.421  0.00  0.00    -0.087 C 
ATOM      4  C   UNL     1     146.165 165.976 192.796  0.00  0.00    -0.081 C 
ATOM      5  C   UNL     1     147.602 166.499 192.841  0.00  0.00    +0.025 C 
ATOM      6  C   UNL     1     148.443 165.483 193.678  0.00  0.00    +0.084 C 
ATOM      7  C   UNL     1     149.935 165.688 193.566  0.00  0.00    -0.045 C 
ATOM      8  C   UNL     1     150.792 164.695 193.862  0.00  0.00    -0.097 C 
ATOM      9  C   UNL     1     150.324 167.063 193.079  0.00  0.00    -0.015 C 
ATOM     10  C   UNL     1     149.800 167.261 191.630  0.00  0.00    +0.002 C 
ATOM     11  C   UNL     1     148.279 166.808 191.452  0.00  0.00    +0.101 C 
ATOM     12  C   UNL     1     147.533 167.877 190.582  0.00  0.00    +0.136 C 
ATOM     13  C   UNL     1     146.079 167.564 190.276  0.00  0.00    -0.044 C 
ATOM     14  C   UNL     1     145.016 168.284 190.681  0.00  0.00    -0.046 C 
ATOM     15  C   UNL     1     143.550 167.898 190.627  0.00  0.00    +0.139 C 
ATOM     16  C   UNL     1     142.990 168.207 192.051  0.00  0.00    +0.171 C 
ATOM     17  O   UNL     1     142.840 169.378 192.431  0.00  0.00    -0.294 OA
ATOM     18  C   UNL     1     148.420 165.538 190.625  0.00  0.00    +0.224 C 
ATOM     19  O   UNL     1     147.549 164.719 190.381  0.00  0.00    -0.275 OA
ATOM     20  N   UNL     1     149.693 165.433 190.141  0.00  0.00    -0.311 N 
ATOM     21  C   UNL     1     150.593 166.472 190.558  0.00  0.00    +0.032 C 
ATOM     22  H   UNL     1     142.472 167.579 193.986  0.00  0.00    +0.038 HD
ATOM     23  H   UNL     1     143.670 165.241 192.488  0.00  0.00    +0.031 HD
ATOM     24  H   UNL     1     143.452 165.483 194.203  0.00  0.00    +0.031 HD
ATOM     25  H   UNL     1     145.251 167.415 194.045  0.00  0.00    +0.057 HD
ATOM     26  H   UNL     1     146.002 165.076 192.204  0.00  0.00    +0.057 HD
ATOM     27  H   UNL     1     147.568 167.446 193.400  0.00  0.00    +0.038 HD
ATOM     28  H   UNL     1     148.195 164.451 193.391  0.00  0.00    +0.065 HD
ATOM     29  H   UNL     1     150.430 163.733 194.215  0.00  0.00    +0.054 HD
ATOM     30  H   UNL     1     151.868 164.806 193.791  0.00  0.00    +0.054 HD
ATOM     31  H   UNL     1     149.792 167.783 193.717  0.00  0.00    +0.035 HD
ATOM     32  H   UNL     1     149.903 168.333 191.434  0.00  0.00    +0.034 HD
ATOM     33  H   UNL     1     148.036 167.950 189.610  0.00  0.00    +0.079 HD
ATOM     34  H   UNL     1     145.921 166.641 189.722  0.00  0.00    +0.061 HD
ATOM     35  H   UNL     1     145.195 169.226 191.203  0.00  0.00    +0.060 HD
ATOM     36  H   UNL     1     149.958 164.632 189.578  0.00  0.00    +0.149 HD
ATOM     37  H   UNL     1     151.459 165.954 190.980  0.00  0.00    +0.050 HD
ENDROOT
BRANCH   1  38
ATOM     38  C   UNL     1     141.298 166.451 192.624  0.00  0.00    -0.055 C 
ATOM     39  H   UNL     1     141.343 165.359 192.692  0.00  0.00    +0.024 HD
ATOM     40  H   UNL     1     141.036 166.716 191.595  0.00  0.00    +0.024 HD
ATOM     41  H   UNL     1     140.484 166.787 193.275  0.00  0.00    +0.024 HD
ENDBRANCH   1  38
BRANCH  15  42
ATOM     42  C   UNL     1     142.814 168.774 189.611  0.00  0.00    -0.025 C 
ATOM     43  H   UNL     1     142.770 168.317 188.616  0.00  0.00    +0.026 HD
ATOM     44  H   UNL     1     143.311 169.746 189.511  0.00  0.00    +0.026 HD
ATOM     45  H   UNL     1     141.787 168.979 189.939  0.00  0.00    +0.026 HD
ENDBRANCH  15  42
BRANCH   9  46
ATOM     46  C   UNL     1     151.800 167.449 193.243  0.00  0.00    -0.058 C 
ATOM     47  H   UNL     1     152.098 168.161 192.466  0.00  0.00    +0.024 HD
ATOM     48  H   UNL     1     152.477 166.592 193.192  0.00  0.00    +0.024 HD
ATOM     49  H   UNL     1     151.963 167.936 194.211  0.00  0.00    +0.024 HD
ENDBRANCH   9  46
BRANCH  21  50
ATOM     50  C   UNL     1     151.043 167.313 189.347  0.00  0.00    -0.009 C 
ATOM     51  H   UNL     1     150.357 167.139 188.505  0.00  0.00    +0.033 HD
ATOM     52  H   UNL     1     150.954 168.383 189.567  0.00  0.00    +0.033 HD
BRANCH  50  53
ATOM     53  C   UNL     1     152.440 166.993 188.871  0.00  0.00    -0.046 A 
ATOM     54  C   UNL     1     152.803 167.212 187.536  0.00  0.00    -0.059 A 
ATOM     55  C   UNL     1     154.097 166.927 187.098  0.00  0.00    -0.062 A 
ATOM     56  C   UNL     1     155.039 166.415 187.987  0.00  0.00    -0.062 A 
ATOM     57  C   UNL     1     154.685 166.179 189.314  0.00  0.00    -0.062 A 
ATOM     58  C   UNL     1     153.391 166.462 189.753  0.00  0.00    -0.059 A 
ATOM     59  H   UNL     1     152.078 167.597 186.821  0.00  0.00    +0.062 HD
ATOM     60  H   UNL     1     154.367 167.098 186.058  0.00  0.00    +0.062 HD
ATOM     61  H   UNL     1     156.045 166.191 187.644  0.00  0.00    +0.062 HD
ATOM     62  H   UNL     1     155.417 165.770 190.006  0.00  0.00    +0.062 HD
ATOM     63  H   UNL     1     153.132 166.264 190.791  0.00  0.00    +0.062 HD
ENDBRANCH  50  53
ENDBRANCH  21  50
BRANCH  15  64
ATOM     64  O   UNL     1     143.378 166.558 190.201  0.00  0.00    -0.377 OA
ATOM     65  H   UNL     1     144.171 166.290 189.710  0.00  0.00    +0.211 HD
ENDBRANCH  15  64
BRANCH   6  66
ATOM     66  O   UNL     1     148.120 165.638 195.062  0.00  0.00    -0.387 OA
ATOM     67  H   UNL     1     148.109 164.744 195.448  0.00  0.00    +0.210 HD
ENDBRANCH   6  66
BRANCH  12  68
ATOM     68  O   UNL     1     147.600 169.137 191.290  0.00  0.00    -0.456 OA
BRANCH  68  69
ATOM     69  C   UNL     1     147.886 170.247 190.558  0.00  0.00    +0.305 C 
ATOM     70  O   UNL     1     147.335 170.580 189.519  0.00  0.00    -0.251 OA
BRANCH  69  71
ATOM     71  C   UNL     1     149.012 171.001 191.197  0.00  0.00    +0.033 C 
ATOM     72  H   UNL     1     149.546 170.341 191.885  0.00  0.00    +0.034 HD
ATOM     73  H   UNL     1     149.713 171.342 190.430  0.00  0.00    +0.034 HD
ATOM     74  H   UNL     1     148.615 171.850 191.760  0.00  0.00    +0.034 HD
ENDBRANCH  69  71
ENDBRANCH  68  69
ENDBRANCH  12  68
TORSDOF 10
ENDMDL
MODEL 5
REMARK VINA RESULT:      -6.5      2.608      8.050
REMARK  Name = Cytochalasin D_conf3
REMARK  10 active torsions:
REMARK  status: ('A' for Active; 'I' for Inactive)
REMARK    1  A    between atoms: C_1  and  C_2
REMARK    2  A    between atoms: C_7  and  O_37
REMARK    3  A    between atoms: C_10  and  C_36
REMARK    4  A    between atoms: C_13  and  O_21
REMARK    5  A    between atoms: C_16  and  C_19
REMARK    6  A    between atoms: C_16  and  O_20
REMARK    7  A    between atoms: O_21  and  C_22
REMARK    8  A    between atoms: C_22  and  C_24
REMARK    9  A    between atoms: C_28  and  C_29
REMARK   10  A    between atoms: C_29  and  C_30
REMARK                            x       y       z     vdW  Elec       q    Type
REMARK                         _______ _______ _______ _____ _____    ______ ____
ROOT
ATOM      1  C   UNL     1     146.235 172.823 190.786  0.00  0.00    +0.021 C 
ATOM      2  C   UNL     1     147.169 172.211 191.841  0.00  0.00    -0.025 C 
ATOM      3  C   UNL     1     148.236 171.297 191.296  0.00  0.00    -0.087 C 
ATOM      4  C   UNL     1     148.513 170.099 191.844  0.00  0.00    -0.081 C 
ATOM      5  C   UNL     1     149.527 169.089 191.303  0.00  0.00    +0.025 C 
ATOM      6  C   UNL     1     150.724 169.048 192.304  0.00  0.00    +0.084 C 
ATOM      7  C   UNL     1     151.666 167.889 192.081  0.00  0.00    -0.045 C 
ATOM      8  C   UNL     1     152.483 167.464 193.062  0.00  0.00    -0.097 C 
ATOM      9  C   UNL     1     151.563 167.278 190.704  0.00  0.00    -0.015 C 
ATOM     10  C   UNL     1     150.148 166.665 190.521  0.00  0.00    +0.002 C 
ATOM     11  C   UNL     1     148.979 167.645 190.993  0.00  0.00    +0.101 C 
ATOM     12  C   UNL     1     147.821 167.593 189.938  0.00  0.00    +0.136 C 
ATOM     13  C   UNL     1     146.604 168.438 190.271  0.00  0.00    -0.044 C 
ATOM     14  C   UNL     1     146.158 169.493 189.562  0.00  0.00    -0.046 C 
ATOM     15  C   UNL     1     145.116 170.518 189.966  0.00  0.00    +0.139 C 
ATOM     16  C   UNL     1     145.762 171.905 189.657  0.00  0.00    +0.171 C 
ATOM     17  O   UNL     1     145.921 172.281 188.486  0.00  0.00    -0.294 OA
ATOM     18  C   UNL     1     148.491 166.967 192.266  0.00  0.00    +0.224 C 
ATOM     19  O   UNL     1     147.726 167.428 193.097  0.00  0.00    -0.275 OA
ATOM     20  N   UNL     1     149.016 165.710 192.358  0.00  0.00    -0.311 N 
ATOM     21  C   UNL     1     149.924 165.347 191.306  0.00  0.00    +0.032 C 
ATOM     22  H   UNL     1     146.819 173.608 190.280  0.00  0.00    +0.038 HD
ATOM     23  H   UNL     1     146.583 171.696 192.612  0.00  0.00    +0.031 HD
ATOM     24  H   UNL     1     147.677 173.034 192.362  0.00  0.00    +0.031 HD
ATOM     25  H   UNL     1     148.774 171.629 190.409  0.00  0.00    +0.057 HD
ATOM     26  H   UNL     1     147.982 169.806 192.749  0.00  0.00    +0.057 HD
ATOM     27  H   UNL     1     149.897 169.503 190.354  0.00  0.00    +0.038 HD
ATOM     28  H   UNL     1     150.359 169.026 193.340  0.00  0.00    +0.065 HD
ATOM     29  H   UNL     1     152.502 167.965 194.026  0.00  0.00    +0.054 HD
ATOM     30  H   UNL     1     153.169 166.635 192.937  0.00  0.00    +0.054 HD
ATOM     31  H   UNL     1     151.652 168.107 189.987  0.00  0.00    +0.035 HD
ATOM     32  H   UNL     1     150.063 166.460 189.449  0.00  0.00    +0.034 HD
ATOM     33  H   UNL     1     147.460 166.561 189.864  0.00  0.00    +0.079 HD
ATOM     34  H   UNL     1     146.104 168.167 191.199  0.00  0.00    +0.061 HD
ATOM     35  H   UNL     1     146.649 169.726 188.615  0.00  0.00    +0.060 HD
ATOM     36  H   UNL     1     148.799 165.126 193.159  0.00  0.00    +0.149 HD
ATOM     37  H   UNL     1     150.832 165.006 191.810  0.00  0.00    +0.050 HD
ENDROOT
BRANCH   1  38
ATOM     38  C   UNL     1     145.038 173.519 191.430  0.00  0.00    -0.055 C 
ATOM     39  H   UNL     1     144.777 173.046 192.383  0.00  0.00    +0.024 HD
ATOM     40  H   UNL     1     144.162 173.466 190.775  0.00  0.00    +0.024 HD
ATOM     41  H   UNL     1     145.242 174.575 191.632  0.00  0.00    +0.024 HD
ENDBRANCH   1  38
BRANCH  15  42
ATOM     42  C   UNL     1     143.862 170.359 189.105  0.00  0.00    -0.025 C 
ATOM     43  H   UNL     1     144.023 169.697 188.247  0.00  0.00    +0.026 HD
ATOM     44  H   UNL     1     143.535 171.333 188.720  0.00  0.00    +0.026 HD
ATOM     45  H   UNL     1     143.027 169.959 189.694  0.00  0.00    +0.026 HD
ENDBRANCH  15  42
BRANCH   9  46
ATOM     46  C   UNL     1     152.692 166.321 190.299  0.00  0.00    -0.058 C 
ATOM     47  H   UNL     1     153.563 166.460 190.949  0.00  0.00    +0.024 HD
ATOM     48  H   UNL     1     153.019 166.455 189.265  0.00  0.00    +0.024 HD
ATOM     49  H   UNL     1     152.367 165.280 190.407  0.00  0.00    +0.024 HD
ENDBRANCH   9  46
BRANCH  21  50
ATOM     50  C   UNL     1     149.343 164.193 190.465  0.00  0.00    -0.009 C 
ATOM     51  H   UNL     1     148.323 163.968 190.807  0.00  0.00    +0.033 HD
ATOM     52  H   UNL     1     149.230 164.497 189.419  0.00  0.00    +0.033 HD
BRANCH  50  53
ATOM     53  C   UNL     1     150.144 162.916 190.553  0.00  0.00    -0.046 A 
ATOM     54  C   UNL     1     149.504 161.671 190.511  0.00  0.00    -0.059 A 
ATOM     55  C   UNL     1     150.245 160.490 190.580  0.00  0.00    -0.062 A 
ATOM     56  C   UNL     1     151.631 160.541 190.700  0.00  0.00    -0.062 A 
ATOM     57  C   UNL     1     152.278 161.774 190.758  0.00  0.00    -0.062 A 
ATOM     58  C   UNL     1     151.539 162.955 190.690  0.00  0.00    -0.059 A 
ATOM     59  H   UNL     1     148.420 161.608 190.433  0.00  0.00    +0.062 HD
ATOM     60  H   UNL     1     149.737 159.529 190.549  0.00  0.00    +0.062 HD
ATOM     61  H   UNL     1     152.206 159.621 190.757  0.00  0.00    +0.062 HD
ATOM     62  H   UNL     1     153.360 161.814 190.861  0.00  0.00    +0.062 HD
ATOM     63  H   UNL     1     152.062 163.908 190.745  0.00  0.00    +0.062 HD
ENDBRANCH  50  53
ENDBRANCH  21  50
BRANCH  15  64
ATOM     64  O   UNL     1     144.706 170.343 191.311  0.00  0.00    -0.377 OA
ATOM     65  H   UNL     1     144.017 169.660 191.333  0.00  0.00    +0.211 HD
ENDBRANCH  15  64
BRANCH   6  66
ATOM     66  O   UNL     1     151.507 170.235 192.146  0.00  0.00    -0.387 OA
ATOM     67  H   UNL     1     151.420 170.504 191.215  0.00  0.00    +0.210 HD
ENDBRANCH   6  66
BRANCH  12  68
ATOM     68  O   UNL     1     148.366 168.038 188.673  0.00  0.00    -0.456 OA
BRANCH  68  69
ATOM     69  C   UNL     1     148.284 167.177 187.625  0.00  0.00    +0.305 C 
ATOM     70  O   UNL     1     147.332 166.455 187.365  0.00  0.00    -0.251 OA
BRANCH  69  71
ATOM     71  C   UNL     1     149.557 167.214 186.836  0.00  0.00    +0.033 C 
ATOM     72  H   UNL     1     149.672 166.274 186.289  0.00  0.00    +0.034 HD
ATOM     73  H   UNL     1     149.523 168.033 186.113  0.00  0.00    +0.034 HD
ATOM     74  H   UNL     1     150.408 167.334 187.513  0.00  0.00    +0.034 HD
ENDBRANCH  69  71
ENDBRANCH  68  69
ENDBRANCH  12  68
TORSDOF 10
ENDMDL
MODEL 6
REMARK VINA RESULT:      -6.4      3.410      6.052
REMARK  Name = Cytochalasin D_conf3
REMARK  10 active torsions:
REMARK  status: ('A' for Active; 'I' for Inactive)
REMARK    1  A    between atoms: C_1  and  C_2
REMARK    2  A    between atoms: C_7  and  O_37
REMARK    3  A    between atoms: C_10  and  C_36
REMARK    4  A    between atoms: C_13  and  O_21
REMARK    5  A    between atoms: C_16  and  C_19
REMARK    6  A    between atoms: C_16  and  O_20
REMARK    7  A    between atoms: O_21  and  C_22
REMARK    8  A    between atoms: C_22  and  C_24
REMARK    9  A    between atoms: C_28  and  C_29
REMARK   10  A    between atoms: C_29  and  C_30
REMARK                            x       y       z     vdW  Elec       q    Type
REMARK                         _______ _______ _______ _____ _____    ______ ____
ROOT
ATOM      1  C   UNL     1     143.886 162.752 187.348  0.00  0.00    +0.021 C 
ATOM      2  C   UNL     1     145.301 163.313 187.136  0.00  0.00    -0.025 C 
ATOM      3  C   UNL     1     145.910 163.982 188.340  0.00  0.00    -0.087 C 
ATOM      4  C   UNL     1     146.538 165.170 188.268  0.00  0.00    -0.081 C 
ATOM      5  C   UNL     1     147.114 165.943 189.456  0.00  0.00    +0.025 C 
ATOM      6  C   UNL     1     148.669 165.896 189.334  0.00  0.00    +0.084 C 
ATOM      7  C   UNL     1     149.382 166.860 190.252  0.00  0.00    -0.045 C 
ATOM      8  C   UNL     1     150.645 167.247 190.000  0.00  0.00    -0.097 C 
ATOM      9  C   UNL     1     148.538 167.333 191.411  0.00  0.00    -0.015 C 
ATOM     10  C   UNL     1     147.329 168.143 190.867  0.00  0.00    +0.002 C 
ATOM     11  C   UNL     1     146.591 167.417 189.651  0.00  0.00    +0.101 C 
ATOM     12  C   UNL     1     145.042 167.544 189.855  0.00  0.00    +0.136 C 
ATOM     13  C   UNL     1     144.192 166.944 188.748  0.00  0.00    -0.044 C 
ATOM     14  C   UNL     1     143.344 165.907 188.881  0.00  0.00    -0.046 C 
ATOM     15  C   UNL     1     142.665 165.109 187.783  0.00  0.00    +0.139 C 
ATOM     16  C   UNL     1     142.909 163.612 188.152  0.00  0.00    +0.171 C 
ATOM     17  O   UNL     1     142.327 163.096 189.118  0.00  0.00    -0.294 OA
ATOM     18  C   UNL     1     146.987 168.293 188.470  0.00  0.00    +0.224 C 
ATOM     19  O   UNL     1     146.820 168.048 187.287  0.00  0.00    -0.275 OA
ATOM     20  N   UNL     1     147.553 169.452 188.916  0.00  0.00    -0.311 N 
ATOM     21  C   UNL     1     147.699 169.554 190.342  0.00  0.00    +0.032 C 
ATOM     22  H   UNL     1     144.008 161.836 187.946  0.00  0.00    +0.038 HD
ATOM     23  H   UNL     1     145.313 163.992 186.274  0.00  0.00    +0.031 HD
ATOM     24  H   UNL     1     145.958 162.477 186.856  0.00  0.00    +0.031 HD
ATOM     25  H   UNL     1     145.804 163.478 189.299  0.00  0.00    +0.057 HD
ATOM     26  H   UNL     1     146.658 165.637 187.290  0.00  0.00    +0.057 HD
ATOM     27  H   UNL     1     146.829 165.380 190.356  0.00  0.00    +0.038 HD
ATOM     28  H   UNL     1     148.980 166.084 188.298  0.00  0.00    +0.065 HD
ATOM     29  H   UNL     1     151.189 166.852 189.146  0.00  0.00    +0.054 HD
ATOM     30  H   UNL     1     151.186 167.939 190.636  0.00  0.00    +0.054 HD
ATOM     31  H   UNL     1     148.133 166.431 191.892  0.00  0.00    +0.035 HD
ATOM     32  H   UNL     1     146.649 168.247 191.719  0.00  0.00    +0.034 HD
ATOM     33  H   UNL     1     144.780 168.608 189.893  0.00  0.00    +0.079 HD
ATOM     34  H   UNL     1     144.349 167.386 187.766  0.00  0.00    +0.061 HD
ATOM     35  H   UNL     1     143.172 165.501 189.879  0.00  0.00    +0.060 HD
ATOM     36  H   UNL     1     147.887 170.143 188.252  0.00  0.00    +0.149 HD
ATOM     37  H   UNL     1     148.752 169.796 190.510  0.00  0.00    +0.050 HD
ENDROOT
BRANCH   1  38
ATOM     38  C   UNL     1     143.245 162.327 186.029  0.00  0.00    -0.055 C 
ATOM     39  H   UNL     1     142.246 161.907 186.197  0.00  0.00    +0.024 HD
ATOM     40  H   UNL     1     143.853 161.566 185.531  0.00  0.00    +0.024 HD
ATOM     41  H   UNL     1     143.134 163.171 185.340  0.00  0.00    +0.024 HD
ENDBRANCH   1  38
BRANCH  15  42
ATOM     42  C   UNL     1     141.158 165.376 187.795  0.00  0.00    -0.025 C 
ATOM     43  H   UNL     1     140.918 166.431 187.618  0.00  0.00    +0.026 HD
ATOM     44  H   UNL     1     140.726 165.092 188.762  0.00  0.00    +0.026 HD
ATOM     45  H   UNL     1     140.646 164.776 187.034  0.00  0.00    +0.026 HD
ENDBRANCH  15  42
BRANCH   9  46
ATOM     46  C   UNL     1     149.282 168.050 192.545  0.00  0.00    -0.058 C 
ATOM     47  H   UNL     1     149.100 169.129 192.501  0.00  0.00    +0.024 HD
ATOM     48  H   UNL     1     150.363 167.889 192.520  0.00  0.00    +0.024 HD
ATOM     49  H   UNL     1     148.922 167.700 193.520  0.00  0.00    +0.024 HD
ENDBRANCH   9  46
BRANCH  21  50
ATOM     50  C   UNL     1     146.820 170.693 190.895  0.00  0.00    -0.009 C 
ATOM     51  H   UNL     1     146.457 171.312 190.062  0.00  0.00    +0.033 HD
ATOM     52  H   UNL     1     145.915 170.289 191.362  0.00  0.00    +0.033 HD
BRANCH  50  53
ATOM     53  C   UNL     1     147.543 171.604 191.858  0.00  0.00    -0.046 A 
ATOM     54  C   UNL     1     146.846 172.603 192.549  0.00  0.00    -0.059 A 
ATOM     55  C   UNL     1     147.511 173.438 193.449  0.00  0.00    -0.062 A 
ATOM     56  C   UNL     1     148.879 173.287 193.662  0.00  0.00    -0.062 A 
ATOM     57  C   UNL     1     149.585 172.306 192.970  0.00  0.00    -0.062 A 
ATOM     58  C   UNL     1     148.922 171.471 192.069  0.00  0.00    -0.059 A 
ATOM     59  H   UNL     1     145.780 172.749 192.386  0.00  0.00    +0.062 HD
ATOM     60  H   UNL     1     146.960 174.213 193.978  0.00  0.00    +0.062 HD
ATOM     61  H   UNL     1     149.395 173.939 194.360  0.00  0.00    +0.062 HD
ATOM     62  H   UNL     1     150.655 172.193 193.129  0.00  0.00    +0.062 HD
ATOM     63  H   UNL     1     149.493 170.716 191.532  0.00  0.00    +0.062 HD
ENDBRANCH  50  53
ENDBRANCH  21  50
BRANCH  15  64
ATOM     64  O   UNL     1     143.130 165.485 186.499  0.00  0.00    -0.377 OA
ATOM     65  H   UNL     1     142.435 165.283 185.852  0.00  0.00    +0.211 HD
ENDBRANCH  15  64
BRANCH   6  66
ATOM     66  O   UNL     1     149.126 164.589 189.694  0.00  0.00    -0.387 OA
ATOM     67  H   UNL     1     148.393 163.977 189.511  0.00  0.00    +0.210 HD
ENDBRANCH   6  66
BRANCH  12  68
ATOM     68  O   UNL     1     144.713 166.889 191.103  0.00  0.00    -0.456 OA
BRANCH  68  69
ATOM     69  C   UNL     1     143.818 167.513 191.914  0.00  0.00    +0.305 C 
ATOM     70  O   UNL     1     143.485 168.686 191.842  0.00  0.00    -0.251 OA
BRANCH  69  71
ATOM     71  C   UNL     1     143.313 166.552 192.946  0.00  0.00    +0.033 C 
ATOM     72  H   UNL     1     144.156 166.009 193.381  0.00  0.00    +0.034 HD
ATOM     73  H   UNL     1     142.805 167.099 193.745  0.00  0.00    +0.034 HD
ATOM     74  H   UNL     1     142.634 165.833 192.481  0.00  0.00    +0.034 HD
ENDBRANCH  69  71
ENDBRANCH  68  69
ENDBRANCH  12  68
TORSDOF 10
ENDMDL
MODEL 7
REMARK VINA RESULT:      -6.3      3.016      4.150
REMARK  Name = Cytochalasin D_conf3
REMARK  10 active torsions:
REMARK  status: ('A' for Active; 'I' for Inactive)
REMARK    1  A    between atoms: C_1  and  C_2
REMARK    2  A    between atoms: C_7  and  O_37
REMARK    3  A    between atoms: C_10  and  C_36
REMARK    4  A    between atoms: C_13  and  O_21
REMARK    5  A    between atoms: C_16  and  C_19
REMARK    6  A    between atoms: C_16  and  O_20
REMARK    7  A    between atoms: O_21  and  C_22
REMARK    8  A    between atoms: C_22  and  C_24
REMARK    9  A    between atoms: C_28  and  C_29
REMARK   10  A    between atoms: C_29  and  C_30
REMARK                            x       y       z     vdW  Elec       q    Type
REMARK                         _______ _______ _______ _____ _____    ______ ____
ROOT
ATOM      1  C   UNL     1     146.462 161.025 188.407  0.00  0.00    +0.021 C 
ATOM      2  C   UNL     1     147.777 161.597 188.959  0.00  0.00    -0.025 C 
ATOM      3  C   UNL     1     147.622 162.561 190.106  0.00  0.00    -0.087 C 
ATOM      4  C   UNL     1     148.282 163.733 190.163  0.00  0.00    -0.081 C 
ATOM      5  C   UNL     1     148.119 164.791 191.255  0.00  0.00    +0.025 C 
ATOM      6  C   UNL     1     149.435 164.802 192.095  0.00  0.00    +0.084 C 
ATOM      7  C   UNL     1     149.560 165.991 193.017  0.00  0.00    -0.045 C 
ATOM      8  C   UNL     1     150.760 166.378 193.486  0.00  0.00    -0.097 C 
ATOM      9  C   UNL     1     148.246 166.674 193.310  0.00  0.00    -0.015 C 
ATOM     10  C   UNL     1     147.673 167.268 191.994  0.00  0.00    +0.002 C 
ATOM     11  C   UNL     1     147.726 166.239 190.773  0.00  0.00    +0.101 C 
ATOM     12  C   UNL     1     146.374 166.324 189.984  0.00  0.00    +0.136 C 
ATOM     13  C   UNL     1     146.285 165.438 188.754  0.00  0.00    -0.044 C 
ATOM     14  C   UNL     1     145.427 164.415 188.580  0.00  0.00    -0.046 C 
ATOM     15  C   UNL     1     145.451 163.348 187.502  0.00  0.00    +0.139 C 
ATOM     16  C   UNL     1     145.287 161.993 188.261  0.00  0.00    +0.171 C 
ATOM     17  O   UNL     1     144.202 161.685 188.777  0.00  0.00    -0.294 OA
ATOM     18  C   UNL     1     148.822 166.836 189.902  0.00  0.00    +0.224 C 
ATOM     19  O   UNL     1     149.361 166.314 188.940  0.00  0.00    -0.275 OA
ATOM     20  N   UNL     1     149.126 168.097 190.329  0.00  0.00    -0.311 N 
ATOM     21  C   UNL     1     148.414 168.535 191.497  0.00  0.00    +0.032 C 
ATOM     22  H   UNL     1     146.121 160.281 189.143  0.00  0.00    +0.038 HD
ATOM     23  H   UNL     1     148.359 162.057 188.151  0.00  0.00    +0.031 HD
ATOM     24  H   UNL     1     148.389 160.757 189.316  0.00  0.00    +0.031 HD
ATOM     25  H   UNL     1     146.924 162.290 190.897  0.00  0.00    +0.057 HD
ATOM     26  H   UNL     1     148.998 163.965 189.374  0.00  0.00    +0.057 HD
ATOM     27  H   UNL     1     147.307 164.438 191.907  0.00  0.00    +0.038 HD
ATOM     28  H   UNL     1     150.313 164.760 191.435  0.00  0.00    +0.065 HD
ATOM     29  H   UNL     1     151.661 165.826 193.234  0.00  0.00    +0.054 HD
ATOM     30  H   UNL     1     150.886 167.228 194.148  0.00  0.00    +0.054 HD
ATOM     31  H   UNL     1     147.551 165.888 193.640  0.00  0.00    +0.035 HD
ATOM     32  H   UNL     1     146.635 167.529 192.227  0.00  0.00    +0.034 HD
ATOM     33  H   UNL     1     146.243 167.352 189.625  0.00  0.00    +0.079 HD
ATOM     34  H   UNL     1     147.031 165.647 187.990  0.00  0.00    +0.061 HD
ATOM     35  H   UNL     1     144.662 164.244 189.340  0.00  0.00    +0.060 HD
ATOM     36  H   UNL     1     149.850 168.631 189.861  0.00  0.00    +0.149 HD
ATOM     37  H   UNL     1     149.183 168.867 192.199  0.00  0.00    +0.050 HD
ENDROOT
BRANCH   1  38
ATOM     38  C   UNL     1     146.683 160.270 187.098  0.00  0.00    -0.055 C 
ATOM     39  H   UNL     1     146.242 159.267 187.146  0.00  0.00    +0.024 HD
ATOM     40  H   UNL     1     147.752 160.160 186.890  0.00  0.00    +0.024 HD
ATOM     41  H   UNL     1     146.227 160.787 186.248  0.00  0.00    +0.024 HD
ENDBRANCH   1  38
BRANCH  15  42
ATOM     42  C   UNL     1     144.260 163.527 186.559  0.00  0.00    -0.025 C 
ATOM     43  H   UNL     1     144.087 164.577 186.297  0.00  0.00    +0.026 HD
ATOM     44  H   UNL     1     143.343 163.143 187.022  0.00  0.00    +0.026 HD
ATOM     45  H   UNL     1     144.404 162.961 185.631  0.00  0.00    +0.026 HD
ENDBRANCH  15  42
BRANCH   9  46
ATOM     46  C   UNL     1     148.244 167.675 194.473  0.00  0.00    -0.058 C 
ATOM     47  H   UNL     1     148.951 168.489 194.278  0.00  0.00    +0.024 HD
ATOM     48  H   UNL     1     148.509 167.222 195.432  0.00  0.00    +0.024 HD
ATOM     49  H   UNL     1     147.252 168.126 194.588  0.00  0.00    +0.024 HD
ENDBRANCH   9  46
BRANCH  21  50
ATOM     50  C   UNL     1     147.491 169.722 191.154  0.00  0.00    -0.009 C 
ATOM     51  H   UNL     1     147.533 169.917 190.073  0.00  0.00    +0.033 HD
ATOM     52  H   UNL     1     146.444 169.467 191.354  0.00  0.00    +0.033 HD
BRANCH  50  53
ATOM     53  C   UNL     1     147.861 171.002 191.863  0.00  0.00    -0.046 A 
ATOM     54  C   UNL     1     149.149 171.179 192.385  0.00  0.00    -0.059 A 
ATOM     55  C   UNL     1     149.496 172.368 193.031  0.00  0.00    -0.062 A 
ATOM     56  C   UNL     1     148.557 173.388 193.167  0.00  0.00    -0.062 A 
ATOM     57  C   UNL     1     147.268 173.217 192.665  0.00  0.00    -0.062 A 
ATOM     58  C   UNL     1     146.920 172.030 192.020  0.00  0.00    -0.059 A 
ATOM     59  H   UNL     1     149.893 170.389 192.303  0.00  0.00    +0.062 HD
ATOM     60  H   UNL     1     150.498 172.493 193.434  0.00  0.00    +0.062 HD
ATOM     61  H   UNL     1     148.827 174.310 193.672  0.00  0.00    +0.062 HD
ATOM     62  H   UNL     1     146.533 174.009 192.780  0.00  0.00    +0.062 HD
ATOM     63  H   UNL     1     145.907 171.913 191.643  0.00  0.00    +0.062 HD
ENDBRANCH  50  53
ENDBRANCH  21  50
BRANCH  15  64
ATOM     64  O   UNL     1     146.616 163.439 186.702  0.00  0.00    -0.377 OA
ATOM     65  H   UNL     1     146.875 162.542 186.437  0.00  0.00    +0.211 HD
ENDBRANCH  15  64
BRANCH   6  66
ATOM     66  O   UNL     1     149.465 163.643 192.931  0.00  0.00    -0.387 OA
ATOM     67  H   UNL     1     149.212 163.936 193.823  0.00  0.00    +0.210 HD
ENDBRANCH   6  66
BRANCH  12  68
ATOM     68  O   UNL     1     145.313 165.961 190.898  0.00  0.00    -0.456 OA
BRANCH  68  69
ATOM     69  C   UNL     1     144.469 166.950 191.295  0.00  0.00    +0.305 C 
ATOM     70  O   UNL     1     144.254 167.991 190.692  0.00  0.00    -0.251 OA
BRANCH  69  71
ATOM     71  C   UNL     1     143.852 166.594 192.613  0.00  0.00    +0.033 C 
ATOM     72  H   UNL     1     144.091 167.369 193.346  0.00  0.00    +0.034 HD
ATOM     73  H   UNL     1     142.765 166.537 192.511  0.00  0.00    +0.034 HD
ATOM     74  H   UNL     1     144.256 165.640 192.964  0.00  0.00    +0.034 HD
ENDBRANCH  69  71
ENDBRANCH  68  69
ENDBRANCH  12  68
TORSDOF 10
ENDMDL
MODEL 8
REMARK VINA RESULT:      -6.1      3.392      7.428
REMARK  Name = Cytochalasin D_conf3
REMARK  10 active torsions:
REMARK  status: ('A' for Active; 'I' for Inactive)
REMARK    1  A    between atoms: C_1  and  C_2
REMARK    2  A    between atoms: C_7  and  O_37
REMARK    3  A    between atoms: C_10  and  C_36
REMARK    4  A    between atoms: C_13  and  O_21
REMARK    5  A    between atoms: C_16  and  C_19
REMARK    6  A    between atoms: C_16  and  O_20
REMARK    7  A    between atoms: O_21  and  C_22
REMARK    8  A    between atoms: C_22  and  C_24
REMARK    9  A    between atoms: C_28  and  C_29
REMARK   10  A    between atoms: C_29  and  C_30
REMARK                            x       y       z     vdW  Elec       q    Type
REMARK                         _______ _______ _______ _____ _____    ______ ____
ROOT
ATOM      1  C   UNL     1     142.439 166.931 186.892  0.00  0.00    +0.021 C 
ATOM      2  C   UNL     1     143.915 166.648 186.570  0.00  0.00    -0.025 C 
ATOM      3  C   UNL     1     144.665 165.885 187.630  0.00  0.00    -0.087 C 
ATOM      4  C   UNL     1     145.891 166.246 188.053  0.00  0.00    -0.081 C 
ATOM      5  C   UNL     1     146.680 165.567 189.173  0.00  0.00    +0.025 C 
ATOM      6  C   UNL     1     147.884 164.825 188.512  0.00  0.00    +0.084 C 
ATOM      7  C   UNL     1     148.929 164.359 189.499  0.00  0.00    -0.045 C 
ATOM      8  C   UNL     1     150.184 164.088 189.099  0.00  0.00    -0.097 C 
ATOM      9  C   UNL     1     148.424 164.266 190.919  0.00  0.00    -0.015 C 
ATOM     10  C   UNL     1     148.032 165.684 191.417  0.00  0.00    +0.002 C 
ATOM     11  C   UNL     1     147.147 166.491 190.361  0.00  0.00    +0.101 C 
ATOM     12  C   UNL     1     145.986 167.216 191.125  0.00  0.00    +0.136 C 
ATOM     13  C   UNL     1     145.079 168.074 190.262  0.00  0.00    -0.044 C 
ATOM     14  C   UNL     1     143.766 167.866 190.048  0.00  0.00    -0.046 C 
ATOM     15  C   UNL     1     142.870 168.525 189.016  0.00  0.00    +0.139 C 
ATOM     16  C   UNL     1     142.107 167.351 188.325  0.00  0.00    +0.171 C 
ATOM     17  O   UNL     1     141.227 166.724 188.934  0.00  0.00    -0.294 OA
ATOM     18  C   UNL     1     148.125 167.550 189.870  0.00  0.00    +0.224 C 
ATOM     19  O   UNL     1     147.978 168.300 188.919  0.00  0.00    -0.275 OA
ATOM     20  N   UNL     1     149.226 167.580 190.676  0.00  0.00    -0.311 N 
ATOM     21  C   UNL     1     149.242 166.602 191.728  0.00  0.00    +0.032 C 
ATOM     22  H   UNL     1     141.908 165.976 186.752  0.00  0.00    +0.038 HD
ATOM     23  H   UNL     1     144.436 167.583 186.332  0.00  0.00    +0.031 HD
ATOM     24  H   UNL     1     143.952 166.052 185.648  0.00  0.00    +0.031 HD
ATOM     25  H   UNL     1     144.167 165.025 188.075  0.00  0.00    +0.057 HD
ATOM     26  H   UNL     1     146.380 167.092 187.568  0.00  0.00    +0.057 HD
ATOM     27  H   UNL     1     146.011 164.806 189.602  0.00  0.00    +0.038 HD
ATOM     28  H   UNL     1     148.360 165.463 187.755  0.00  0.00    +0.065 HD
ATOM     29  H   UNL     1     150.465 164.172 188.053  0.00  0.00    +0.054 HD
ATOM     30  H   UNL     1     150.958 163.753 189.780  0.00  0.00    +0.054 HD
ATOM     31  H   UNL     1     147.502 163.668 190.885  0.00  0.00    +0.035 HD
ATOM     32  H   UNL     1     147.465 165.516 192.339  0.00  0.00    +0.034 HD
ATOM     33  H   UNL     1     146.425 167.893 191.867  0.00  0.00    +0.079 HD
ATOM     34  H   UNL     1     145.582 168.890 189.746  0.00  0.00    +0.061 HD
ATOM     35  H   UNL     1     143.270 167.066 190.602  0.00  0.00    +0.060 HD
ATOM     36  H   UNL     1     149.984 168.224 190.477  0.00  0.00    +0.149 HD
ATOM     37  H   UNL     1     150.196 166.079 191.624  0.00  0.00    +0.050 HD
ENDROOT
BRANCH   1  38
ATOM     38  C   UNL     1     141.826 167.919 185.902  0.00  0.00    -0.055 C 
ATOM     39  H   UNL     1     142.465 168.801 185.783  0.00  0.00    +0.024 HD
ATOM     40  H   UNL     1     140.845 168.256 186.251  0.00  0.00    +0.024 HD
ATOM     41  H   UNL     1     141.695 167.473 184.911  0.00  0.00    +0.024 HD
ENDBRANCH   1  38
BRANCH  15  42
ATOM     42  C   UNL     1     141.850 169.431 189.708  0.00  0.00    -0.025 C 
ATOM     43  H   UNL     1     141.965 169.437 190.798  0.00  0.00    +0.026 HD
ATOM     44  H   UNL     1     140.829 169.103 189.481  0.00  0.00    +0.026 HD
ATOM     45  H   UNL     1     141.935 170.464 189.349  0.00  0.00    +0.026 HD
ENDBRANCH  15  42
BRANCH   9  46
ATOM     46  C   UNL     1     149.317 163.506 191.909  0.00  0.00    -0.058 C 
ATOM     47  H   UNL     1     149.562 162.512 191.518  0.00  0.00    +0.024 HD
ATOM     48  H   UNL     1     148.857 163.377 192.892  0.00  0.00    +0.024 HD
ATOM     49  H   UNL     1     150.263 164.039 192.058  0.00  0.00    +0.024 HD
ENDBRANCH   9  46
BRANCH  21  50
ATOM     50  C   UNL     1     149.185 167.290 193.106  0.00  0.00    -0.009 C 
ATOM     51  H   UNL     1     149.712 168.253 193.056  0.00  0.00    +0.033 HD
ATOM     52  H   UNL     1     148.152 167.547 193.366  0.00  0.00    +0.033 HD
BRANCH  50  53
ATOM     53  C   UNL     1     149.816 166.482 194.214  0.00  0.00    -0.046 A 
ATOM     54  C   UNL     1     149.124 166.253 195.410  0.00  0.00    -0.059 A 
ATOM     55  C   UNL     1     149.702 165.496 196.431  0.00  0.00    -0.062 A 
ATOM     56  C   UNL     1     150.980 164.967 196.269  0.00  0.00    -0.062 A 
ATOM     57  C   UNL     1     151.685 165.200 195.090  0.00  0.00    -0.062 A 
ATOM     58  C   UNL     1     151.109 165.957 194.069  0.00  0.00    -0.059 A 
ATOM     59  H   UNL     1     148.130 166.670 195.563  0.00  0.00    +0.062 HD
ATOM     60  H   UNL     1     149.156 165.327 197.356  0.00  0.00    +0.062 HD
ATOM     61  H   UNL     1     151.430 164.381 197.065  0.00  0.00    +0.062 HD
ATOM     62  H   UNL     1     152.686 164.795 194.967  0.00  0.00    +0.062 HD
ATOM     63  H   UNL     1     151.678 166.135 193.160  0.00  0.00    +0.062 HD
ENDBRANCH  50  53
ENDBRANCH  21  50
BRANCH  15  64
ATOM     64  O   UNL     1     143.610 169.350 188.133  0.00  0.00    -0.377 OA
ATOM     65  H   UNL     1     143.099 169.454 187.315  0.00  0.00    +0.211 HD
ENDBRANCH  15  64
BRANCH   6  66
ATOM     66  O   UNL     1     147.405 163.651 187.852  0.00  0.00    -0.387 OA
ATOM     67  H   UNL     1     146.978 163.102 188.533  0.00  0.00    +0.210 HD
ENDBRANCH   6  66
BRANCH  12  68
ATOM     68  O   UNL     1     145.188 166.196 191.771  0.00  0.00    -0.456 OA
BRANCH  68  69
ATOM     69  C   UNL     1     144.820 166.419 193.060  0.00  0.00    +0.305 C 
ATOM     70  O   UNL     1     143.844 167.057 193.425  0.00  0.00    -0.251 OA
BRANCH  69  71
ATOM     71  C   UNL     1     145.813 165.789 193.988  0.00  0.00    +0.033 C 
ATOM     72  H   UNL     1     146.805 166.206 193.795  0.00  0.00    +0.034 HD
ATOM     73  H   UNL     1     145.543 166.006 195.025  0.00  0.00    +0.034 HD
ATOM     74  H   UNL     1     145.846 164.709 193.817  0.00  0.00    +0.034 HD
ENDBRANCH  69  71
ENDBRANCH  68  69
ENDBRANCH  12  68
TORSDOF 10
ENDMDL
MODEL 9
REMARK VINA RESULT:      -6.0      4.431      7.018
REMARK  Name = Cytochalasin D_conf3
REMARK  10 active torsions:
REMARK  status: ('A' for Active; 'I' for Inactive)
REMARK    1  A    between atoms: C_1  and  C_2
REMARK    2  A    between atoms: C_7  and  O_37
REMARK    3  A    between atoms: C_10  and  C_36
REMARK    4  A    between atoms: C_13  and  O_21
REMARK    5  A    between atoms: C_16  and  C_19
REMARK    6  A    between atoms: C_16  and  O_20
REMARK    7  A    between atoms: O_21  and  C_22
REMARK    8  A    between atoms: C_22  and  C_24
REMARK    9  A    between atoms: C_28  and  C_29
REMARK   10  A    between atoms: C_29  and  C_30
REMARK                            x       y       z     vdW  Elec       q    Type
REMARK                         _______ _______ _______ _____ _____    ______ ____
ROOT
ATOM      1  C   UNL     1     147.582 165.460 188.956  0.00  0.00    +0.021 C 
ATOM      2  C   UNL     1     148.281 166.824 188.837  0.00  0.00    -0.025 C 
ATOM      3  C   UNL     1     147.853 167.852 189.852  0.00  0.00    -0.087 C 
ATOM      4  C   UNL     1     147.563 169.123 189.517  0.00  0.00    -0.081 C 
ATOM      5  C   UNL     1     147.053 170.199 190.477  0.00  0.00    +0.025 C 
ATOM      6  C   UNL     1     148.200 171.241 190.663  0.00  0.00    +0.084 C 
ATOM      7  C   UNL     1     147.759 172.519 191.336  0.00  0.00    -0.045 C 
ATOM      8  C   UNL     1     148.477 173.650 191.207  0.00  0.00    -0.097 C 
ATOM      9  C   UNL     1     146.468 172.387 192.106  0.00  0.00    -0.015 C 
ATOM     10  C   UNL     1     145.315 172.054 191.120  0.00  0.00    +0.002 C 
ATOM     11  C   UNL     1     145.693 170.895 190.089  0.00  0.00    +0.101 C 
ATOM     12  C   UNL     1     144.471 169.922 189.955  0.00  0.00    +0.136 C 
ATOM     13  C   UNL     1     144.654 168.785 188.965  0.00  0.00    -0.044 C 
ATOM     14  C   UNL     1     144.676 167.473 189.267  0.00  0.00    -0.046 C 
ATOM     15  C   UNL     1     145.098 166.317 188.380  0.00  0.00    +0.139 C 
ATOM     16  C   UNL     1     146.081 165.470 189.249  0.00  0.00    +0.171 C 
ATOM     17  O   UNL     1     145.663 164.802 190.207  0.00  0.00    -0.294 OA
ATOM     18  C   UNL     1     145.832 171.664 188.783  0.00  0.00    +0.224 C 
ATOM     19  O   UNL     1     146.290 171.247 187.731  0.00  0.00    -0.275 OA
ATOM     20  N   UNL     1     145.334 172.927 188.927  0.00  0.00    -0.311 N 
ATOM     21  C   UNL     1     144.866 173.253 190.246  0.00  0.00    +0.032 C 
ATOM     22  H   UNL     1     148.033 164.963 189.829  0.00  0.00    +0.038 HD
ATOM     23  H   UNL     1     148.166 167.220 187.821  0.00  0.00    +0.031 HD
ATOM     24  H   UNL     1     149.360 166.664 188.966  0.00  0.00    +0.031 HD
ATOM     25  H   UNL     1     147.758 167.525 190.886  0.00  0.00    +0.057 HD
ATOM     26  H   UNL     1     147.697 169.431 188.480  0.00  0.00    +0.057 HD
ATOM     27  H   UNL     1     146.893 169.698 191.443  0.00  0.00    +0.038 HD
ATOM     28  H   UNL     1     148.663 171.480 189.696  0.00  0.00    +0.065 HD
ATOM     29  H   UNL     1     149.403 173.660 190.639  0.00  0.00    +0.054 HD
ATOM     30  H   UNL     1     148.189 174.585 191.674  0.00  0.00    +0.054 HD
ATOM     31  H   UNL     1     146.587 171.518 192.770  0.00  0.00    +0.035 HD
ATOM     32  H   UNL     1     144.478 171.743 191.754  0.00  0.00    +0.034 HD
ATOM     33  H   UNL     1     143.605 170.493 189.601  0.00  0.00    +0.079 HD
ATOM     34  H   UNL     1     144.831 169.102 187.939  0.00  0.00    +0.061 HD
ATOM     35  H   UNL     1     144.460 167.173 190.294  0.00  0.00    +0.060 HD
ATOM     36  H   UNL     1     145.363 173.577 188.149  0.00  0.00    +0.149 HD
ATOM     37  H   UNL     1     145.381 174.179 190.516  0.00  0.00    +0.050 HD
ENDROOT
BRANCH   1  38
ATOM     38  C   UNL     1     147.874 164.570 187.750  0.00  0.00    -0.055 C 
ATOM     39  H   UNL     1     146.977 164.438 187.136  0.00  0.00    +0.024 HD
ATOM     40  H   UNL     1     148.212 163.580 188.074  0.00  0.00    +0.024 HD
ATOM     41  H   UNL     1     148.651 164.996 187.109  0.00  0.00    +0.024 HD
ENDBRANCH   1  38
BRANCH  15  42
ATOM     42  C   UNL     1     143.885 165.452 188.031  0.00  0.00    -0.025 C 
ATOM     43  H   UNL     1     144.106 164.380 188.080  0.00  0.00    +0.026 HD
ATOM     44  H   UNL     1     143.534 165.676 187.017  0.00  0.00    +0.026 HD
ATOM     45  H   UNL     1     143.046 165.660 188.706  0.00  0.00    +0.026 HD
ENDBRANCH  15  42
BRANCH   9  46
ATOM     46  C   UNL     1     146.128 173.535 193.065  0.00  0.00    -0.058 C 
ATOM     47  H   UNL     1     145.464 173.184 193.863  0.00  0.00    +0.024 HD
ATOM     48  H   UNL     1     145.642 174.380 192.570  0.00  0.00    +0.024 HD
ATOM     49  H   UNL     1     147.038 173.916 193.544  0.00  0.00    +0.024 HD
ENDBRANCH   9  46
BRANCH  21  50
ATOM     50  C   UNL     1     143.345 173.502 190.233  0.00  0.00    -0.009 C 
ATOM     51  H   UNL     1     143.097 174.210 189.430  0.00  0.00    +0.033 HD
ATOM     52  H   UNL     1     142.806 172.583 189.975  0.00  0.00    +0.033 HD
BRANCH  50  53
ATOM     53  C   UNL     1     142.813 174.073 191.525  0.00  0.00    -0.046 A 
ATOM     54  C   UNL     1     141.886 173.354 192.291  0.00  0.00    -0.059 A 
ATOM     55  C   UNL     1     141.402 173.876 193.492  0.00  0.00    -0.062 A 
ATOM     56  C   UNL     1     141.833 175.124 193.936  0.00  0.00    -0.062 A 
ATOM     57  C   UNL     1     142.743 175.855 193.174  0.00  0.00    -0.062 A 
ATOM     58  C   UNL     1     143.227 175.335 191.974  0.00  0.00    -0.059 A 
ATOM     59  H   UNL     1     141.524 172.384 191.955  0.00  0.00    +0.062 HD
ATOM     60  H   UNL     1     140.681 173.310 194.077  0.00  0.00    +0.062 HD
ATOM     61  H   UNL     1     141.454 175.530 194.868  0.00  0.00    +0.062 HD
ATOM     62  H   UNL     1     143.073 176.833 193.515  0.00  0.00    +0.062 HD
ATOM     63  H   UNL     1     143.931 175.924 191.390  0.00  0.00    +0.062 HD
ENDBRANCH  50  53
ENDBRANCH  21  50
BRANCH  15  64
ATOM     64  O   UNL     1     145.637 166.771 187.151  0.00  0.00    -0.377 OA
ATOM     65  H   UNL     1     146.320 167.432 187.344  0.00  0.00    +0.211 HD
ENDBRANCH  15  64
BRANCH   6  66
ATOM     66  O   UNL     1     149.212 170.677 191.501  0.00  0.00    -0.387 OA
ATOM     67  H   UNL     1     149.522 169.868 191.058  0.00  0.00    +0.210 HD
ENDBRANCH   6  66
BRANCH  12  68
ATOM     68  O   UNL     1     144.216 169.362 191.266  0.00  0.00    -0.456 OA
BRANCH  68  69
ATOM     69  C   UNL     1     142.927 169.051 191.567  0.00  0.00    +0.305 C 
ATOM     70  O   UNL     1     142.559 168.087 192.222  0.00  0.00    -0.251 OA
BRANCH  69  71
ATOM     71  C   UNL     1     142.004 170.055 190.947  0.00  0.00    +0.033 C 
ATOM     72  H   UNL     1     140.973 169.699 191.030  0.00  0.00    +0.034 HD
ATOM     73  H   UNL     1     142.083 171.008 191.475  0.00  0.00    +0.034 HD
ATOM     74  H   UNL     1     142.249 170.179 189.889  0.00  0.00    +0.034 HD
ENDBRANCH  69  71
ENDBRANCH  68  69
ENDBRANCH  12  68
TORSDOF 10
ENDMDL
MODEL 10
REMARK VINA RESULT:      -5.9     17.307     19.982
REMARK  Name = Cytochalasin D_conf3
REMARK  10 active torsions:
REMARK  status: ('A' for Active; 'I' for Inactive)
REMARK    1  A    between atoms: C_1  and  C_2
REMARK    2  A    between atoms: C_7  and  O_37
REMARK    3  A    between atoms: C_10  and  C_36
REMARK    4  A    between atoms: C_13  and  O_21
REMARK    5  A    between atoms: C_16  and  C_19
REMARK    6  A    between atoms: C_16  and  O_20
REMARK    7  A    between atoms: O_21  and  C_22
REMARK    8  A    between atoms: C_22  and  C_24
REMARK    9  A    between atoms: C_28  and  C_29
REMARK   10  A    between atoms: C_29  and  C_30
REMARK                            x       y       z     vdW  Elec       q    Type
REMARK                         _______ _______ _______ _____ _____    ______ ____
ROOT
ATOM      1  C   UNL     1     136.530 174.090 196.657  0.00  0.00    +0.021 C 
ATOM      2  C   UNL     1     136.915 175.563 196.451  0.00  0.00    -0.025 C 
ATOM      3  C   UNL     1     137.872 176.121 197.472  0.00  0.00    -0.087 C 
ATOM      4  C   UNL     1     137.687 177.317 198.060  0.00  0.00    -0.081 C 
ATOM      5  C   UNL     1     138.572 177.915 199.156  0.00  0.00    +0.025 C 
ATOM      6  C   UNL     1     139.343 179.119 198.529  0.00  0.00    +0.084 C 
ATOM      7  C   UNL     1     140.026 180.002 199.546  0.00  0.00    -0.045 C 
ATOM      8  C   UNL     1     140.369 181.266 199.243  0.00  0.00    -0.097 C 
ATOM      9  C   UNL     1     140.241 179.334 200.884  0.00  0.00    -0.015 C 
ATOM     10  C   UNL     1     138.862 179.010 201.521  0.00  0.00    +0.002 C 
ATOM     11  C   UNL     1     137.849 178.322 200.496  0.00  0.00    +0.101 C 
ATOM     12  C   UNL     1     137.111 177.148 201.227  0.00  0.00    +0.136 C 
ATOM     13  C   UNL     1     136.070 176.420 200.397  0.00  0.00    -0.044 C 
ATOM     14  C   UNL     1     136.120 175.126 200.026  0.00  0.00    -0.046 C 
ATOM     15  C   UNL     1     135.256 174.412 199.004  0.00  0.00    +0.139 C 
ATOM     16  C   UNL     1     136.256 173.635 198.092  0.00  0.00    +0.171 C 
ATOM     17  O   UNL     1     136.862 172.641 198.521  0.00  0.00    -0.294 OA
ATOM     18  C   UNL     1     136.840 179.435 200.249  0.00  0.00    +0.224 C 
ATOM     19  O   UNL     1     135.970 179.461 199.395  0.00  0.00    -0.275 OA
ATOM     20  N   UNL     1     137.017 180.437 201.160  0.00  0.00    -0.311 N 
ATOM     21  C   UNL     1     138.112 180.250 202.070  0.00  0.00    +0.032 C 
ATOM     22  H   UNL     1     137.403 173.499 196.339  0.00  0.00    +0.038 HD
ATOM     23  H   UNL     1     136.014 176.185 196.392  0.00  0.00    +0.031 HD
ATOM     24  H   UNL     1     137.396 175.653 195.467  0.00  0.00    +0.031 HD
ATOM     25  H   UNL     1     138.726 175.504 197.748  0.00  0.00    +0.057 HD
ATOM     26  H   UNL     1     136.842 177.928 197.743  0.00  0.00    +0.057 HD
ATOM     27  H   UNL     1     139.310 177.140 199.411  0.00  0.00    +0.038 HD
ATOM     28  H   UNL     1     138.668 179.729 197.913  0.00  0.00    +0.065 HD
ATOM     29  H   UNL     1     140.187 181.670 198.251  0.00  0.00    +0.054 HD
ATOM     30  H   UNL     1     140.858 181.928 199.949  0.00  0.00    +0.054 HD
ATOM     31  H   UNL     1     140.736 178.374 200.678  0.00  0.00    +0.035 HD
ATOM     32  H   UNL     1     139.084 178.331 202.350  0.00  0.00    +0.034 HD
ATOM     33  H   UNL     1     136.576 177.556 202.092  0.00  0.00    +0.079 HD
ATOM     34  H   UNL     1     135.251 177.046 200.047  0.00  0.00    +0.061 HD
ATOM     35  H   UNL     1     136.929 174.505 200.417  0.00  0.00    +0.060 HD
ATOM     36  H   UNL     1     136.431 181.264 201.125  0.00  0.00    +0.149 HD
ATOM     37  H   UNL     1     138.711 181.163 201.996  0.00  0.00    +0.050 HD
ENDROOT
BRANCH   1  38
ATOM     38  C   UNL     1     135.374 173.678 195.748  0.00  0.00    -0.055 C 
ATOM     39  H   UNL     1     135.392 174.246 194.811  0.00  0.00    +0.024 HD
ATOM     40  H   UNL     1     134.412 173.863 196.238  0.00  0.00    +0.024 HD
ATOM     41  H   UNL     1     135.419 172.616 195.489  0.00  0.00    +0.024 HD
ENDBRANCH   1  38
BRANCH  15  42
ATOM     42  C   UNL     1     134.344 173.402 199.702  0.00  0.00    -0.025 C 
ATOM     43  H   UNL     1     133.730 173.862 200.485  0.00  0.00    +0.026 HD
ATOM     44  H   UNL     1     134.938 172.606 200.166  0.00  0.00    +0.026 HD
ATOM     45  H   UNL     1     133.673 172.915 198.983  0.00  0.00    +0.026 HD
ENDBRANCH  15  42
BRANCH   9  46
ATOM     46  C   UNL     1     141.200 180.042 201.850  0.00  0.00    -0.058 C 
ATOM     47  H   UNL     1     141.424 179.398 202.707  0.00  0.00    +0.024 HD
ATOM     48  H   UNL     1     140.805 180.987 202.233  0.00  0.00    +0.024 HD
ATOM     49  H   UNL     1     142.150 180.263 201.351  0.00  0.00    +0.024 HD
ENDBRANCH   9  46
BRANCH  21  50
ATOM     50  C   UNL     1     137.594 180.097 203.514  0.00  0.00    -0.009 C 
ATOM     51  H   UNL     1     136.809 180.844 203.702  0.00  0.00    +0.033 HD
ATOM     52  H   UNL     1     137.100 179.128 203.645  0.00  0.00    +0.033 HD
BRANCH  50  53
ATOM     53  C   UNL     1     138.662 180.285 204.565  0.00  0.00    -0.046 A 
ATOM     54  C   UNL     1     139.426 179.196 205.004  0.00  0.00    -0.059 A 
ATOM     55  C   UNL     1     140.421 179.371 205.968  0.00  0.00    -0.062 A 
ATOM     56  C   UNL     1     140.659 180.633 206.506  0.00  0.00    -0.062 A 
ATOM     57  C   UNL     1     139.895 181.721 206.087  0.00  0.00    -0.062 A 
ATOM     58  C   UNL     1     138.899 181.548 205.125  0.00  0.00    -0.059 A 
ATOM     59  H   UNL     1     139.246 178.198 204.608  0.00  0.00    +0.062 HD
ATOM     60  H   UNL     1     141.006 178.518 206.303  0.00  0.00    +0.062 HD
ATOM     61  H   UNL     1     141.431 180.767 207.257  0.00  0.00    +0.062 HD
ATOM     62  H   UNL     1     140.073 182.705 206.514  0.00  0.00    +0.062 HD
ATOM     63  H   UNL     1     138.309 182.408 204.818  0.00  0.00    +0.062 HD
ENDBRANCH  50  53
ENDBRANCH  21  50
BRANCH  15  64
ATOM     64  O   UNL     1     134.407 175.314 198.317  0.00  0.00    -0.377 OA
ATOM     65  H   UNL     1     134.959 175.993 197.898  0.00  0.00    +0.211 HD
ENDBRANCH  15  64
BRANCH   6  66
ATOM     66  O   UNL     1     140.376 178.619 197.675  0.00  0.00    -0.387 OA
ATOM     67  H   UNL     1     141.007 179.348 197.544  0.00  0.00    +0.210 HD
ENDBRANCH   6  66
BRANCH  12  68
ATOM     68  O   UNL     1     138.119 176.198 201.649  0.00  0.00    -0.456 OA
BRANCH  68  69
ATOM     69  C   UNL     1     138.234 175.968 202.984  0.00  0.00    +0.305 C 
ATOM     70  O   UNL     1     139.157 175.383 203.532  0.00  0.00    -0.251 OA
BRANCH  69  71
ATOM     71  C   UNL     1     137.035 176.513 203.699  0.00  0.00    +0.033 C 
ATOM     72  H   UNL     1     136.270 176.787 202.968  0.00  0.00    +0.034 HD
ATOM     73  H   UNL     1     136.621 175.750 204.364  0.00  0.00    +0.034 HD
ATOM     74  H   UNL     1     137.317 177.405 204.265  0.00  0.00    +0.034 HD
ENDBRANCH  69  71
ENDBRANCH  68  69
ENDBRANCH  12  68
TORSDOF 10
ENDMDL
