MODEL 1
REMARK VINA RESULT:      -7.7      0.000      0.000
REMARK  Name = Cytochalasin B_conf2
REMARK  6 active torsions:
REMARK  status: ('A' for Active; 'I' for Inactive)
REMARK    1  A    between atoms: C_1  and  C_2
REMARK    2  A    between atoms: C_6  and  O_35
REMARK    3  A    between atoms: C_17  and  O_34
REMARK    4  A    between atoms: C_20  and  C_33
REMARK    5  A    between atoms: C_22  and  C_26
REMARK    6  A    between atoms: C_26  and  C_27
REMARK                            x       y       z     vdW  Elec       q    Type
REMARK                         _______ _______ _______ _____ _____    ______ ____
ROOT
ATOM      1  C   UNL     1     147.289 169.065 185.906  0.00  0.00    -0.040 C 
ATOM      2  C   UNL     1     147.182 169.571 187.357  0.00  0.00    -0.050 C 
ATOM      3  C   UNL     1     146.138 170.656 187.626  0.00  0.00    -0.050 C 
ATOM      4  C   UNL     1     145.681 170.753 189.093  0.00  0.00    -0.023 C 
ATOM      5  C   UNL     1     146.770 170.985 190.160  0.00  0.00    +0.074 C 
ATOM      6  C   UNL     1     147.718 169.838 190.348  0.00  0.00    -0.049 C 
ATOM      7  C   UNL     1     147.344 168.603 190.727  0.00  0.00    +0.021 C 
ATOM      8  C   UNL     1     148.213 167.413 190.648  0.00  0.00    +0.333 C 
ATOM      9  O   UNL     1     147.768 166.279 190.744  0.00  0.00    -0.246 OA
ATOM     10  O   UNL     1     149.502 167.745 190.419  0.00  0.00    -0.444 OA
ATOM     11  C   UNL     1     150.430 166.697 190.051  0.00  0.00    +0.202 C 
ATOM     12  C   UNL     1     150.091 166.047 188.675  0.00  0.00    +0.056 C 
ATOM     13  C   UNL     1     149.834 167.053 187.555  0.00  0.00    -0.078 C 
ATOM     14  C   UNL     1     148.723 167.117 186.801  0.00  0.00    -0.087 C 
ATOM     15  C   UNL     1     148.528 168.151 185.719  0.00  0.00    -0.032 C 
ATOM     16  C   UNL     1     151.209 165.046 188.265  0.00  0.00    +0.087 C 
ATOM     17  C   UNL     1     151.783 164.268 189.439  0.00  0.00    -0.045 C 
ATOM     18  C   UNL     1     153.000 163.704 189.349  0.00  0.00    -0.097 C 
ATOM     19  C   UNL     1     150.893 164.230 190.667  0.00  0.00    -0.012 C 
ATOM     20  C   UNL     1     150.641 165.663 191.212  0.00  0.00    +0.033 C 
ATOM     21  C   UNL     1     151.783 166.267 192.061  0.00  0.00    +0.035 C 
ATOM     22  N   UNL     1     152.503 167.095 191.138  0.00  0.00    -0.308 N 
ATOM     23  C   UNL     1     151.792 167.413 190.008  0.00  0.00    +0.258 C 
ATOM     24  O   UNL     1     152.213 168.175 189.153  0.00  0.00    -0.271 OA
ATOM     25  H   UNL     1     146.392 168.469 185.692  0.00  0.00    +0.030 HD
ATOM     26  H   UNL     1     146.935 168.702 187.975  0.00  0.00    +0.027 HD
ATOM     27  H   UNL     1     148.163 169.947 187.670  0.00  0.00    +0.027 HD
ATOM     28  H   UNL     1     145.247 170.463 187.017  0.00  0.00    +0.027 HD
ATOM     29  H   UNL     1     146.534 171.628 187.309  0.00  0.00    +0.027 HD
ATOM     30  H   UNL     1     145.103 169.854 189.345  0.00  0.00    +0.029 HD
ATOM     31  H   UNL     1     144.954 171.574 189.161  0.00  0.00    +0.029 HD
ATOM     32  H   UNL     1     147.343 171.887 189.917  0.00  0.00    +0.064 HD
ATOM     33  H   UNL     1     148.745 170.027 190.041  0.00  0.00    +0.060 HD
ATOM     34  H   UNL     1     146.314 168.391 190.996  0.00  0.00    +0.069 HD
ATOM     35  H   UNL     1     149.157 165.480 188.788  0.00  0.00    +0.042 HD
ATOM     36  H   UNL     1     150.635 167.765 187.356  0.00  0.00    +0.057 HD
ATOM     37  H   UNL     1     147.914 166.406 186.956  0.00  0.00    +0.057 HD
ATOM     38  H   UNL     1     148.440 167.627 184.759  0.00  0.00    +0.031 HD
ATOM     39  H   UNL     1     149.426 168.778 185.642  0.00  0.00    +0.031 HD
ATOM     40  H   UNL     1     152.018 165.581 187.751  0.00  0.00    +0.065 HD
ATOM     41  H   UNL     1     153.579 163.778 188.432  0.00  0.00    +0.054 HD
ATOM     42  H   UNL     1     153.457 163.150 190.161  0.00  0.00    +0.054 HD
ATOM     43  H   UNL     1     149.919 163.858 190.313  0.00  0.00    +0.035 HD
ATOM     44  H   UNL     1     149.756 165.586 191.852  0.00  0.00    +0.037 HD
ATOM     45  H   UNL     1     152.483 165.514 192.429  0.00  0.00    +0.051 HD
ATOM     46  H   UNL     1     153.420 167.493 191.311  0.00  0.00    +0.149 HD
ENDROOT
BRANCH   1  47
ATOM     47  C   UNL     1     147.345 170.204 184.885  0.00  0.00    -0.062 C 
ATOM     48  H   UNL     1     148.034 169.961 184.069  0.00  0.00    +0.023 HD
ATOM     49  H   UNL     1     146.363 170.386 184.436  0.00  0.00    +0.023 HD
ATOM     50  H   UNL     1     147.683 171.137 185.350  0.00  0.00    +0.023 HD
ENDBRANCH   1  47
BRANCH  19  51
ATOM     51  C   UNL     1     151.290 163.235 191.766  0.00  0.00    -0.058 C 
ATOM     52  H   UNL     1     150.863 163.538 192.729  0.00  0.00    +0.024 HD
ATOM     53  H   UNL     1     150.950 162.215 191.566  0.00  0.00    +0.024 HD
ATOM     54  H   UNL     1     152.379 163.209 191.883  0.00  0.00    +0.024 HD
ENDBRANCH  19  51
BRANCH  21  55
ATOM     55  C   UNL     1     151.236 167.085 193.250  0.00  0.00    -0.009 C 
ATOM     56  H   UNL     1     150.335 167.632 192.942  0.00  0.00    +0.033 HD
ATOM     57  H   UNL     1     151.959 167.847 193.568  0.00  0.00    +0.033 HD
BRANCH  55  58
ATOM     58  C   UNL     1     150.880 166.215 194.435  0.00  0.00    -0.046 A 
ATOM     59  C   UNL     1     149.697 166.441 195.151  0.00  0.00    -0.059 A 
ATOM     60  C   UNL     1     149.380 165.653 196.257  0.00  0.00    -0.062 A 
ATOM     61  C   UNL     1     150.243 164.635 196.660  0.00  0.00    -0.062 A 
ATOM     62  C   UNL     1     151.423 164.404 195.956  0.00  0.00    -0.062 A 
ATOM     63  C   UNL     1     151.743 165.191 194.849  0.00  0.00    -0.059 A 
ATOM     64  H   UNL     1     149.014 167.234 194.850  0.00  0.00    +0.062 HD
ATOM     65  H   UNL     1     148.459 165.833 196.805  0.00  0.00    +0.062 HD
ATOM     66  H   UNL     1     149.994 164.022 197.522  0.00  0.00    +0.062 HD
ATOM     67  H   UNL     1     152.095 163.609 196.270  0.00  0.00    +0.062 HD
ATOM     68  H   UNL     1     152.667 164.996 194.311  0.00  0.00    +0.062 HD
ENDBRANCH  55  58
ENDBRANCH  21  55
BRANCH  16  69
ATOM     69  O   UNL     1     150.686 164.095 187.335  0.00  0.00    -0.387 OA
ATOM     70  H   UNL     1     150.845 164.437 186.441  0.00  0.00    +0.210 HD
ENDBRANCH  16  69
BRANCH   5  71
ATOM     71  O   UNL     1     146.137 171.205 191.419  0.00  0.00    -0.388 OA
ATOM     72  H   UNL     1     145.950 172.157 191.484  0.00  0.00    +0.210 HD
ENDBRANCH   5  71
TORSDOF 6
ENDMDL
MODEL 2
REMARK VINA RESULT:      -7.7      3.057      6.853
REMARK  Name = Cytochalasin B_conf2
REMARK  6 active torsions:
REMARK  status: ('A' for Active; 'I' for Inactive)
REMARK    1  A    between atoms: C_1  and  C_2
REMARK    2  A    between atoms: C_6  and  O_35
REMARK    3  A    between atoms: C_17  and  O_34
REMARK    4  A    between atoms: C_20  and  C_33
REMARK    5  A    between atoms: C_22  and  C_26
REMARK    6  A    between atoms: C_26  and  C_27
REMARK                            x       y       z     vdW  Elec       q    Type
REMARK                         _______ _______ _______ _____ _____    ______ ____
ROOT
ATOM      1  C   UNL     1     154.053 162.465 189.326  0.00  0.00    -0.040 C 
ATOM      2  C   UNL     1     154.082 163.930 188.848  0.00  0.00    -0.050 C 
ATOM      3  C   UNL     1     155.073 164.264 187.733  0.00  0.00    -0.050 C 
ATOM      4  C   UNL     1     154.724 165.529 186.927  0.00  0.00    -0.023 C 
ATOM      5  C   UNL     1     154.559 166.846 187.712  0.00  0.00    +0.074 C 
ATOM      6  C   UNL     1     153.370 166.888 188.625  0.00  0.00    -0.049 C 
ATOM      7  C   UNL     1     152.097 166.754 188.215  0.00  0.00    +0.021 C 
ATOM      8  C   UNL     1     150.955 166.518 189.118  0.00  0.00    +0.333 C 
ATOM      9  O   UNL     1     149.869 166.139 188.704  0.00  0.00    -0.246 OA
ATOM     10  O   UNL     1     151.284 166.726 190.411  0.00  0.00    -0.444 OA
ATOM     11  C   UNL     1     150.365 166.284 191.438  0.00  0.00    +0.202 C 
ATOM     12  C   UNL     1     150.196 164.735 191.470  0.00  0.00    +0.056 C 
ATOM     13  C   UNL     1     151.514 163.962 191.459  0.00  0.00    -0.078 C 
ATOM     14  C   UNL     1     151.861 163.020 190.565  0.00  0.00    -0.087 C 
ATOM     15  C   UNL     1     153.191 162.306 190.604  0.00  0.00    -0.032 C 
ATOM     16  C   UNL     1     149.326 164.315 192.690  0.00  0.00    +0.087 C 
ATOM     17  C   UNL     1     148.194 165.286 192.985  0.00  0.00    -0.045 C 
ATOM     18  C   UNL     1     147.633 165.322 194.207  0.00  0.00    -0.097 C 
ATOM     19  C   UNL     1     147.811 166.183 191.824  0.00  0.00    -0.012 C 
ATOM     20  C   UNL     1     149.010 167.074 191.395  0.00  0.00    +0.033 C 
ATOM     21  C   UNL     1     149.264 168.321 192.272  0.00  0.00    +0.035 C 
ATOM     22  N   UNL     1     150.308 167.912 193.166  0.00  0.00    -0.308 N 
ATOM     23  C   UNL     1     150.996 166.802 192.743  0.00  0.00    +0.258 C 
ATOM     24  O   UNL     1     151.970 166.361 193.333  0.00  0.00    -0.271 OA
ATOM     25  H   UNL     1     153.595 161.862 188.530  0.00  0.00    +0.030 HD
ATOM     26  H   UNL     1     153.074 164.162 188.489  0.00  0.00    +0.027 HD
ATOM     27  H   UNL     1     154.296 164.573 189.709  0.00  0.00    +0.027 HD
ATOM     28  H   UNL     1     155.121 163.428 187.025  0.00  0.00    +0.027 HD
ATOM     29  H   UNL     1     156.076 164.377 188.159  0.00  0.00    +0.027 HD
ATOM     30  H   UNL     1     153.817 165.336 186.337  0.00  0.00    +0.029 HD
ATOM     31  H   UNL     1     155.512 165.673 186.176  0.00  0.00    +0.029 HD
ATOM     32  H   UNL     1     155.465 167.047 188.295  0.00  0.00    +0.064 HD
ATOM     33  H   UNL     1     153.601 166.915 189.689  0.00  0.00    +0.060 HD
ATOM     34  H   UNL     1     151.857 166.683 187.159  0.00  0.00    +0.069 HD
ATOM     35  H   UNL     1     149.664 164.432 190.557  0.00  0.00    +0.042 HD
ATOM     36  H   UNL     1     152.216 164.200 192.258  0.00  0.00    +0.057 HD
ATOM     37  H   UNL     1     151.174 162.741 189.769  0.00  0.00    +0.057 HD
ATOM     38  H   UNL     1     152.999 161.239 190.773  0.00  0.00    +0.031 HD
ATOM     39  H   UNL     1     153.769 162.653 191.471  0.00  0.00    +0.031 HD
ATOM     40  H   UNL     1     149.959 164.210 193.580  0.00  0.00    +0.065 HD
ATOM     41  H   UNL     1     147.965 164.644 194.990  0.00  0.00    +0.054 HD
ATOM     42  H   UNL     1     146.831 166.003 194.471  0.00  0.00    +0.054 HD
ATOM     43  H   UNL     1     147.613 165.504 190.981  0.00  0.00    +0.035 HD
ATOM     44  H   UNL     1     148.775 167.421 190.384  0.00  0.00    +0.037 HD
ATOM     45  H   UNL     1     148.404 168.592 192.887  0.00  0.00    +0.051 HD
ATOM     46  H   UNL     1     150.590 168.419 193.997  0.00  0.00    +0.149 HD
ENDROOT
BRANCH   1  47
ATOM     47  C   UNL     1     155.452 161.902 189.589  0.00  0.00    -0.062 C 
ATOM     48  H   UNL     1     156.121 162.114 188.748  0.00  0.00    +0.023 HD
ATOM     49  H   UNL     1     155.901 162.349 190.481  0.00  0.00    +0.023 HD
ATOM     50  H   UNL     1     155.421 160.816 189.732  0.00  0.00    +0.023 HD
ENDBRANCH   1  47
BRANCH  19  51
ATOM     51  C   UNL     1     146.504 166.974 191.975  0.00  0.00    -0.058 C 
ATOM     52  H   UNL     1     145.650 166.290 192.043  0.00  0.00    +0.024 HD
ATOM     53  H   UNL     1     146.486 167.607 192.867  0.00  0.00    +0.024 HD
ATOM     54  H   UNL     1     146.342 167.616 191.103  0.00  0.00    +0.024 HD
ENDBRANCH  19  51
BRANCH  21  55
ATOM     55  C   UNL     1     149.691 169.536 191.421  0.00  0.00    -0.009 C 
ATOM     56  H   UNL     1     149.327 169.418 190.393  0.00  0.00    +0.033 HD
ATOM     57  H   UNL     1     150.785 169.601 191.350  0.00  0.00    +0.033 HD
BRANCH  55  58
ATOM     58  C   UNL     1     149.153 170.840 191.967  0.00  0.00    -0.046 A 
ATOM     59  C   UNL     1     149.974 171.685 192.725  0.00  0.00    -0.059 A 
ATOM     60  C   UNL     1     149.471 172.877 193.248  0.00  0.00    -0.062 A 
ATOM     61  C   UNL     1     148.143 173.233 193.020  0.00  0.00    -0.062 A 
ATOM     62  C   UNL     1     147.317 172.398 192.269  0.00  0.00    -0.062 A 
ATOM     63  C   UNL     1     147.818 171.205 191.746  0.00  0.00    -0.059 A 
ATOM     64  H   UNL     1     151.013 171.419 192.914  0.00  0.00    +0.062 HD
ATOM     65  H   UNL     1     150.116 173.527 193.833  0.00  0.00    +0.062 HD
ATOM     66  H   UNL     1     147.753 174.162 193.427  0.00  0.00    +0.062 HD
ATOM     67  H   UNL     1     146.282 172.678 192.091  0.00  0.00    +0.062 HD
ATOM     68  H   UNL     1     147.160 170.567 191.162  0.00  0.00    +0.062 HD
ENDBRANCH  55  58
ENDBRANCH  21  55
BRANCH  16  69
ATOM     69  O   UNL     1     148.740 163.035 192.445  0.00  0.00    -0.387 OA
ATOM     70  H   UNL     1     147.816 163.069 192.743  0.00  0.00    +0.210 HD
ENDBRANCH  16  69
BRANCH   5  71
ATOM     71  O   UNL     1     154.400 167.916 186.783  0.00  0.00    -0.388 OA
ATOM     72  H   UNL     1     154.619 168.739 187.253  0.00  0.00    +0.210 HD
ENDBRANCH   5  71
TORSDOF 6
ENDMDL
MODEL 3
REMARK VINA RESULT:      -7.5      2.893      5.936
REMARK  Name = Cytochalasin B_conf2
REMARK  6 active torsions:
REMARK  status: ('A' for Active; 'I' for Inactive)
REMARK    1  A    between atoms: C_1  and  C_2
REMARK    2  A    between atoms: C_6  and  O_35
REMARK    3  A    between atoms: C_17  and  O_34
REMARK    4  A    between atoms: C_20  and  C_33
REMARK    5  A    between atoms: C_22  and  C_26
REMARK    6  A    between atoms: C_26  and  C_27
REMARK                            x       y       z     vdW  Elec       q    Type
REMARK                         _______ _______ _______ _____ _____    ______ ____
ROOT
ATOM      1  C   UNL     1     143.687 166.720 192.449  0.00  0.00    -0.040 C 
ATOM      2  C   UNL     1     144.429 166.672 191.100  0.00  0.00    -0.050 C 
ATOM      3  C   UNL     1     143.601 166.993 189.855  0.00  0.00    -0.050 C 
ATOM      4  C   UNL     1     144.426 167.460 188.641  0.00  0.00    -0.023 C 
ATOM      5  C   UNL     1     145.540 166.519 188.139  0.00  0.00    +0.074 C 
ATOM      6  C   UNL     1     146.694 166.353 189.082  0.00  0.00    -0.049 C 
ATOM      7  C   UNL     1     147.477 167.363 189.503  0.00  0.00    +0.021 C 
ATOM      8  C   UNL     1     148.426 167.262 190.628  0.00  0.00    +0.333 C 
ATOM      9  O   UNL     1     148.919 168.251 191.150  0.00  0.00    -0.246 OA
ATOM     10  O   UNL     1     148.624 165.981 191.006  0.00  0.00    -0.444 OA
ATOM     11  C   UNL     1     149.311 165.728 192.255  0.00  0.00    +0.202 C 
ATOM     12  C   UNL     1     148.514 166.235 193.495  0.00  0.00    +0.056 C 
ATOM     13  C   UNL     1     147.047 165.810 193.511  0.00  0.00    -0.078 C 
ATOM     14  C   UNL     1     145.993 166.640 193.601  0.00  0.00    -0.087 C 
ATOM     15  C   UNL     1     144.565 166.151 193.594  0.00  0.00    -0.032 C 
ATOM     16  C   UNL     1     149.225 165.793 194.807  0.00  0.00    +0.087 C 
ATOM     17  C   UNL     1     150.742 165.835 194.714  0.00  0.00    -0.045 C 
ATOM     18  C   UNL     1     151.494 165.106 195.558  0.00  0.00    -0.097 C 
ATOM     19  C   UNL     1     151.284 166.715 193.603  0.00  0.00    -0.012 C 
ATOM     20  C   UNL     1     150.804 166.210 192.214  0.00  0.00    +0.033 C 
ATOM     21  C   UNL     1     151.581 165.006 191.635  0.00  0.00    +0.035 C 
ATOM     22  N   UNL     1     150.766 163.874 191.966  0.00  0.00    -0.308 N 
ATOM     23  C   UNL     1     149.470 164.197 192.282  0.00  0.00    +0.258 C 
ATOM     24  O   UNL     1     148.613 163.357 192.509  0.00  0.00    -0.271 OA
ATOM     25  H   UNL     1     143.473 167.773 192.677  0.00  0.00    +0.030 HD
ATOM     26  H   UNL     1     145.243 167.401 191.163  0.00  0.00    +0.027 HD
ATOM     27  H   UNL     1     144.869 165.676 190.978  0.00  0.00    +0.027 HD
ATOM     28  H   UNL     1     142.884 167.789 190.089  0.00  0.00    +0.027 HD
ATOM     29  H   UNL     1     143.014 166.112 189.571  0.00  0.00    +0.027 HD
ATOM     30  H   UNL     1     144.850 168.449 188.859  0.00  0.00    +0.029 HD
ATOM     31  H   UNL     1     143.728 167.638 187.812  0.00  0.00    +0.029 HD
ATOM     32  H   UNL     1     145.120 165.533 187.911  0.00  0.00    +0.064 HD
ATOM     33  H   UNL     1     146.802 165.362 189.517  0.00  0.00    +0.060 HD
ATOM     34  H   UNL     1     147.353 168.366 189.108  0.00  0.00    +0.069 HD
ATOM     35  H   UNL     1     148.508 167.333 193.470  0.00  0.00    +0.042 HD
ATOM     36  H   UNL     1     146.857 164.738 193.454  0.00  0.00    +0.057 HD
ATOM     37  H   UNL     1     146.147 167.714 193.684  0.00  0.00    +0.057 HD
ATOM     38  H   UNL     1     144.110 166.417 194.556  0.00  0.00    +0.031 HD
ATOM     39  H   UNL     1     144.551 165.054 193.544  0.00  0.00    +0.031 HD
ATOM     40  H   UNL     1     148.904 164.780 195.082  0.00  0.00    +0.065 HD
ATOM     41  H   UNL     1     151.029 164.496 196.329  0.00  0.00    +0.054 HD
ATOM     42  H   UNL     1     152.578 165.093 195.524  0.00  0.00    +0.054 HD
ATOM     43  H   UNL     1     150.814 167.700 193.754  0.00  0.00    +0.035 HD
ATOM     44  H   UNL     1     150.939 167.054 191.529  0.00  0.00    +0.037 HD
ATOM     45  H   UNL     1     152.550 164.854 192.115  0.00  0.00    +0.051 HD
ATOM     46  H   UNL     1     151.065 162.907 191.902  0.00  0.00    +0.149 HD
ENDROOT
BRANCH   1  47
ATOM     47  C   UNL     1     142.353 165.971 192.417  0.00  0.00    -0.062 C 
ATOM     48  H   UNL     1     142.418 165.037 192.986  0.00  0.00    +0.023 HD
ATOM     49  H   UNL     1     141.550 166.566 192.864  0.00  0.00    +0.023 HD
ATOM     50  H   UNL     1     142.062 165.724 191.391  0.00  0.00    +0.023 HD
ENDBRANCH   1  47
BRANCH  19  51
ATOM     51  C   UNL     1     152.788 167.014 193.643  0.00  0.00    -0.058 C 
ATOM     52  H   UNL     1     153.079 167.379 194.635  0.00  0.00    +0.024 HD
ATOM     53  H   UNL     1     153.406 166.139 193.424  0.00  0.00    +0.024 HD
ATOM     54  H   UNL     1     153.043 167.795 192.918  0.00  0.00    +0.024 HD
ENDBRANCH  19  51
BRANCH  21  55
ATOM     55  C   UNL     1     151.777 165.136 190.110  0.00  0.00    -0.009 C 
ATOM     56  H   UNL     1     151.366 166.093 189.762  0.00  0.00    +0.033 HD
ATOM     57  H   UNL     1     151.222 164.356 189.574  0.00  0.00    +0.033 HD
BRANCH  55  58
ATOM     58  C   UNL     1     153.234 165.073 189.708  0.00  0.00    -0.046 A 
ATOM     59  C   UNL     1     153.846 163.839 189.453  0.00  0.00    -0.059 A 
ATOM     60  C   UNL     1     155.196 163.778 189.105  0.00  0.00    -0.062 A 
ATOM     61  C   UNL     1     155.946 164.950 189.010  0.00  0.00    -0.062 A 
ATOM     62  C   UNL     1     155.346 166.182 189.263  0.00  0.00    -0.062 A 
ATOM     63  C   UNL     1     153.996 166.245 189.613  0.00  0.00    -0.059 A 
ATOM     64  H   UNL     1     153.275 162.914 189.526  0.00  0.00    +0.062 HD
ATOM     65  H   UNL     1     155.662 162.817 188.908  0.00  0.00    +0.062 HD
ATOM     66  H   UNL     1     156.996 164.901 188.738  0.00  0.00    +0.062 HD
ATOM     67  H   UNL     1     155.931 167.095 189.188  0.00  0.00    +0.062 HD
ATOM     68  H   UNL     1     153.545 167.215 189.805  0.00  0.00    +0.062 HD
ENDBRANCH  55  58
ENDBRANCH  21  55
BRANCH  16  69
ATOM     69  O   UNL     1     148.837 166.656 195.878  0.00  0.00    -0.387 OA
ATOM     70  H   UNL     1     148.908 167.571 195.562  0.00  0.00    +0.210 HD
ENDBRANCH  16  69
BRANCH   5  71
ATOM     71  O   UNL     1     146.073 167.048 186.927  0.00  0.00    -0.388 OA
ATOM     72  H   UNL     1     145.906 168.006 186.934  0.00  0.00    +0.210 HD
ENDBRANCH   5  71
TORSDOF 6
ENDMDL
MODEL 4
REMARK VINA RESULT:      -7.5      2.518      6.187
REMARK  Name = Cytochalasin B_conf2
REMARK  6 active torsions:
REMARK  status: ('A' for Active; 'I' for Inactive)
REMARK    1  A    between atoms: C_1  and  C_2
REMARK    2  A    between atoms: C_6  and  O_35
REMARK    3  A    between atoms: C_17  and  O_34
REMARK    4  A    between atoms: C_20  and  C_33
REMARK    5  A    between atoms: C_22  and  C_26
REMARK    6  A    between atoms: C_26  and  C_27
REMARK                            x       y       z     vdW  Elec       q    Type
REMARK                         _______ _______ _______ _____ _____    ______ ____
ROOT
ATOM      1  C   UNL     1     151.811 162.179 188.245  0.00  0.00    -0.040 C 
ATOM      2  C   UNL     1     151.215 163.471 187.652  0.00  0.00    -0.050 C 
ATOM      3  C   UNL     1     150.993 163.487 186.139  0.00  0.00    -0.050 C 
ATOM      4  C   UNL     1     149.946 164.509 185.659  0.00  0.00    -0.023 C 
ATOM      5  C   UNL     1     150.172 165.986 186.038  0.00  0.00    +0.074 C 
ATOM      6  C   UNL     1     150.048 166.285 187.502  0.00  0.00    -0.049 C 
ATOM      7  C   UNL     1     148.933 166.075 188.224  0.00  0.00    +0.021 C 
ATOM      8  C   UNL     1     148.882 166.102 189.698  0.00  0.00    +0.333 C 
ATOM      9  O   UNL     1     147.934 165.651 190.322  0.00  0.00    -0.246 OA
ATOM     10  O   UNL     1     150.006 166.629 190.231  0.00  0.00    -0.444 OA
ATOM     11  C   UNL     1     150.230 166.484 191.653  0.00  0.00    +0.202 C 
ATOM     12  C   UNL     1     150.422 164.999 192.086  0.00  0.00    +0.056 C 
ATOM     13  C   UNL     1     151.423 164.225 191.230  0.00  0.00    -0.078 C 
ATOM     14  C   UNL     1     151.170 163.077 190.576  0.00  0.00    -0.087 C 
ATOM     15  C   UNL     1     152.204 162.372 189.733  0.00  0.00    -0.032 C 
ATOM     16  C   UNL     1     150.816 164.925 193.589  0.00  0.00    +0.087 C 
ATOM     17  C   UNL     1     150.109 165.961 194.449  0.00  0.00    -0.045 C 
ATOM     18  C   UNL     1     150.625 166.321 195.638  0.00  0.00    -0.097 C 
ATOM     19  C   UNL     1     148.847 166.536 193.837  0.00  0.00    -0.012 C 
ATOM     20  C   UNL     1     149.162 167.263 192.500  0.00  0.00    +0.033 C 
ATOM     21  C   UNL     1     149.744 168.688 192.634  0.00  0.00    +0.035 C 
ATOM     22  N   UNL     1     151.159 168.503 192.491  0.00  0.00    -0.308 N 
ATOM     23  C   UNL     1     151.505 167.309 191.909  0.00  0.00    +0.258 C 
ATOM     24  O   UNL     1     152.657 167.015 191.633  0.00  0.00    -0.271 OA
ATOM     25  H   UNL     1     151.037 161.400 188.197  0.00  0.00    +0.030 HD
ATOM     26  H   UNL     1     150.247 163.622 188.140  0.00  0.00    +0.027 HD
ATOM     27  H   UNL     1     151.868 164.310 187.918  0.00  0.00    +0.027 HD
ATOM     28  H   UNL     1     150.660 162.496 185.809  0.00  0.00    +0.027 HD
ATOM     29  H   UNL     1     151.945 163.686 185.634  0.00  0.00    +0.027 HD
ATOM     30  H   UNL     1     148.953 164.188 186.002  0.00  0.00    +0.029 HD
ATOM     31  H   UNL     1     149.891 164.440 184.564  0.00  0.00    +0.029 HD
ATOM     32  H   UNL     1     151.158 166.313 185.688  0.00  0.00    +0.064 HD
ATOM     33  H   UNL     1     150.971 166.581 187.997  0.00  0.00    +0.060 HD
ATOM     34  H   UNL     1     148.017 165.739 187.749  0.00  0.00    +0.069 HD
ATOM     35  H   UNL     1     149.460 164.482 191.964  0.00  0.00    +0.042 HD
ATOM     36  H   UNL     1     152.426 164.646 191.164  0.00  0.00    +0.057 HD
ATOM     37  H   UNL     1     150.186 162.616 190.640  0.00  0.00    +0.057 HD
ATOM     38  H   UNL     1     152.394 161.388 190.180  0.00  0.00    +0.031 HD
ATOM     39  H   UNL     1     153.155 162.918 189.783  0.00  0.00    +0.031 HD
ATOM     40  H   UNL     1     151.901 165.040 193.696  0.00  0.00    +0.065 HD
ATOM     41  H   UNL     1     151.539 165.862 196.008  0.00  0.00    +0.054 HD
ATOM     42  H   UNL     1     150.166 167.063 196.282  0.00  0.00    +0.054 HD
ATOM     43  H   UNL     1     148.224 165.667 193.577  0.00  0.00    +0.035 HD
ATOM     44  H   UNL     1     148.206 167.343 191.972  0.00  0.00    +0.037 HD
ATOM     45  H   UNL     1     149.577 169.125 193.621  0.00  0.00    +0.051 HD
ATOM     46  H   UNL     1     151.860 169.201 192.712  0.00  0.00    +0.149 HD
ENDROOT
BRANCH   1  47
ATOM     47  C   UNL     1     153.026 161.675 187.464  0.00  0.00    -0.062 C 
ATOM     48  H   UNL     1     152.791 161.582 186.398  0.00  0.00    +0.023 HD
ATOM     49  H   UNL     1     153.871 162.366 187.550  0.00  0.00    +0.023 HD
ATOM     50  H   UNL     1     153.352 160.694 187.827  0.00  0.00    +0.023 HD
ENDBRANCH   1  47
BRANCH  19  51
ATOM     51  C   UNL     1     147.953 167.365 194.770  0.00  0.00    -0.058 C 
ATOM     52  H   UNL     1     148.560 168.056 195.366  0.00  0.00    +0.024 HD
ATOM     53  H   UNL     1     147.210 167.962 194.234  0.00  0.00    +0.024 HD
ATOM     54  H   UNL     1     147.419 166.711 195.468  0.00  0.00    +0.024 HD
ENDBRANCH  19  51
BRANCH  21  55
ATOM     55  C   UNL     1     149.185 169.636 191.551  0.00  0.00    -0.009 C 
ATOM     56  H   UNL     1     148.296 169.188 191.089  0.00  0.00    +0.033 HD
ATOM     57  H   UNL     1     149.910 169.776 190.740  0.00  0.00    +0.033 HD
BRANCH  55  58
ATOM     58  C   UNL     1     148.799 170.987 192.110  0.00  0.00    -0.046 A 
ATOM     59  C   UNL     1     149.740 171.767 192.795  0.00  0.00    -0.059 A 
ATOM     60  C   UNL     1     149.378 173.003 193.331  0.00  0.00    -0.062 A 
ATOM     61  C   UNL     1     148.072 173.470 193.189  0.00  0.00    -0.062 A 
ATOM     62  C   UNL     1     147.128 172.701 192.511  0.00  0.00    -0.062 A 
ATOM     63  C   UNL     1     147.487 171.464 191.975  0.00  0.00    -0.059 A 
ATOM     64  H   UNL     1     150.763 171.414 192.917  0.00  0.00    +0.062 HD
ATOM     65  H   UNL     1     150.115 173.602 193.859  0.00  0.00    +0.062 HD
ATOM     66  H   UNL     1     147.792 174.434 193.605  0.00  0.00    +0.062 HD
ATOM     67  H   UNL     1     146.110 173.067 192.399  0.00  0.00    +0.062 HD
ATOM     68  H   UNL     1     146.738 170.878 191.448  0.00  0.00    +0.062 HD
ENDBRANCH  55  58
ENDBRANCH  21  55
BRANCH  16  69
ATOM     69  O   UNL     1     150.482 163.636 194.110  0.00  0.00    -0.387 OA
ATOM     70  H   UNL     1     149.548 163.656 194.376  0.00  0.00    +0.210 HD
ENDBRANCH  16  69
BRANCH   5  71
ATOM     71  O   UNL     1     149.195 166.784 185.372  0.00  0.00    -0.388 OA
ATOM     72  H   UNL     1     149.577 167.672 185.261  0.00  0.00    +0.210 HD
ENDBRANCH   5  71
TORSDOF 6
ENDMDL
MODEL 5
REMARK VINA RESULT:      -7.3      3.129      6.983
REMARK  Name = Cytochalasin B_conf2
REMARK  6 active torsions:
REMARK  status: ('A' for Active; 'I' for Inactive)
REMARK    1  A    between atoms: C_1  and  C_2
REMARK    2  A    between atoms: C_6  and  O_35
REMARK    3  A    between atoms: C_17  and  O_34
REMARK    4  A    between atoms: C_20  and  C_33
REMARK    5  A    between atoms: C_22  and  C_26
REMARK    6  A    between atoms: C_26  and  C_27
REMARK                            x       y       z     vdW  Elec       q    Type
REMARK                         _______ _______ _______ _____ _____    ______ ____
ROOT
ATOM      1  C   UNL     1     151.276 162.183 189.825  0.00  0.00    -0.040 C 
ATOM      2  C   UNL     1     151.945 163.569 189.757  0.00  0.00    -0.050 C 
ATOM      3  C   UNL     1     153.427 163.592 189.377  0.00  0.00    -0.050 C 
ATOM      4  C   UNL     1     153.918 164.934 188.803  0.00  0.00    -0.023 C 
ATOM      5  C   UNL     1     153.716 166.193 189.671  0.00  0.00    +0.074 C 
ATOM      6  C   UNL     1     152.285 166.599 189.865  0.00  0.00    -0.049 C 
ATOM      7  C   UNL     1     151.450 166.926 188.862  0.00  0.00    +0.021 C 
ATOM      8  C   UNL     1     149.988 167.056 189.010  0.00  0.00    +0.333 C 
ATOM      9  O   UNL     1     149.240 167.091 188.045  0.00  0.00    -0.246 OA
ATOM     10  O   UNL     1     149.614 167.083 190.307  0.00  0.00    -0.444 OA
ATOM     11  C   UNL     1     148.209 166.937 190.624  0.00  0.00    +0.202 C 
ATOM     12  C   UNL     1     147.643 165.540 190.229  0.00  0.00    +0.056 C 
ATOM     13  C   UNL     1     148.497 164.365 190.700  0.00  0.00    -0.078 C 
ATOM     14  C   UNL     1     149.004 163.400 189.912  0.00  0.00    -0.087 C 
ATOM     15  C   UNL     1     149.857 162.274 190.443  0.00  0.00    -0.032 C 
ATOM     16  C   UNL     1     146.180 165.391 190.737  0.00  0.00    +0.087 C 
ATOM     17  C   UNL     1     145.374 166.676 190.641  0.00  0.00    -0.045 C 
ATOM     18  C   UNL     1     144.279 166.849 191.402  0.00  0.00    -0.097 C 
ATOM     19  C   UNL     1     145.930 167.700 189.670  0.00  0.00    -0.012 C 
ATOM     20  C   UNL     1     147.358 168.145 190.093  0.00  0.00    +0.033 C 
ATOM     21  C   UNL     1     147.424 169.190 191.229  0.00  0.00    +0.035 C 
ATOM     22  N   UNL     1     147.670 168.410 192.407  0.00  0.00    -0.308 N 
ATOM     23  C   UNL     1     148.152 167.152 192.147  0.00  0.00    +0.258 C 
ATOM     24  O   UNL     1     148.497 166.379 193.027  0.00  0.00    -0.271 OA
ATOM     25  H   UNL     1     151.175 161.808 188.797  0.00  0.00    +0.030 HD
ATOM     26  H   UNL     1     151.394 164.147 189.009  0.00  0.00    +0.027 HD
ATOM     27  H   UNL     1     151.827 164.063 190.728  0.00  0.00    +0.027 HD
ATOM     28  H   UNL     1     153.622 162.822 188.622  0.00  0.00    +0.027 HD
ATOM     29  H   UNL     1     154.031 163.337 190.255  0.00  0.00    +0.027 HD
ATOM     30  H   UNL     1     153.457 165.089 187.818  0.00  0.00    +0.029 HD
ATOM     31  H   UNL     1     154.990 164.833 188.590  0.00  0.00    +0.029 HD
ATOM     32  H   UNL     1     154.182 166.046 190.652  0.00  0.00    +0.064 HD
ATOM     33  H   UNL     1     151.906 166.500 190.880  0.00  0.00    +0.060 HD
ATOM     34  H   UNL     1     151.806 166.988 187.839  0.00  0.00    +0.069 HD
ATOM     35  H   UNL     1     147.626 165.477 189.132  0.00  0.00    +0.042 HD
ATOM     36  H   UNL     1     148.694 164.313 191.771  0.00  0.00    +0.057 HD
ATOM     37  H   UNL     1     148.807 163.407 188.842  0.00  0.00    +0.057 HD
ATOM     38  H   UNL     1     149.328 161.330 190.258  0.00  0.00    +0.031 HD
ATOM     39  H   UNL     1     149.947 162.363 191.534  0.00  0.00    +0.031 HD
ATOM     40  H   UNL     1     146.180 165.036 191.776  0.00  0.00    +0.065 HD
ATOM     41  H   UNL     1     143.944 166.065 192.078  0.00  0.00    +0.054 HD
ATOM     42  H   UNL     1     143.677 167.751 191.379  0.00  0.00    +0.054 HD
ATOM     43  H   UNL     1     146.043 167.166 188.713  0.00  0.00    +0.035 HD
ATOM     44  H   UNL     1     147.805 168.595 189.201  0.00  0.00    +0.037 HD
ATOM     45  H   UNL     1     146.477 169.712 191.383  0.00  0.00    +0.051 HD
ATOM     46  H   UNL     1     147.585 168.754 193.357  0.00  0.00    +0.149 HD
ENDROOT
BRANCH   1  47
ATOM     47  C   UNL     1     152.104 161.165 190.612  0.00  0.00    -0.062 C 
ATOM     48  H   UNL     1     152.376 160.313 189.980  0.00  0.00    +0.023 HD
ATOM     49  H   UNL     1     153.036 161.606 190.979  0.00  0.00    +0.023 HD
ATOM     50  H   UNL     1     151.547 160.783 191.475  0.00  0.00    +0.023 HD
ENDBRANCH   1  47
BRANCH  19  51
ATOM     51  C   UNL     1     145.014 168.882 189.327  0.00  0.00    -0.058 C 
ATOM     52  H   UNL     1     144.287 168.592 188.560  0.00  0.00    +0.024 HD
ATOM     53  H   UNL     1     144.449 169.252 190.187  0.00  0.00    +0.024 HD
ATOM     54  H   UNL     1     145.599 169.716 188.925  0.00  0.00    +0.024 HD
ENDBRANCH  19  51
BRANCH  21  55
ATOM     55  C   UNL     1     148.546 170.222 190.988  0.00  0.00    -0.009 C 
ATOM     56  H   UNL     1     148.500 170.588 189.955  0.00  0.00    +0.033 HD
ATOM     57  H   UNL     1     149.535 169.760 191.102  0.00  0.00    +0.033 HD
BRANCH  55  58
ATOM     58  C   UNL     1     148.446 171.411 191.917  0.00  0.00    -0.046 A 
ATOM     59  C   UNL     1     149.564 171.840 192.645  0.00  0.00    -0.059 A 
ATOM     60  C   UNL     1     149.465 172.922 193.520  0.00  0.00    -0.062 A 
ATOM     61  C   UNL     1     148.249 173.585 193.676  0.00  0.00    -0.062 A 
ATOM     62  C   UNL     1     147.131 173.165 192.957  0.00  0.00    -0.062 A 
ATOM     63  C   UNL     1     147.226 172.082 192.083  0.00  0.00    -0.059 A 
ATOM     64  H   UNL     1     150.520 171.330 192.536  0.00  0.00    +0.062 HD
ATOM     65  H   UNL     1     150.338 173.249 194.079  0.00  0.00    +0.062 HD
ATOM     66  H   UNL     1     148.174 174.429 194.356  0.00  0.00    +0.062 HD
ATOM     67  H   UNL     1     146.182 173.684 193.079  0.00  0.00    +0.062 HD
ATOM     68  H   UNL     1     146.344 171.770 191.530  0.00  0.00    +0.062 HD
ENDBRANCH  55  58
ENDBRANCH  21  55
BRANCH  16  69
ATOM     69  O   UNL     1     145.500 164.400 189.962  0.00  0.00    -0.387 OA
ATOM     70  H   UNL     1     145.965 164.317 189.114  0.00  0.00    +0.210 HD
ENDBRANCH  16  69
BRANCH   5  71
ATOM     71  O   UNL     1     154.373 167.292 189.044  0.00  0.00    -0.388 OA
ATOM     72  H   UNL     1     153.680 167.891 188.717  0.00  0.00    +0.210 HD
ENDBRANCH   5  71
TORSDOF 6
ENDMDL
MODEL 6
REMARK VINA RESULT:      -7.0      2.574      4.649
REMARK  Name = Cytochalasin B_conf2
REMARK  6 active torsions:
REMARK  status: ('A' for Active; 'I' for Inactive)
REMARK    1  A    between atoms: C_1  and  C_2
REMARK    2  A    between atoms: C_6  and  O_35
REMARK    3  A    between atoms: C_17  and  O_34
REMARK    4  A    between atoms: C_20  and  C_33
REMARK    5  A    between atoms: C_22  and  C_26
REMARK    6  A    between atoms: C_26  and  C_27
REMARK                            x       y       z     vdW  Elec       q    Type
REMARK                         _______ _______ _______ _____ _____    ______ ____
ROOT
ATOM      1  C   UNL     1     144.120 172.237 191.033  0.00  0.00    -0.040 C 
ATOM      2  C   UNL     1     145.606 172.246 191.443  0.00  0.00    -0.050 C 
ATOM      3  C   UNL     1     146.074 173.440 192.277  0.00  0.00    -0.050 C 
ATOM      4  C   UNL     1     147.348 173.180 193.104  0.00  0.00    -0.023 C 
ATOM      5  C   UNL     1     148.605 172.717 192.340  0.00  0.00    +0.074 C 
ATOM      6  C   UNL     1     148.506 171.347 191.739  0.00  0.00    -0.049 C 
ATOM      7  C   UNL     1     148.293 170.224 192.448  0.00  0.00    +0.021 C 
ATOM      8  C   UNL     1     147.921 168.926 191.854  0.00  0.00    +0.333 C 
ATOM      9  O   UNL     1     147.480 168.008 192.528  0.00  0.00    -0.246 OA
ATOM     10  O   UNL     1     148.088 168.920 190.513  0.00  0.00    -0.444 OA
ATOM     11  C   UNL     1     147.522 167.827 189.752  0.00  0.00    +0.202 C 
ATOM     12  C   UNL     1     145.965 167.794 189.810  0.00  0.00    +0.056 C 
ATOM     13  C   UNL     1     145.301 169.140 189.527  0.00  0.00    -0.078 C 
ATOM     14  C   UNL     1     144.436 169.772 190.340  0.00  0.00    -0.087 C 
ATOM     15  C   UNL     1     143.829 171.113 190.005  0.00  0.00    -0.032 C 
ATOM     16  C   UNL     1     145.415 166.701 188.848  0.00  0.00    +0.087 C 
ATOM     17  C   UNL     1     146.277 165.449 188.804  0.00  0.00    -0.045 C 
ATOM     18  C   UNL     1     146.205 164.614 187.752  0.00  0.00    -0.097 C 
ATOM     19  C   UNL     1     147.200 165.274 189.995  0.00  0.00    -0.012 C 
ATOM     20  C   UNL     1     148.203 166.456 190.095  0.00  0.00    +0.033 C 
ATOM     21  C   UNL     1     149.420 166.383 189.145  0.00  0.00    +0.035 C 
ATOM     22  N   UNL     1     149.049 167.217 188.039  0.00  0.00    -0.308 N 
ATOM     23  C   UNL     1     148.021 168.083 188.318  0.00  0.00    +0.258 C 
ATOM     24  O   UNL     1     147.628 168.923 187.525  0.00  0.00    -0.271 OA
ATOM     25  H   UNL     1     143.525 172.035 191.934  0.00  0.00    +0.030 HD
ATOM     26  H   UNL     1     145.776 171.336 192.027  0.00  0.00    +0.027 HD
ATOM     27  H   UNL     1     146.219 172.192 190.537  0.00  0.00    +0.027 HD
ATOM     28  H   UNL     1     145.282 173.728 192.978  0.00  0.00    +0.027 HD
ATOM     29  H   UNL     1     146.244 174.299 191.619  0.00  0.00    +0.027 HD
ATOM     30  H   UNL     1     147.114 172.460 193.900  0.00  0.00    +0.029 HD
ATOM     31  H   UNL     1     147.592 174.108 193.638  0.00  0.00    +0.029 HD
ATOM     32  H   UNL     1     148.847 173.438 191.551  0.00  0.00    +0.064 HD
ATOM     33  H   UNL     1     148.496 171.316 190.651  0.00  0.00    +0.060 HD
ATOM     34  H   UNL     1     148.257 170.249 193.532  0.00  0.00    +0.069 HD
ATOM     35  H   UNL     1     145.668 167.523 190.832  0.00  0.00    +0.042 HD
ATOM     36  H   UNL     1     145.551 169.609 188.576  0.00  0.00    +0.057 HD
ATOM     37  H   UNL     1     144.144 169.322 191.287  0.00  0.00    +0.057 HD
ATOM     38  H   UNL     1     142.742 170.982 189.920  0.00  0.00    +0.031 HD
ATOM     39  H   UNL     1     144.175 171.436 189.014  0.00  0.00    +0.031 HD
ATOM     40  H   UNL     1     145.314 167.112 187.836  0.00  0.00    +0.065 HD
ATOM     41  H   UNL     1     145.517 164.810 186.934  0.00  0.00    +0.054 HD
ATOM     42  H   UNL     1     146.807 163.715 187.668  0.00  0.00    +0.054 HD
ATOM     43  H   UNL     1     146.551 165.342 190.882  0.00  0.00    +0.035 HD
ATOM     44  H   UNL     1     148.582 166.437 191.122  0.00  0.00    +0.037 HD
ATOM     45  H   UNL     1     149.590 165.380 188.746  0.00  0.00    +0.051 HD
ATOM     46  H   UNL     1     149.533 167.248 187.148  0.00  0.00    +0.149 HD
ENDROOT
BRANCH   1  47
ATOM     47  C   UNL     1     143.657 173.577 190.459  0.00  0.00    -0.062 C 
ATOM     48  H   UNL     1     143.439 174.289 191.262  0.00  0.00    +0.023 HD
ATOM     49  H   UNL     1     144.428 174.029 189.827  0.00  0.00    +0.023 HD
ATOM     50  H   UNL     1     142.751 173.458 189.855  0.00  0.00    +0.023 HD
ENDBRANCH   1  47
BRANCH  19  51
ATOM     51  C   UNL     1     147.875 163.903 190.138  0.00  0.00    -0.058 C 
ATOM     52  H   UNL     1     147.356 163.298 190.889  0.00  0.00    +0.024 HD
ATOM     53  H   UNL     1     147.884 163.330 189.207  0.00  0.00    +0.024 HD
ATOM     54  H   UNL     1     148.912 164.020 190.470  0.00  0.00    +0.024 HD
ENDBRANCH  19  51
BRANCH  21  55
ATOM     55  C   UNL     1     150.707 166.889 189.829  0.00  0.00    -0.009 C 
ATOM     56  H   UNL     1     150.700 167.986 189.871  0.00  0.00    +0.033 HD
ATOM     57  H   UNL     1     151.596 166.614 189.247  0.00  0.00    +0.033 HD
BRANCH  55  58
ATOM     58  C   UNL     1     150.857 166.363 191.239  0.00  0.00    -0.046 A 
ATOM     59  C   UNL     1     150.878 164.983 191.482  0.00  0.00    -0.059 A 
ATOM     60  C   UNL     1     150.993 164.497 192.785  0.00  0.00    -0.062 A 
ATOM     61  C   UNL     1     151.085 165.385 193.856  0.00  0.00    -0.062 A 
ATOM     62  C   UNL     1     151.062 166.759 193.624  0.00  0.00    -0.062 A 
ATOM     63  C   UNL     1     150.947 167.248 192.322  0.00  0.00    -0.059 A 
ATOM     64  H   UNL     1     150.804 164.276 190.657  0.00  0.00    +0.062 HD
ATOM     65  H   UNL     1     151.011 163.425 192.964  0.00  0.00    +0.062 HD
ATOM     66  H   UNL     1     151.175 165.004 194.870  0.00  0.00    +0.062 HD
ATOM     67  H   UNL     1     151.136 167.450 194.460  0.00  0.00    +0.062 HD
ATOM     68  H   UNL     1     150.932 168.322 192.161  0.00  0.00    +0.062 HD
ENDBRANCH  55  58
ENDBRANCH  21  55
BRANCH  16  69
ATOM     69  O   UNL     1     144.107 166.306 189.267  0.00  0.00    -0.387 OA
ATOM     70  H   UNL     1     143.972 166.637 190.170  0.00  0.00    +0.210 HD
ENDBRANCH  16  69
BRANCH   5  71
ATOM     71  O   UNL     1     149.706 172.688 193.247  0.00  0.00    -0.388 OA
ATOM     72  H   UNL     1     149.583 173.424 193.871  0.00  0.00    +0.210 HD
ENDBRANCH   5  71
TORSDOF 6
ENDMDL
MODEL 7
REMARK VINA RESULT:      -6.8      2.698      6.013
REMARK  Name = Cytochalasin B_conf2
REMARK  6 active torsions:
REMARK  status: ('A' for Active; 'I' for Inactive)
REMARK    1  A    between atoms: C_1  and  C_2
REMARK    2  A    between atoms: C_6  and  O_35
REMARK    3  A    between atoms: C_17  and  O_34
REMARK    4  A    between atoms: C_20  and  C_33
REMARK    5  A    between atoms: C_22  and  C_26
REMARK    6  A    between atoms: C_26  and  C_27
REMARK                            x       y       z     vdW  Elec       q    Type
REMARK                         _______ _______ _______ _____ _____    ______ ____
ROOT
ATOM      1  C   UNL     1     153.705 164.945 184.564  0.00  0.00    -0.040 C 
ATOM      2  C   UNL     1     154.377 164.948 185.951  0.00  0.00    -0.050 C 
ATOM      3  C   UNL     1     155.899 164.806 185.972  0.00  0.00    -0.050 C 
ATOM      4  C   UNL     1     156.573 165.336 187.251  0.00  0.00    -0.023 C 
ATOM      5  C   UNL     1     156.106 164.742 188.595  0.00  0.00    +0.074 C 
ATOM      6  C   UNL     1     154.700 165.092 188.981  0.00  0.00    -0.049 C 
ATOM      7  C   UNL     1     154.257 166.348 189.167  0.00  0.00    +0.021 C 
ATOM      8  C   UNL     1     152.833 166.718 189.273  0.00  0.00    +0.333 C 
ATOM      9  O   UNL     1     152.456 167.877 189.174  0.00  0.00    -0.246 OA
ATOM     10  O   UNL     1     152.043 165.636 189.439  0.00  0.00    -0.444 OA
ATOM     11  C   UNL     1     150.612 165.797 189.292  0.00  0.00    +0.202 C 
ATOM     12  C   UNL     1     150.194 166.192 187.843  0.00  0.00    +0.056 C 
ATOM     13  C   UNL     1     150.824 165.324 186.755  0.00  0.00    -0.078 C 
ATOM     14  C   UNL     1     151.554 165.775 185.720  0.00  0.00    -0.087 C 
ATOM     15  C   UNL     1     152.162 164.858 184.687  0.00  0.00    -0.032 C 
ATOM     16  C   UNL     1     148.644 166.192 187.713  0.00  0.00    +0.087 C 
ATOM     17  C   UNL     1     147.935 166.706 188.956  0.00  0.00    -0.045 C 
ATOM     18  C   UNL     1     146.649 166.385 189.185  0.00  0.00    -0.097 C 
ATOM     19  C   UNL     1     148.800 167.547 189.876  0.00  0.00    -0.012 C 
ATOM     20  C   UNL     1     150.006 166.723 190.406  0.00  0.00    +0.033 C 
ATOM     21  C   UNL     1     149.698 165.763 191.577  0.00  0.00    +0.035 C 
ATOM     22  N   UNL     1     149.521 164.488 190.946  0.00  0.00    -0.308 N 
ATOM     23  C   UNL     1     150.046 164.419 189.680  0.00  0.00    +0.258 C 
ATOM     24  O   UNL     1     150.063 163.389 189.024  0.00  0.00    -0.271 OA
ATOM     25  H   UNL     1     153.953 165.895 184.070  0.00  0.00    +0.030 HD
ATOM     26  H   UNL     1     154.118 165.901 186.423  0.00  0.00    +0.027 HD
ATOM     27  H   UNL     1     153.943 164.140 186.551  0.00  0.00    +0.027 HD
ATOM     28  H   UNL     1     156.328 165.354 185.125  0.00  0.00    +0.027 HD
ATOM     29  H   UNL     1     156.168 163.752 185.836  0.00  0.00    +0.027 HD
ATOM     30  H   UNL     1     156.475 166.430 187.277  0.00  0.00    +0.029 HD
ATOM     31  H   UNL     1     157.653 165.161 187.155  0.00  0.00    +0.029 HD
ATOM     32  H   UNL     1     156.211 163.651 188.577  0.00  0.00    +0.064 HD
ATOM     33  H   UNL     1     153.999 164.259 188.990  0.00  0.00    +0.060 HD
ATOM     34  H   UNL     1     154.939 167.191 189.119  0.00  0.00    +0.069 HD
ATOM     35  H   UNL     1     150.548 167.214 187.653  0.00  0.00    +0.042 HD
ATOM     36  H   UNL     1     150.646 164.252 186.832  0.00  0.00    +0.057 HD
ATOM     37  H   UNL     1     151.731 166.842 185.597  0.00  0.00    +0.057 HD
ATOM     38  H   UNL     1     151.714 165.097 183.714  0.00  0.00    +0.031 HD
ATOM     39  H   UNL     1     151.879 163.819 184.905  0.00  0.00    +0.031 HD
ATOM     40  H   UNL     1     148.288 165.180 187.482  0.00  0.00    +0.065 HD
ATOM     41  H   UNL     1     146.095 165.774 188.476  0.00  0.00    +0.054 HD
ATOM     42  H   UNL     1     146.103 166.716 190.062  0.00  0.00    +0.054 HD
ATOM     43  H   UNL     1     149.222 168.339 189.238  0.00  0.00    +0.035 HD
ATOM     44  H   UNL     1     150.735 167.459 190.762  0.00  0.00    +0.037 HD
ATOM     45  H   UNL     1     148.761 166.001 192.087  0.00  0.00    +0.051 HD
ATOM     46  H   UNL     1     149.124 163.670 191.395  0.00  0.00    +0.149 HD
ENDROOT
BRANCH   1  47
ATOM     47  C   UNL     1     154.205 163.811 183.667  0.00  0.00    -0.062 C 
ATOM     48  H   UNL     1     153.394 163.425 183.040  0.00  0.00    +0.023 HD
ATOM     49  H   UNL     1     154.998 164.153 182.995  0.00  0.00    +0.023 HD
ATOM     50  H   UNL     1     154.599 162.980 184.263  0.00  0.00    +0.023 HD
ENDBRANCH   1  47
BRANCH  19  51
ATOM     51  C   UNL     1     148.069 168.316 190.984  0.00  0.00    -0.058 C 
ATOM     52  H   UNL     1     148.068 167.736 191.914  0.00  0.00    +0.024 HD
ATOM     53  H   UNL     1     148.524 169.286 191.206  0.00  0.00    +0.024 HD
ATOM     54  H   UNL     1     147.025 168.491 190.705  0.00  0.00    +0.024 HD
ENDBRANCH  19  51
BRANCH  21  55
ATOM     55  C   UNL     1     150.849 165.732 192.605  0.00  0.00    -0.009 C 
ATOM     56  H   UNL     1     151.581 166.515 192.368  0.00  0.00    +0.033 HD
ATOM     57  H   UNL     1     151.395 164.782 192.554  0.00  0.00    +0.033 HD
BRANCH  55  58
ATOM     58  C   UNL     1     150.364 165.950 194.021  0.00  0.00    -0.046 A 
ATOM     59  C   UNL     1     151.262 165.890 195.095  0.00  0.00    -0.059 A 
ATOM     60  C   UNL     1     150.811 166.068 196.403  0.00  0.00    -0.062 A 
ATOM     61  C   UNL     1     149.460 166.306 196.650  0.00  0.00    -0.062 A 
ATOM     62  C   UNL     1     148.559 166.365 195.588  0.00  0.00    -0.062 A 
ATOM     63  C   UNL     1     149.007 166.187 194.279  0.00  0.00    -0.059 A 
ATOM     64  H   UNL     1     152.320 165.702 194.919  0.00  0.00    +0.062 HD
ATOM     65  H   UNL     1     151.515 166.022 197.230  0.00  0.00    +0.062 HD
ATOM     66  H   UNL     1     149.111 166.445 197.669  0.00  0.00    +0.062 HD
ATOM     67  H   UNL     1     147.505 166.552 195.782  0.00  0.00    +0.062 HD
ATOM     68  H   UNL     1     148.290 166.237 193.463  0.00  0.00    +0.062 HD
ENDBRANCH  55  58
ENDBRANCH  21  55
BRANCH  16  69
ATOM     69  O   UNL     1     148.253 167.028 186.621  0.00  0.00    -0.387 OA
ATOM     70  H   UNL     1     148.656 166.668 185.814  0.00  0.00    +0.210 HD
ENDBRANCH  16  69
BRANCH   5  71
ATOM     71  O   UNL     1     156.951 165.237 189.632  0.00  0.00    -0.388 OA
ATOM     72  H   UNL     1     156.685 166.156 189.804  0.00  0.00    +0.210 HD
ENDBRANCH   5  71
TORSDOF 6
ENDMDL
MODEL 8
REMARK VINA RESULT:      -6.7      3.965      8.024
REMARK  Name = Cytochalasin B_conf2
REMARK  6 active torsions:
REMARK  status: ('A' for Active; 'I' for Inactive)
REMARK    1  A    between atoms: C_1  and  C_2
REMARK    2  A    between atoms: C_6  and  O_35
REMARK    3  A    between atoms: C_17  and  O_34
REMARK    4  A    between atoms: C_20  and  C_33
REMARK    5  A    between atoms: C_22  and  C_26
REMARK    6  A    between atoms: C_26  and  C_27
REMARK                            x       y       z     vdW  Elec       q    Type
REMARK                         _______ _______ _______ _____ _____    ______ ____
ROOT
ATOM      1  C   UNL     1     150.944 167.039 191.576  0.00  0.00    -0.040 C 
ATOM      2  C   UNL     1     150.320 168.431 191.797  0.00  0.00    -0.050 C 
ATOM      3  C   UNL     1     151.284 169.560 192.164  0.00  0.00    -0.050 C 
ATOM      4  C   UNL     1     150.759 170.974 191.855  0.00  0.00    -0.023 C 
ATOM      5  C   UNL     1     149.415 171.384 192.491  0.00  0.00    +0.074 C 
ATOM      6  C   UNL     1     148.222 170.638 191.972  0.00  0.00    -0.049 C 
ATOM      7  C   UNL     1     147.830 170.641 190.686  0.00  0.00    +0.021 C 
ATOM      8  C   UNL     1     146.840 169.705 190.119  0.00  0.00    +0.333 C 
ATOM      9  O   UNL     1     146.704 169.557 188.914  0.00  0.00    -0.246 OA
ATOM     10  O   UNL     1     146.171 169.036 191.083  0.00  0.00    -0.444 OA
ATOM     11  C   UNL     1     145.363 167.898 190.699  0.00  0.00    +0.202 C 
ATOM     12  C   UNL     1     146.209 166.724 190.120  0.00  0.00    +0.056 C 
ATOM     13  C   UNL     1     147.422 166.350 190.971  0.00  0.00    -0.078 C 
ATOM     14  C   UNL     1     148.695 166.310 190.543  0.00  0.00    -0.087 C 
ATOM     15  C   UNL     1     149.850 165.947 191.445  0.00  0.00    -0.032 C 
ATOM     16  C   UNL     1     145.307 165.480 189.879  0.00  0.00    +0.087 C 
ATOM     17  C   UNL     1     143.915 165.833 189.378  0.00  0.00    -0.045 C 
ATOM     18  C   UNL     1     142.900 164.963 189.524  0.00  0.00    -0.097 C 
ATOM     19  C   UNL     1     143.797 167.213 188.760  0.00  0.00    -0.012 C 
ATOM     20  C   UNL     1     144.149 168.316 189.797  0.00  0.00    +0.033 C 
ATOM     21  C   UNL     1     143.029 168.672 190.800  0.00  0.00    +0.035 C 
ATOM     22  N   UNL     1     143.360 167.918 191.974  0.00  0.00    -0.308 N 
ATOM     23  C   UNL     1     144.663 167.488 192.008  0.00  0.00    +0.258 C 
ATOM     24  O   UNL     1     145.144 166.905 192.966  0.00  0.00    -0.271 OA
ATOM     25  H   UNL     1     151.507 167.070 190.634  0.00  0.00    +0.030 HD
ATOM     26  H   UNL     1     149.820 168.702 190.861  0.00  0.00    +0.027 HD
ATOM     27  H   UNL     1     149.560 168.353 192.582  0.00  0.00    +0.027 HD
ATOM     28  H   UNL     1     152.223 169.431 191.612  0.00  0.00    +0.027 HD
ATOM     29  H   UNL     1     151.532 169.494 193.230  0.00  0.00    +0.027 HD
ATOM     30  H   UNL     1     150.707 171.103 190.766  0.00  0.00    +0.029 HD
ATOM     31  H   UNL     1     151.525 171.691 192.179  0.00  0.00    +0.029 HD
ATOM     32  H   UNL     1     149.467 171.265 193.579  0.00  0.00    +0.064 HD
ATOM     33  H   UNL     1     147.739 169.977 192.689  0.00  0.00    +0.060 HD
ATOM     34  H   UNL     1     148.331 171.264 189.952  0.00  0.00    +0.069 HD
ATOM     35  H   UNL     1     146.612 167.041 189.149  0.00  0.00    +0.042 HD
ATOM     36  H   UNL     1     147.217 166.084 192.008  0.00  0.00    +0.057 HD
ATOM     37  H   UNL     1     148.933 166.546 189.508  0.00  0.00    +0.057 HD
ATOM     38  H   UNL     1     150.310 165.029 191.057  0.00  0.00    +0.031 HD
ATOM     39  H   UNL     1     149.472 165.698 192.446  0.00  0.00    +0.031 HD
ATOM     40  H   UNL     1     145.225 164.894 190.802  0.00  0.00    +0.065 HD
ATOM     41  H   UNL     1     143.066 163.990 189.981  0.00  0.00    +0.054 HD
ATOM     42  H   UNL     1     141.888 165.172 189.195  0.00  0.00    +0.054 HD
ATOM     43  H   UNL     1     144.579 167.256 187.985  0.00  0.00    +0.035 HD
ATOM     44  H   UNL     1     144.369 169.214 189.211  0.00  0.00    +0.037 HD
ATOM     45  H   UNL     1     142.042 168.338 190.473  0.00  0.00    +0.051 HD
ATOM     46  H   UNL     1     142.738 167.769 192.762  0.00  0.00    +0.149 HD
ENDROOT
BRANCH   1  47
ATOM     47  C   UNL     1     151.918 166.645 192.688  0.00  0.00    -0.062 C 
ATOM     48  H   UNL     1     151.446 165.950 193.391  0.00  0.00    +0.023 HD
ATOM     49  H   UNL     1     152.804 166.144 192.285  0.00  0.00    +0.023 HD
ATOM     50  H   UNL     1     152.252 167.523 193.252  0.00  0.00    +0.023 HD
ENDBRANCH   1  47
BRANCH  19  51
ATOM     51  C   UNL     1     142.501 167.508 187.992  0.00  0.00    -0.058 C 
ATOM     52  H   UNL     1     141.652 167.564 188.683  0.00  0.00    +0.024 HD
ATOM     53  H   UNL     1     142.534 168.451 187.440  0.00  0.00    +0.024 HD
ATOM     54  H   UNL     1     142.289 166.706 187.277  0.00  0.00    +0.024 HD
ENDBRANCH  19  51
BRANCH  21  55
ATOM     55  C   UNL     1     142.988 170.187 191.093  0.00  0.00    -0.009 C 
ATOM     56  H   UNL     1     143.602 170.724 190.359  0.00  0.00    +0.033 HD
ATOM     57  H   UNL     1     143.426 170.409 192.074  0.00  0.00    +0.033 HD
BRANCH  55  58
ATOM     58  C   UNL     1     141.585 170.748 191.038  0.00  0.00    -0.046 A 
ATOM     59  C   UNL     1     141.305 172.013 191.571  0.00  0.00    -0.059 A 
ATOM     60  C   UNL     1     140.006 172.521 191.541  0.00  0.00    -0.062 A 
ATOM     61  C   UNL     1     138.975 171.768 190.982  0.00  0.00    -0.062 A 
ATOM     62  C   UNL     1     139.243 170.507 190.452  0.00  0.00    -0.062 A 
ATOM     63  C   UNL     1     140.541 169.997 190.481  0.00  0.00    -0.059 A 
ATOM     64  H   UNL     1     142.099 172.613 192.014  0.00  0.00    +0.062 HD
ATOM     65  H   UNL     1     139.799 173.504 191.954  0.00  0.00    +0.062 HD
ATOM     66  H   UNL     1     137.964 172.165 190.959  0.00  0.00    +0.062 HD
ATOM     67  H   UNL     1     138.437 169.921 190.014  0.00  0.00    +0.062 HD
ATOM     68  H   UNL     1     140.731 169.012 190.062  0.00  0.00    +0.062 HD
ENDBRANCH  55  58
ENDBRANCH  21  55
BRANCH  16  69
ATOM     69  O   UNL     1     145.911 164.630 188.901  0.00  0.00    -0.387 OA
ATOM     70  H   UNL     1     146.697 165.085 188.558  0.00  0.00    +0.210 HD
ENDBRANCH  16  69
BRANCH   5  71
ATOM     71  O   UNL     1     149.185 172.766 192.220  0.00  0.00    -0.388 OA
ATOM     72  H   UNL     1     149.428 173.259 193.022  0.00  0.00    +0.210 HD
ENDBRANCH   5  71
TORSDOF 6
ENDMDL
MODEL 9
REMARK VINA RESULT:      -6.6      3.368      5.900
REMARK  Name = Cytochalasin B_conf2
REMARK  6 active torsions:
REMARK  status: ('A' for Active; 'I' for Inactive)
REMARK    1  A    between atoms: C_1  and  C_2
REMARK    2  A    between atoms: C_6  and  O_35
REMARK    3  A    between atoms: C_17  and  O_34
REMARK    4  A    between atoms: C_20  and  C_33
REMARK    5  A    between atoms: C_22  and  C_26
REMARK    6  A    between atoms: C_26  and  C_27
REMARK                            x       y       z     vdW  Elec       q    Type
REMARK                         _______ _______ _______ _____ _____    ______ ____
ROOT
ATOM      1  C   UNL     1     147.640 173.233 192.797  0.00  0.00    -0.040 C 
ATOM      2  C   UNL     1     146.452 172.571 192.073  0.00  0.00    -0.050 C 
ATOM      3  C   UNL     1     145.251 173.470 191.772  0.00  0.00    -0.050 C 
ATOM      4  C   UNL     1     144.353 172.971 190.624  0.00  0.00    -0.023 C 
ATOM      5  C   UNL     1     143.759 171.554 190.755  0.00  0.00    +0.074 C 
ATOM      6  C   UNL     1     144.763 170.443 190.685  0.00  0.00    -0.049 C 
ATOM      7  C   UNL     1     145.564 170.214 189.629  0.00  0.00    +0.021 C 
ATOM      8  C   UNL     1     146.731 169.313 189.654  0.00  0.00    +0.333 C 
ATOM      9  O   UNL     1     147.582 169.329 188.777  0.00  0.00    -0.246 OA
ATOM     10  O   UNL     1     146.745 168.537 190.760  0.00  0.00    -0.444 OA
ATOM     11  C   UNL     1     147.949 167.795 191.069  0.00  0.00    +0.202 C 
ATOM     12  C   UNL     1     149.160 168.720 191.398  0.00  0.00    +0.056 C 
ATOM     13  C   UNL     1     148.847 169.821 192.409  0.00  0.00    -0.078 C 
ATOM     14  C   UNL     1     149.027 171.139 192.212  0.00  0.00    -0.087 C 
ATOM     15  C   UNL     1     148.680 172.177 193.252  0.00  0.00    -0.032 C 
ATOM     16  C   UNL     1     150.371 167.868 191.874  0.00  0.00    +0.087 C 
ATOM     17  C   UNL     1     150.506 166.546 191.136  0.00  0.00    -0.045 C 
ATOM     18  C   UNL     1     151.197 165.531 191.684  0.00  0.00    -0.097 C 
ATOM     19  C   UNL     1     149.786 166.490 189.802  0.00  0.00    -0.012 C 
ATOM     20  C   UNL     1     148.258 166.698 189.990  0.00  0.00    +0.033 C 
ATOM     21  C   UNL     1     147.467 165.458 190.466  0.00  0.00    +0.035 C 
ATOM     22  N   UNL     1     147.338 165.649 191.881  0.00  0.00    -0.308 N 
ATOM     23  C   UNL     1     147.551 166.942 192.287  0.00  0.00    +0.258 C 
ATOM     24  O   UNL     1     147.402 167.308 193.443  0.00  0.00    -0.271 OA
ATOM     25  H   UNL     1     148.132 173.909 192.085  0.00  0.00    +0.030 HD
ATOM     26  H   UNL     1     146.837 172.188 191.123  0.00  0.00    +0.027 HD
ATOM     27  H   UNL     1     146.108 171.720 192.672  0.00  0.00    +0.027 HD
ATOM     28  H   UNL     1     145.605 174.471 191.499  0.00  0.00    +0.027 HD
ATOM     29  H   UNL     1     144.645 173.583 192.678  0.00  0.00    +0.027 HD
ATOM     30  H   UNL     1     144.906 173.053 189.679  0.00  0.00    +0.029 HD
ATOM     31  H   UNL     1     143.523 173.683 190.518  0.00  0.00    +0.029 HD
ATOM     32  H   UNL     1     143.198 171.471 191.693  0.00  0.00    +0.064 HD
ATOM     33  H   UNL     1     144.902 169.882 191.607  0.00  0.00    +0.060 HD
ATOM     34  H   UNL     1     145.465 170.795 188.718  0.00  0.00    +0.069 HD
ATOM     35  H   UNL     1     149.454 169.237 190.474  0.00  0.00    +0.042 HD
ATOM     36  H   UNL     1     148.456 169.492 193.372  0.00  0.00    +0.057 HD
ATOM     37  H   UNL     1     149.439 171.501 191.272  0.00  0.00    +0.057 HD
ATOM     38  H   UNL     1     149.606 172.691 193.541  0.00  0.00    +0.031 HD
ATOM     39  H   UNL     1     148.312 171.680 194.159  0.00  0.00    +0.031 HD
ATOM     40  H   UNL     1     150.293 167.679 192.952  0.00  0.00    +0.065 HD
ATOM     41  H   UNL     1     151.685 165.649 192.648  0.00  0.00    +0.054 HD
ATOM     42  H   UNL     1     151.312 164.565 191.203  0.00  0.00    +0.054 HD
ATOM     43  H   UNL     1     150.150 167.361 189.235  0.00  0.00    +0.035 HD
ATOM     44  H   UNL     1     147.873 166.979 189.004  0.00  0.00    +0.037 HD
ATOM     45  H   UNL     1     148.012 164.523 190.317  0.00  0.00    +0.051 HD
ATOM     46  H   UNL     1     147.038 164.936 192.537  0.00  0.00    +0.149 HD
ENDROOT
BRANCH   1  47
ATOM     47  C   UNL     1     147.207 174.066 194.006  0.00  0.00    -0.062 C 
ATOM     48  H   UNL     1     148.055 174.625 194.416  0.00  0.00    +0.023 HD
ATOM     49  H   UNL     1     146.439 174.797 193.732  0.00  0.00    +0.023 HD
ATOM     50  H   UNL     1     146.802 173.430 194.801  0.00  0.00    +0.023 HD
ENDBRANCH   1  47
BRANCH  19  51
ATOM     51  C   UNL     1     150.119 165.297 188.897  0.00  0.00    -0.058 C 
ATOM     52  H   UNL     1     149.254 164.629 188.811  0.00  0.00    +0.024 HD
ATOM     53  H   UNL     1     150.404 165.592 187.883  0.00  0.00    +0.024 HD
ATOM     54  H   UNL     1     150.943 164.713 189.321  0.00  0.00    +0.024 HD
ENDBRANCH  19  51
BRANCH  21  55
ATOM     55  C   UNL     1     146.088 165.365 189.778  0.00  0.00    -0.009 C 
ATOM     56  H   UNL     1     146.065 166.021 188.899  0.00  0.00    +0.033 HD
ATOM     57  H   UNL     1     145.292 165.723 190.444  0.00  0.00    +0.033 HD
BRANCH  55  58
ATOM     58  C   UNL     1     145.762 163.958 189.329  0.00  0.00    -0.046 A 
ATOM     59  C   UNL     1     144.517 163.667 188.756  0.00  0.00    -0.059 A 
ATOM     60  C   UNL     1     144.207 162.365 188.362  0.00  0.00    -0.062 A 
ATOM     61  C   UNL     1     145.138 161.342 188.539  0.00  0.00    -0.062 A 
ATOM     62  C   UNL     1     146.378 161.621 189.110  0.00  0.00    -0.062 A 
ATOM     63  C   UNL     1     146.690 162.922 189.505  0.00  0.00    -0.059 A 
ATOM     64  H   UNL     1     143.778 164.455 188.613  0.00  0.00    +0.062 HD
ATOM     65  H   UNL     1     143.240 162.149 187.916  0.00  0.00    +0.062 HD
ATOM     66  H   UNL     1     144.895 160.329 188.231  0.00  0.00    +0.062 HD
ATOM     67  H   UNL     1     147.103 160.823 189.246  0.00  0.00    +0.062 HD
ATOM     68  H   UNL     1     147.662 163.122 189.948  0.00  0.00    +0.062 HD
ENDBRANCH  55  58
ENDBRANCH  21  55
BRANCH  16  69
ATOM     69  O   UNL     1     151.583 168.599 191.669  0.00  0.00    -0.387 OA
ATOM     70  H   UNL     1     152.240 168.265 192.301  0.00  0.00    +0.210 HD
ENDBRANCH  16  69
BRANCH   5  71
ATOM     71  O   UNL     1     142.839 171.344 189.686  0.00  0.00    -0.388 OA
ATOM     72  H   UNL     1     142.685 170.386 189.624  0.00  0.00    +0.210 HD
ENDBRANCH   5  71
TORSDOF 6
ENDMDL
MODEL 10
REMARK VINA RESULT:      -6.5      4.751      9.471
REMARK  Name = Cytochalasin B_conf2
REMARK  6 active torsions:
REMARK  status: ('A' for Active; 'I' for Inactive)
REMARK    1  A    between atoms: C_1  and  C_2
REMARK    2  A    between atoms: C_6  and  O_35
REMARK    3  A    between atoms: C_17  and  O_34
REMARK    4  A    between atoms: C_20  and  C_33
REMARK    5  A    between atoms: C_22  and  C_26
REMARK    6  A    between atoms: C_26  and  C_27
REMARK                            x       y       z     vdW  Elec       q    Type
REMARK                         _______ _______ _______ _____ _____    ______ ____
ROOT
ATOM      1  C   UNL     1     148.927 168.853 191.239  0.00  0.00    -0.040 C 
ATOM      2  C   UNL     1     148.515 170.262 191.706  0.00  0.00    -0.050 C 
ATOM      3  C   UNL     1     149.591 171.086 192.415  0.00  0.00    -0.050 C 
ATOM      4  C   UNL     1     149.354 172.608 192.385  0.00  0.00    -0.023 C 
ATOM      5  C   UNL     1     148.020 173.127 192.959  0.00  0.00    +0.074 C 
ATOM      6  C   UNL     1     146.805 172.745 192.168  0.00  0.00    -0.049 C 
ATOM      7  C   UNL     1     146.602 173.087 190.883  0.00  0.00    +0.021 C 
ATOM      8  C   UNL     1     145.560 172.494 190.022  0.00  0.00    +0.333 C 
ATOM      9  O   UNL     1     145.571 172.626 188.808  0.00  0.00    -0.246 OA
ATOM     10  O   UNL     1     144.663 171.781 190.737  0.00  0.00    -0.444 OA
ATOM     11  C   UNL     1     143.740 170.922 190.025  0.00  0.00    +0.202 C 
ATOM     12  C   UNL     1     144.455 169.753 189.283  0.00  0.00    +0.056 C 
ATOM     13  C   UNL     1     145.458 168.988 190.143  0.00  0.00    -0.078 C 
ATOM     14  C   UNL     1     146.756 168.795 189.847  0.00  0.00    -0.087 C 
ATOM     15  C   UNL     1     147.698 168.040 190.754  0.00  0.00    -0.032 C 
ATOM     16  C   UNL     1     143.403 168.781 188.676  0.00  0.00    +0.087 C 
ATOM     17  C   UNL     1     142.171 169.488 188.131  0.00  0.00    -0.045 C 
ATOM     18  C   UNL     1     141.017 168.816 187.974  0.00  0.00    -0.097 C 
ATOM     19  C   UNL     1     142.369 170.962 187.834  0.00  0.00    -0.012 C 
ATOM     20  C   UNL     1     142.749 171.740 189.125  0.00  0.00    +0.033 C 
ATOM     21  C   UNL     1     141.574 172.090 190.066  0.00  0.00    +0.035 C 
ATOM     22  N   UNL     1     141.610 171.061 191.065  0.00  0.00    -0.308 N 
ATOM     23  C   UNL     1     142.807 170.393 191.130  0.00  0.00    +0.258 C 
ATOM     24  O   UNL     1     143.048 169.545 191.974  0.00  0.00    -0.271 OA
ATOM     25  H   UNL     1     149.614 168.968 190.389  0.00  0.00    +0.030 HD
ATOM     26  H   UNL     1     148.202 170.810 190.811  0.00  0.00    +0.027 HD
ATOM     27  H   UNL     1     147.651 170.171 192.373  0.00  0.00    +0.027 HD
ATOM     28  H   UNL     1     150.564 170.897 191.945  0.00  0.00    +0.027 HD
ATOM     29  H   UNL     1     149.673 170.757 193.457  0.00  0.00    +0.027 HD
ATOM     30  H   UNL     1     149.476 172.966 191.353  0.00  0.00    +0.029 HD
ATOM     31  H   UNL     1     150.175 173.083 192.938  0.00  0.00    +0.029 HD
ATOM     32  H   UNL     1     147.899 172.780 193.991  0.00  0.00    +0.064 HD
ATOM     33  H   UNL     1     146.124 172.056 192.663  0.00  0.00    +0.060 HD
ATOM     34  H   UNL     1     147.296 173.740 190.364  0.00  0.00    +0.069 HD
ATOM     35  H   UNL     1     145.035 170.180 188.454  0.00  0.00    +0.042 HD
ATOM     36  H   UNL     1     145.070 168.558 191.067  0.00  0.00    +0.057 HD
ATOM     37  H   UNL     1     147.171 169.188 188.922  0.00  0.00    +0.057 HD
ATOM     38  H   UNL     1     148.050 167.151 190.215  0.00  0.00    +0.031 HD
ATOM     39  H   UNL     1     147.148 167.668 191.629  0.00  0.00    +0.031 HD
ATOM     40  H   UNL     1     143.097 168.043 189.429  0.00  0.00    +0.065 HD
ATOM     41  H   UNL     1     140.955 167.757 188.212  0.00  0.00    +0.054 HD
ATOM     42  H   UNL     1     140.110 169.278 187.601  0.00  0.00    +0.054 HD
ATOM     43  H   UNL     1     143.247 171.013 187.172  0.00  0.00    +0.035 HD
ATOM     44  H   UNL     1     143.193 172.681 188.784  0.00  0.00    +0.037 HD
ATOM     45  H   UNL     1     140.601 172.025 189.574  0.00  0.00    +0.051 HD
ATOM     46  H   UNL     1     140.868 170.875 191.731  0.00  0.00    +0.149 HD
ENDROOT
BRANCH   1  47
ATOM     47  C   UNL     1     149.658 168.060 192.324  0.00  0.00    -0.062 C 
ATOM     48  H   UNL     1     148.954 167.690 193.076  0.00  0.00    +0.023 HD
ATOM     49  H   UNL     1     150.171 167.189 191.905  0.00  0.00    +0.023 HD
ATOM     50  H   UNL     1     150.404 168.681 192.833  0.00  0.00    +0.023 HD
ENDBRANCH   1  47
BRANCH  19  51
ATOM     51  C   UNL     1     141.259 171.650 187.028  0.00  0.00    -0.058 C 
ATOM     52  H   UNL     1     141.369 171.427 185.960  0.00  0.00    +0.024 HD
ATOM     53  H   UNL     1     140.255 171.335 187.325  0.00  0.00    +0.024 HD
ATOM     54  H   UNL     1     141.318 172.737 187.145  0.00  0.00    +0.024 HD
ENDBRANCH  19  51
BRANCH  21  55
ATOM     55  C   UNL     1     141.743 173.491 190.690  0.00  0.00    -0.009 C 
ATOM     56  H   UNL     1     141.490 174.261 189.949  0.00  0.00    +0.033 HD
ATOM     57  H   UNL     1     142.788 173.674 190.970  0.00  0.00    +0.033 HD
BRANCH  55  58
ATOM     58  C   UNL     1     140.862 173.693 191.903  0.00  0.00    -0.046 A 
ATOM     59  C   UNL     1     139.477 173.849 191.756  0.00  0.00    -0.059 A 
ATOM     60  C   UNL     1     138.667 174.058 192.873  0.00  0.00    -0.062 A 
ATOM     61  C   UNL     1     139.234 174.114 194.145  0.00  0.00    -0.062 A 
ATOM     62  C   UNL     1     140.610 173.961 194.301  0.00  0.00    -0.062 A 
ATOM     63  C   UNL     1     141.423 173.753 193.186  0.00  0.00    -0.059 A 
ATOM     64  H   UNL     1     139.020 173.811 190.768  0.00  0.00    +0.062 HD
ATOM     65  H   UNL     1     137.594 174.177 192.750  0.00  0.00    +0.062 HD
ATOM     66  H   UNL     1     138.602 174.276 195.014  0.00  0.00    +0.062 HD
ATOM     67  H   UNL     1     141.051 174.004 195.295  0.00  0.00    +0.062 HD
ATOM     68  H   UNL     1     142.494 173.635 193.327  0.00  0.00    +0.062 HD
ENDBRANCH  55  58
ENDBRANCH  21  55
BRANCH  16  69
ATOM     69  O   UNL     1     143.989 168.050 187.596  0.00  0.00    -0.387 OA
ATOM     70  H   UNL     1     143.381 168.098 186.841  0.00  0.00    +0.210 HD
ENDBRANCH  16  69
BRANCH   5  71
ATOM     71  O   UNL     1     148.060 174.553 192.988  0.00  0.00    -0.388 OA
ATOM     72  H   UNL     1     148.933 174.822 192.656  0.00  0.00    +0.210 HD
ENDBRANCH   5  71
TORSDOF 6
ENDMDL
