MODEL 1
REMARK VINA RESULT:      -8.1      0.000      0.000
REMARK  Name = Cytochalasin B_conf3
REMARK  6 active torsions:
REMARK  status: ('A' for Active; 'I' for Inactive)
REMARK    1  A    between atoms: C_1  and  C_2
REMARK    2  A    between atoms: C_6  and  O_35
REMARK    3  A    between atoms: C_17  and  O_34
REMARK    4  A    between atoms: C_20  and  C_33
REMARK    5  A    between atoms: C_22  and  C_26
REMARK    6  A    between atoms: C_26  and  C_27
REMARK                            x       y       z     vdW  Elec       q    Type
REMARK                         _______ _______ _______ _____ _____    ______ ____
ROOT
ATOM      1  C   UNL     1     152.430 161.747 188.578  0.00  0.00    -0.040 C 
ATOM      2  C   UNL     1     152.761 162.772 187.468  0.00  0.00    -0.050 C 
ATOM      3  C   UNL     1     151.606 163.727 187.185  0.00  0.00    -0.050 C 
ATOM      4  C   UNL     1     151.999 164.869 186.230  0.00  0.00    -0.023 C 
ATOM      5  C   UNL     1     150.893 165.935 186.077  0.00  0.00    +0.074 C 
ATOM      6  C   UNL     1     150.482 166.437 187.433  0.00  0.00    -0.049 C 
ATOM      7  C   UNL     1     149.328 166.115 188.046  0.00  0.00    +0.021 C 
ATOM      8  C   UNL     1     149.120 166.238 189.500  0.00  0.00    +0.333 C 
ATOM      9  O   UNL     1     148.112 165.823 190.052  0.00  0.00    -0.246 OA
ATOM     10  O   UNL     1     150.207 166.761 190.112  0.00  0.00    -0.444 OA
ATOM     11  C   UNL     1     150.341 166.582 191.541  0.00  0.00    +0.202 C 
ATOM     12  C   UNL     1     150.499 165.083 191.942  0.00  0.00    +0.056 C 
ATOM     13  C   UNL     1     151.595 164.311 191.197  0.00  0.00    -0.078 C 
ATOM     14  C   UNL     1     151.422 163.153 190.533  0.00  0.00    -0.087 C 
ATOM     15  C   UNL     1     152.570 162.318 190.013  0.00  0.00    -0.032 C 
ATOM     16  C   UNL     1     150.739 164.965 193.479  0.00  0.00    +0.087 C 
ATOM     17  C   UNL     1     149.957 165.973 194.302  0.00  0.00    -0.045 C 
ATOM     18  C   UNL     1     150.355 166.288 195.549  0.00  0.00    -0.097 C 
ATOM     19  C   UNL     1     148.763 166.576 193.592  0.00  0.00    -0.012 C 
ATOM     20  C   UNL     1     149.217 167.350 192.326  0.00  0.00    +0.033 C 
ATOM     21  C   UNL     1     149.809 168.754 192.577  0.00  0.00    +0.035 C 
ATOM     22  N   UNL     1     151.228 168.554 192.521  0.00  0.00    -0.308 N 
ATOM     23  C   UNL     1     151.600 167.385 191.907  0.00  0.00    +0.258 C 
ATOM     24  O   UNL     1     152.765 167.098 191.684  0.00  0.00    -0.271 OA
ATOM     25  H   UNL     1     151.410 161.371 188.433  0.00  0.00    +0.030 HD
ATOM     26  H   UNL     1     152.998 162.247 186.533  0.00  0.00    +0.027 HD
ATOM     27  H   UNL     1     153.660 163.337 187.745  0.00  0.00    +0.027 HD
ATOM     28  H   UNL     1     150.760 163.169 186.766  0.00  0.00    +0.027 HD
ATOM     29  H   UNL     1     151.274 164.144 188.135  0.00  0.00    +0.027 HD
ATOM     30  H   UNL     1     152.912 165.353 186.602  0.00  0.00    +0.029 HD
ATOM     31  H   UNL     1     152.233 164.441 185.247  0.00  0.00    +0.029 HD
ATOM     32  H   UNL     1     151.258 166.774 185.476  0.00  0.00    +0.064 HD
ATOM     33  H   UNL     1     151.271 166.944 187.987  0.00  0.00    +0.060 HD
ATOM     34  H   UNL     1     148.549 165.563 187.529  0.00  0.00    +0.069 HD
ATOM     35  H   UNL     1     149.558 164.567 191.709  0.00  0.00    +0.042 HD
ATOM     36  H   UNL     1     152.611 164.693 191.309  0.00  0.00    +0.057 HD
ATOM     37  H   UNL     1     150.428 162.717 190.453  0.00  0.00    +0.057 HD
ATOM     38  H   UNL     1     152.653 161.475 190.711  0.00  0.00    +0.031 HD
ATOM     39  H   UNL     1     153.515 162.870 190.095  0.00  0.00    +0.031 HD
ATOM     40  H   UNL     1     151.809 165.075 193.695  0.00  0.00    +0.065 HD
ATOM     41  H   UNL     1     151.226 165.809 195.990  0.00  0.00    +0.054 HD
ATOM     42  H   UNL     1     149.837 167.008 196.172  0.00  0.00    +0.054 HD
ATOM     43  H   UNL     1     148.167 165.720 193.239  0.00  0.00    +0.035 HD
ATOM     44  H   UNL     1     148.314 167.477 191.719  0.00  0.00    +0.037 HD
ATOM     45  H   UNL     1     149.579 169.141 193.573  0.00  0.00    +0.051 HD
ATOM     46  H   UNL     1     151.919 169.234 192.817  0.00  0.00    +0.149 HD
ENDROOT
BRANCH   1  47
ATOM     47  C   UNL     1     153.386 160.553 188.434  0.00  0.00    -0.062 C 
ATOM     48  H   UNL     1     154.333 160.862 187.977  0.00  0.00    +0.023 HD
ATOM     49  H   UNL     1     153.622 160.121 189.413  0.00  0.00    +0.023 HD
ATOM     50  H   UNL     1     152.948 159.766 187.810  0.00  0.00    +0.023 HD
ENDBRANCH   1  47
BRANCH  19  51
ATOM     51  C   UNL     1     147.785 167.377 194.460  0.00  0.00    -0.058 C 
ATOM     52  H   UNL     1     147.544 166.825 195.375  0.00  0.00    +0.024 HD
ATOM     53  H   UNL     1     146.845 167.608 193.951  0.00  0.00    +0.024 HD
ATOM     54  H   UNL     1     148.235 168.331 194.763  0.00  0.00    +0.024 HD
ENDBRANCH  19  51
BRANCH  21  55
ATOM     55  C   UNL     1     149.340 169.766 191.509  0.00  0.00    -0.009 C 
ATOM     56  H   UNL     1     148.507 169.339 190.935  0.00  0.00    +0.033 HD
ATOM     57  H   UNL     1     150.138 169.965 190.782  0.00  0.00    +0.033 HD
BRANCH  55  58
ATOM     58  C   UNL     1     148.879 171.072 192.113  0.00  0.00    -0.046 A 
ATOM     59  C   UNL     1     149.769 171.869 192.845  0.00  0.00    -0.059 A 
ATOM     60  C   UNL     1     149.339 173.064 193.422  0.00  0.00    -0.062 A 
ATOM     61  C   UNL     1     148.015 173.473 193.273  0.00  0.00    -0.062 A 
ATOM     62  C   UNL     1     147.121 172.688 192.548  0.00  0.00    -0.062 A 
ATOM     63  C   UNL     1     147.549 171.492 191.971  0.00  0.00    -0.059 A 
ATOM     64  H   UNL     1     150.805 171.561 192.973  0.00  0.00    +0.062 HD
ATOM     65  H   UNL     1     150.036 173.675 193.988  0.00  0.00    +0.062 HD
ATOM     66  H   UNL     1     147.680 174.404 193.722  0.00  0.00    +0.062 HD
ATOM     67  H   UNL     1     146.088 173.008 192.432  0.00  0.00    +0.062 HD
ATOM     68  H   UNL     1     146.838 170.891 191.408  0.00  0.00    +0.062 HD
ENDBRANCH  55  58
ENDBRANCH  21  55
BRANCH  16  69
ATOM     69  O   UNL     1     150.359 163.662 193.927  0.00  0.00    -0.387 OA
ATOM     70  H   UNL     1     150.414 163.060 193.168  0.00  0.00    +0.210 HD
ENDBRANCH  16  69
BRANCH   5  71
ATOM     71  O   UNL     1     149.775 165.373 185.403  0.00  0.00    -0.388 OA
ATOM     72  H   UNL     1     149.618 165.913 184.610  0.00  0.00    +0.210 HD
ENDBRANCH   5  71
TORSDOF 6
ENDMDL
MODEL 2
REMARK VINA RESULT:      -7.8      3.244      6.892
REMARK  Name = Cytochalasin B_conf3
REMARK  6 active torsions:
REMARK  status: ('A' for Active; 'I' for Inactive)
REMARK    1  A    between atoms: C_1  and  C_2
REMARK    2  A    between atoms: C_6  and  O_35
REMARK    3  A    between atoms: C_17  and  O_34
REMARK    4  A    between atoms: C_20  and  C_33
REMARK    5  A    between atoms: C_22  and  C_26
REMARK    6  A    between atoms: C_26  and  C_27
REMARK                            x       y       z     vdW  Elec       q    Type
REMARK                         _______ _______ _______ _____ _____    ______ ____
ROOT
ATOM      1  C   UNL     1     143.463 166.916 192.598  0.00  0.00    -0.040 C 
ATOM      2  C   UNL     1     143.392 166.492 191.112  0.00  0.00    -0.050 C 
ATOM      3  C   UNL     1     144.444 167.185 190.252  0.00  0.00    -0.050 C 
ATOM      4  C   UNL     1     144.509 166.618 188.821  0.00  0.00    -0.023 C 
ATOM      5  C   UNL     1     145.685 167.188 187.999  0.00  0.00    +0.074 C 
ATOM      6  C   UNL     1     146.971 166.994 188.753  0.00  0.00    -0.049 C 
ATOM      7  C   UNL     1     147.644 167.978 189.376  0.00  0.00    +0.021 C 
ATOM      8  C   UNL     1     148.628 167.735 190.446  0.00  0.00    +0.333 C 
ATOM      9  O   UNL     1     149.134 168.645 191.086  0.00  0.00    -0.246 OA
ATOM     10  O   UNL     1     148.799 166.412 190.671  0.00  0.00    -0.444 OA
ATOM     11  C   UNL     1     149.399 166.001 191.921  0.00  0.00    +0.202 C 
ATOM     12  C   UNL     1     148.521 166.373 193.155  0.00  0.00    +0.056 C 
ATOM     13  C   UNL     1     147.056 165.923 193.085  0.00  0.00    -0.078 C 
ATOM     14  C   UNL     1     145.984 166.720 193.250  0.00  0.00    -0.087 C 
ATOM     15  C   UNL     1     144.576 166.191 193.399  0.00  0.00    -0.032 C 
ATOM     16  C   UNL     1     149.170 165.816 194.458  0.00  0.00    +0.087 C 
ATOM     17  C   UNL     1     150.687 165.876 194.463  0.00  0.00    -0.045 C 
ATOM     18  C   UNL     1     151.397 165.078 195.282  0.00  0.00    -0.097 C 
ATOM     19  C   UNL     1     151.282 166.856 193.475  0.00  0.00    -0.012 C 
ATOM     20  C   UNL     1     150.895 166.468 192.023  0.00  0.00    +0.033 C 
ATOM     21  C   UNL     1     151.707 165.309 191.402  0.00  0.00    +0.035 C 
ATOM     22  N   UNL     1     150.856 164.164 191.550  0.00  0.00    -0.308 N 
ATOM     23  C   UNL     1     149.542 164.475 191.788  0.00  0.00    +0.258 C 
ATOM     24  O   UNL     1     148.662 163.631 191.843  0.00  0.00    -0.271 OA
ATOM     25  H   UNL     1     143.618 168.000 192.660  0.00  0.00    +0.030 HD
ATOM     26  H   UNL     1     142.406 166.741 190.699  0.00  0.00    +0.027 HD
ATOM     27  H   UNL     1     143.497 165.403 191.035  0.00  0.00    +0.027 HD
ATOM     28  H   UNL     1     144.241 168.261 190.215  0.00  0.00    +0.027 HD
ATOM     29  H   UNL     1     145.411 167.060 190.737  0.00  0.00    +0.027 HD
ATOM     30  H   UNL     1     144.604 165.526 188.870  0.00  0.00    +0.029 HD
ATOM     31  H   UNL     1     143.564 166.842 188.311  0.00  0.00    +0.029 HD
ATOM     32  H   UNL     1     145.751 166.680 187.032  0.00  0.00    +0.064 HD
ATOM     33  H   UNL     1     147.242 165.953 188.925  0.00  0.00    +0.060 HD
ATOM     34  H   UNL     1     147.358 169.018 189.261  0.00  0.00    +0.069 HD
ATOM     35  H   UNL     1     148.493 167.468 193.235  0.00  0.00    +0.042 HD
ATOM     36  H   UNL     1     146.889 164.848 192.993  0.00  0.00    +0.057 HD
ATOM     37  H   UNL     1     146.121 167.789 193.400  0.00  0.00    +0.057 HD
ATOM     38  H   UNL     1     144.344 166.284 194.469  0.00  0.00    +0.031 HD
ATOM     39  H   UNL     1     144.543 165.117 193.178  0.00  0.00    +0.031 HD
ATOM     40  H   UNL     1     148.849 164.779 194.617  0.00  0.00    +0.065 HD
ATOM     41  H   UNL     1     150.893 164.398 195.966  0.00  0.00    +0.054 HD
ATOM     42  H   UNL     1     152.480 165.076 195.316  0.00  0.00    +0.054 HD
ATOM     43  H   UNL     1     150.791 167.819 193.682  0.00  0.00    +0.035 HD
ATOM     44  H   UNL     1     151.083 167.362 191.419  0.00  0.00    +0.037 HD
ATOM     45  H   UNL     1     152.629 165.095 191.947  0.00  0.00    +0.051 HD
ATOM     46  H   UNL     1     151.150 163.204 191.408  0.00  0.00    +0.149 HD
ENDROOT
BRANCH   1  47
ATOM     47  C   UNL     1     142.109 166.607 193.254  0.00  0.00    -0.062 C 
ATOM     48  H   UNL     1     141.740 165.623 192.943  0.00  0.00    +0.023 HD
ATOM     49  H   UNL     1     142.199 166.591 194.346  0.00  0.00    +0.023 HD
ATOM     50  H   UNL     1     141.356 167.355 192.984  0.00  0.00    +0.023 HD
ENDBRANCH   1  47
BRANCH  19  51
ATOM     51  C   UNL     1     152.778 167.160 193.631  0.00  0.00    -0.058 C 
ATOM     52  H   UNL     1     152.922 168.148 194.082  0.00  0.00    +0.024 HD
ATOM     53  H   UNL     1     153.322 167.142 192.683  0.00  0.00    +0.024 HD
ATOM     54  H   UNL     1     153.250 166.426 194.294  0.00  0.00    +0.024 HD
ENDBRANCH  19  51
BRANCH  21  55
ATOM     55  C   UNL     1     152.035 165.580 189.918  0.00  0.00    -0.009 C 
ATOM     56  H   UNL     1     151.794 166.622 189.669  0.00  0.00    +0.033 HD
ATOM     57  H   UNL     1     151.413 164.960 189.260  0.00  0.00    +0.033 HD
BRANCH  55  58
ATOM     58  C   UNL     1     153.492 165.341 189.595  0.00  0.00    -0.046 A 
ATOM     59  C   UNL     1     153.972 164.038 189.406  0.00  0.00    -0.059 A 
ATOM     60  C   UNL     1     155.322 163.816 189.130  0.00  0.00    -0.062 A 
ATOM     61  C   UNL     1     156.202 164.892 189.041  0.00  0.00    -0.062 A 
ATOM     62  C   UNL     1     155.735 166.191 189.229  0.00  0.00    -0.062 A 
ATOM     63  C   UNL     1     154.386 166.417 189.505  0.00  0.00    -0.059 A 
ATOM     64  H   UNL     1     153.298 163.187 189.476  0.00  0.00    +0.062 HD
ATOM     65  H   UNL     1     155.686 162.802 188.985  0.00  0.00    +0.062 HD
ATOM     66  H   UNL     1     157.253 164.717 188.826  0.00  0.00    +0.062 HD
ATOM     67  H   UNL     1     156.423 167.031 189.158  0.00  0.00    +0.062 HD
ATOM     68  H   UNL     1     154.039 167.437 189.649  0.00  0.00    +0.062 HD
ENDBRANCH  55  58
ENDBRANCH  21  55
BRANCH  16  69
ATOM     69  O   UNL     1     148.710 166.567 195.585  0.00  0.00    -0.387 OA
ATOM     70  H   UNL     1     148.916 166.057 196.384  0.00  0.00    +0.210 HD
ENDBRANCH  16  69
BRANCH   5  71
ATOM     71  O   UNL     1     145.469 168.571 187.748  0.00  0.00    -0.388 OA
ATOM     72  H   UNL     1     146.260 169.044 188.052  0.00  0.00    +0.210 HD
ENDBRANCH   5  71
TORSDOF 6
ENDMDL
MODEL 3
REMARK VINA RESULT:      -7.5      2.184      2.856
REMARK  Name = Cytochalasin B_conf3
REMARK  6 active torsions:
REMARK  status: ('A' for Active; 'I' for Inactive)
REMARK    1  A    between atoms: C_1  and  C_2
REMARK    2  A    between atoms: C_6  and  O_35
REMARK    3  A    between atoms: C_17  and  O_34
REMARK    4  A    between atoms: C_20  and  C_33
REMARK    5  A    between atoms: C_22  and  C_26
REMARK    6  A    between atoms: C_26  and  C_27
REMARK                            x       y       z     vdW  Elec       q    Type
REMARK                         _______ _______ _______ _____ _____    ______ ____
ROOT
ATOM      1  C   UNL     1     153.450 161.586 189.158  0.00  0.00    -0.040 C 
ATOM      2  C   UNL     1     154.716 162.423 189.458  0.00  0.00    -0.050 C 
ATOM      3  C   UNL     1     154.630 163.840 188.900  0.00  0.00    -0.050 C 
ATOM      4  C   UNL     1     155.793 164.735 189.367  0.00  0.00    -0.023 C 
ATOM      5  C   UNL     1     155.621 166.212 188.954  0.00  0.00    +0.074 C 
ATOM      6  C   UNL     1     154.285 166.717 189.422  0.00  0.00    -0.049 C 
ATOM      7  C   UNL     1     153.230 166.938 188.617  0.00  0.00    +0.021 C 
ATOM      8  C   UNL     1     151.840 167.006 189.102  0.00  0.00    +0.333 C 
ATOM      9  O   UNL     1     150.887 167.080 188.340  0.00  0.00    -0.246 OA
ATOM     10  O   UNL     1     151.778 166.876 190.446  0.00  0.00    -0.444 OA
ATOM     11  C   UNL     1     150.510 166.519 191.043  0.00  0.00    +0.202 C 
ATOM     12  C   UNL     1     150.027 165.100 190.611  0.00  0.00    +0.056 C 
ATOM     13  C   UNL     1     151.046 163.969 190.794  0.00  0.00    -0.078 C 
ATOM     14  C   UNL     1     151.441 163.109 189.836  0.00  0.00    -0.087 C 
ATOM     15  C   UNL     1     152.270 161.877 190.121  0.00  0.00    -0.032 C 
ATOM     16  C   UNL     1     148.711 164.734 191.363  0.00  0.00    +0.087 C 
ATOM     17  C   UNL     1     147.773 165.910 191.569  0.00  0.00    -0.045 C 
ATOM     18  C   UNL     1     146.835 165.872 192.533  0.00  0.00    -0.097 C 
ATOM     19  C   UNL     1     148.017 167.080 190.639  0.00  0.00    -0.012 C 
ATOM     20  C   UNL     1     149.443 167.655 190.852  0.00  0.00    +0.033 C 
ATOM     21  C   UNL     1     149.620 168.566 192.087  0.00  0.00    +0.035 C 
ATOM     22  N   UNL     1     150.211 167.709 193.074  0.00  0.00    -0.308 N 
ATOM     23  C   UNL     1     150.775 166.572 192.556  0.00  0.00    +0.258 C 
ATOM     24  O   UNL     1     151.407 165.779 193.237  0.00  0.00    -0.271 OA
ATOM     25  H   UNL     1     153.131 161.767 188.125  0.00  0.00    +0.030 HD
ATOM     26  H   UNL     1     155.597 161.942 189.013  0.00  0.00    +0.027 HD
ATOM     27  H   UNL     1     154.890 162.452 190.541  0.00  0.00    +0.027 HD
ATOM     28  H   UNL     1     154.607 163.805 187.805  0.00  0.00    +0.027 HD
ATOM     29  H   UNL     1     153.685 164.272 189.225  0.00  0.00    +0.027 HD
ATOM     30  H   UNL     1     155.876 164.677 190.460  0.00  0.00    +0.029 HD
ATOM     31  H   UNL     1     156.728 164.343 188.947  0.00  0.00    +0.029 HD
ATOM     32  H   UNL     1     156.415 166.822 189.397  0.00  0.00    +0.064 HD
ATOM     33  H   UNL     1     154.157 166.723 190.503  0.00  0.00    +0.060 HD
ATOM     34  H   UNL     1     153.324 166.884 187.536  0.00  0.00    +0.069 HD
ATOM     35  H   UNL     1     149.802 165.129 189.536  0.00  0.00    +0.042 HD
ATOM     36  H   UNL     1     151.395 163.798 191.813  0.00  0.00    +0.057 HD
ATOM     37  H   UNL     1     151.066 163.220 188.820  0.00  0.00    +0.057 HD
ATOM     38  H   UNL     1     151.566 161.036 190.064  0.00  0.00    +0.031 HD
ATOM     39  H   UNL     1     152.637 161.892 191.155  0.00  0.00    +0.031 HD
ATOM     40  H   UNL     1     148.952 164.290 192.337  0.00  0.00    +0.065 HD
ATOM     41  H   UNL     1     146.723 164.991 193.161  0.00  0.00    +0.054 HD
ATOM     42  H   UNL     1     146.150 166.689 192.726  0.00  0.00    +0.054 HD
ATOM     43  H   UNL     1     147.998 166.659 189.623  0.00  0.00    +0.035 HD
ATOM     44  H   UNL     1     149.651 168.262 189.963  0.00  0.00    +0.037 HD
ATOM     45  H   UNL     1     148.670 168.917 192.496  0.00  0.00    +0.051 HD
ATOM     46  H   UNL     1     150.298 167.937 194.058  0.00  0.00    +0.149 HD
ENDROOT
BRANCH   1  47
ATOM     47  C   UNL     1     153.817 160.099 189.273  0.00  0.00    -0.062 C 
ATOM     48  H   UNL     1     152.917 159.473 189.286  0.00  0.00    +0.023 HD
ATOM     49  H   UNL     1     154.424 159.778 188.418  0.00  0.00    +0.023 HD
ATOM     50  H   UNL     1     154.384 159.898 190.188  0.00  0.00    +0.023 HD
ENDBRANCH   1  47
BRANCH  19  51
ATOM     51  C   UNL     1     146.935 168.168 190.612  0.00  0.00    -0.058 C 
ATOM     52  H   UNL     1     147.389 169.155 190.471  0.00  0.00    +0.024 HD
ATOM     53  H   UNL     1     146.335 168.201 191.524  0.00  0.00    +0.024 HD
ATOM     54  H   UNL     1     146.248 168.002 189.773  0.00  0.00    +0.024 HD
ENDBRANCH  19  51
BRANCH  21  55
ATOM     55  C   UNL     1     150.528 169.774 191.774  0.00  0.00    -0.009 C 
ATOM     56  H   UNL     1     150.825 169.751 190.717  0.00  0.00    +0.033 HD
ATOM     57  H   UNL     1     151.459 169.725 192.352  0.00  0.00    +0.033 HD
BRANCH  55  58
ATOM     58  C   UNL     1     149.844 171.096 192.043  0.00  0.00    -0.046 A 
ATOM     59  C   UNL     1     150.127 171.815 193.213  0.00  0.00    -0.059 A 
ATOM     60  C   UNL     1     149.481 173.023 193.473  0.00  0.00    -0.062 A 
ATOM     61  C   UNL     1     148.546 173.523 192.569  0.00  0.00    -0.062 A 
ATOM     62  C   UNL     1     148.256 172.815 191.405  0.00  0.00    -0.062 A 
ATOM     63  C   UNL     1     148.901 171.606 191.142  0.00  0.00    -0.059 A 
ATOM     64  H   UNL     1     150.852 171.435 193.930  0.00  0.00    +0.062 HD
ATOM     65  H   UNL     1     149.706 173.574 194.383  0.00  0.00    +0.062 HD
ATOM     66  H   UNL     1     148.043 174.465 192.773  0.00  0.00    +0.062 HD
ATOM     67  H   UNL     1     147.527 173.207 190.698  0.00  0.00    +0.062 HD
ATOM     68  H   UNL     1     148.663 171.067 190.227  0.00  0.00    +0.062 HD
ENDBRANCH  55  58
ENDBRANCH  21  55
BRANCH  16  69
ATOM     69  O   UNL     1     147.994 163.741 190.624  0.00  0.00    -0.387 OA
ATOM     70  H   UNL     1     148.399 163.677 189.744  0.00  0.00    +0.210 HD
ENDBRANCH  16  69
BRANCH   5  71
ATOM     71  O   UNL     1     155.722 166.330 187.541  0.00  0.00    -0.388 OA
ATOM     72  H   UNL     1     155.631 167.273 187.325  0.00  0.00    +0.210 HD
ENDBRANCH   5  71
TORSDOF 6
ENDMDL
MODEL 4
REMARK VINA RESULT:      -7.2      3.088      8.323
REMARK  Name = Cytochalasin B_conf3
REMARK  6 active torsions:
REMARK  status: ('A' for Active; 'I' for Inactive)
REMARK    1  A    between atoms: C_1  and  C_2
REMARK    2  A    between atoms: C_6  and  O_35
REMARK    3  A    between atoms: C_17  and  O_34
REMARK    4  A    between atoms: C_20  and  C_33
REMARK    5  A    between atoms: C_22  and  C_26
REMARK    6  A    between atoms: C_26  and  C_27
REMARK                            x       y       z     vdW  Elec       q    Type
REMARK                         _______ _______ _______ _____ _____    ______ ____
ROOT
ATOM      1  C   UNL     1     143.836 172.876 191.346  0.00  0.00    -0.040 C 
ATOM      2  C   UNL     1     145.137 173.704 191.223  0.00  0.00    -0.050 C 
ATOM      3  C   UNL     1     146.319 173.050 191.930  0.00  0.00    -0.050 C 
ATOM      4  C   UNL     1     147.653 173.763 191.642  0.00  0.00    -0.023 C 
ATOM      5  C   UNL     1     148.875 173.008 192.207  0.00  0.00    +0.074 C 
ATOM      6  C   UNL     1     148.865 171.588 191.716  0.00  0.00    -0.049 C 
ATOM      7  C   UNL     1     148.545 170.523 192.473  0.00  0.00    +0.021 C 
ATOM      8  C   UNL     1     148.119 169.228 191.912  0.00  0.00    +0.333 C 
ATOM      9  O   UNL     1     147.711 168.316 192.615  0.00  0.00    -0.246 OA
ATOM     10  O   UNL     1     148.149 169.240 190.560  0.00  0.00    -0.444 OA
ATOM     11  C   UNL     1     147.399 168.229 189.848  0.00  0.00    +0.202 C 
ATOM     12  C   UNL     1     145.862 168.349 190.086  0.00  0.00    +0.056 C 
ATOM     13  C   UNL     1     145.261 169.739 189.841  0.00  0.00    -0.078 C 
ATOM     14  C   UNL     1     144.512 170.433 190.719  0.00  0.00    -0.087 C 
ATOM     15  C   UNL     1     143.757 171.689 190.350  0.00  0.00    -0.032 C 
ATOM     16  C   UNL     1     145.105 167.300 189.216  0.00  0.00    +0.087 C 
ATOM     17  C   UNL     1     145.829 165.972 189.086  0.00  0.00    -0.045 C 
ATOM     18  C   UNL     1     145.548 165.141 188.066  0.00  0.00    -0.097 C 
ATOM     19  C   UNL     1     146.870 165.716 190.154  0.00  0.00    -0.012 C 
ATOM     20  C   UNL     1     147.985 166.793 190.099  0.00  0.00    +0.033 C 
ATOM     21  C   UNL     1     149.042 166.606 188.988  0.00  0.00    +0.035 C 
ATOM     22  N   UNL     1     148.624 167.503 187.949  0.00  0.00    -0.308 N 
ATOM     23  C   UNL     1     147.747 168.470 188.370  0.00  0.00    +0.258 C 
ATOM     24  O   UNL     1     147.364 169.375 187.646  0.00  0.00    -0.271 OA
ATOM     25  H   UNL     1     143.741 172.498 192.371  0.00  0.00    +0.030 HD
ATOM     26  H   UNL     1     144.990 174.697 191.666  0.00  0.00    +0.027 HD
ATOM     27  H   UNL     1     145.371 173.865 190.163  0.00  0.00    +0.027 HD
ATOM     28  H   UNL     1     146.137 173.029 193.011  0.00  0.00    +0.027 HD
ATOM     29  H   UNL     1     146.379 172.015 191.597  0.00  0.00    +0.027 HD
ATOM     30  H   UNL     1     147.774 173.875 190.556  0.00  0.00    +0.029 HD
ATOM     31  H   UNL     1     147.613 174.771 192.073  0.00  0.00    +0.029 HD
ATOM     32  H   UNL     1     149.801 173.496 191.887  0.00  0.00    +0.064 HD
ATOM     33  H   UNL     1     148.959 171.481 190.636  0.00  0.00    +0.060 HD
ATOM     34  H   UNL     1     148.394 170.616 193.544  0.00  0.00    +0.069 HD
ATOM     35  H   UNL     1     145.661 168.119 191.141  0.00  0.00    +0.042 HD
ATOM     36  H   UNL     1     145.375 170.140 188.833  0.00  0.00    +0.057 HD
ATOM     37  H   UNL     1     144.334 170.033 191.715  0.00  0.00    +0.057 HD
ATOM     38  H   UNL     1     142.706 171.381 190.266  0.00  0.00    +0.031 HD
ATOM     39  H   UNL     1     144.049 172.034 189.349  0.00  0.00    +0.031 HD
ATOM     40  H   UNL     1     144.922 167.712 188.215  0.00  0.00    +0.065 HD
ATOM     41  H   UNL     1     144.783 165.399 187.336  0.00  0.00    +0.054 HD
ATOM     42  H   UNL     1     146.044 164.188 187.923  0.00  0.00    +0.054 HD
ATOM     43  H   UNL     1     146.349 165.854 191.114  0.00  0.00    +0.035 HD
ATOM     44  H   UNL     1     148.504 166.730 191.061  0.00  0.00    +0.037 HD
ATOM     45  H   UNL     1     149.038 165.601 188.562  0.00  0.00    +0.051 HD
ATOM     46  H   UNL     1     148.993 167.505 187.005  0.00  0.00    +0.149 HD
ENDROOT
BRANCH   1  47
ATOM     47  C   UNL     1     142.643 173.809 191.087  0.00  0.00    -0.062 C 
ATOM     48  H   UNL     1     141.851 173.288 190.537  0.00  0.00    +0.023 HD
ATOM     49  H   UNL     1     142.209 174.159 192.031  0.00  0.00    +0.023 HD
ATOM     50  H   UNL     1     142.943 174.686 190.503  0.00  0.00    +0.023 HD
ENDBRANCH   1  47
BRANCH  19  51
ATOM     51  C   UNL     1     147.428 164.288 190.236  0.00  0.00    -0.058 C 
ATOM     52  H   UNL     1     146.614 163.567 190.376  0.00  0.00    +0.024 HD
ATOM     53  H   UNL     1     148.141 164.150 191.053  0.00  0.00    +0.024 HD
ATOM     54  H   UNL     1     147.942 164.024 189.304  0.00  0.00    +0.024 HD
ENDBRANCH  19  51
BRANCH  21  55
ATOM     55  C   UNL     1     150.460 166.950 189.492  0.00  0.00    -0.009 C 
ATOM     56  H   UNL     1     150.611 168.037 189.462  0.00  0.00    +0.033 HD
ATOM     57  H   UNL     1     151.225 166.520 188.833  0.00  0.00    +0.033 HD
BRANCH  55  58
ATOM     58  C   UNL     1     150.700 166.478 190.908  0.00  0.00    -0.046 A 
ATOM     59  C   UNL     1     151.000 167.398 191.921  0.00  0.00    -0.059 A 
ATOM     60  C   UNL     1     151.244 166.962 193.223  0.00  0.00    -0.062 A 
ATOM     61  C   UNL     1     151.191 165.602 193.525  0.00  0.00    -0.062 A 
ATOM     62  C   UNL     1     150.895 164.679 192.524  0.00  0.00    -0.062 A 
ATOM     63  C   UNL     1     150.651 165.113 191.221  0.00  0.00    -0.059 A 
ATOM     64  H   UNL     1     151.048 168.463 191.701  0.00  0.00    +0.062 HD
ATOM     65  H   UNL     1     151.475 167.683 194.003  0.00  0.00    +0.062 HD
ATOM     66  H   UNL     1     151.380 165.263 194.540  0.00  0.00    +0.062 HD
ATOM     67  H   UNL     1     150.853 163.617 192.760  0.00  0.00    +0.062 HD
ATOM     68  H   UNL     1     150.421 164.378 190.452  0.00  0.00    +0.062 HD
ENDBRANCH  55  58
ENDBRANCH  21  55
BRANCH  16  69
ATOM     69  O   UNL     1     143.823 167.032 189.791  0.00  0.00    -0.387 OA
ATOM     70  H   UNL     1     143.670 166.075 189.739  0.00  0.00    +0.210 HD
ENDBRANCH  16  69
BRANCH   5  71
ATOM     71  O   UNL     1     148.840 173.036 193.628  0.00  0.00    -0.388 OA
ATOM     72  H   UNL     1     149.141 172.166 193.939  0.00  0.00    +0.210 HD
ENDBRANCH   5  71
TORSDOF 6
ENDMDL
MODEL 5
REMARK VINA RESULT:      -7.1      3.760      5.040
REMARK  Name = Cytochalasin B_conf3
REMARK  6 active torsions:
REMARK  status: ('A' for Active; 'I' for Inactive)
REMARK    1  A    between atoms: C_1  and  C_2
REMARK    2  A    between atoms: C_6  and  O_35
REMARK    3  A    between atoms: C_17  and  O_34
REMARK    4  A    between atoms: C_20  and  C_33
REMARK    5  A    between atoms: C_22  and  C_26
REMARK    6  A    between atoms: C_26  and  C_27
REMARK                            x       y       z     vdW  Elec       q    Type
REMARK                         _______ _______ _______ _____ _____    ______ ____
ROOT
ATOM      1  C   UNL     1     144.986 161.392 188.411  0.00  0.00    -0.040 C 
ATOM      2  C   UNL     1     144.000 162.404 187.780  0.00  0.00    -0.050 C 
ATOM      3  C   UNL     1     143.596 163.512 188.747  0.00  0.00    -0.050 C 
ATOM      4  C   UNL     1     142.779 164.626 188.066  0.00  0.00    -0.023 C 
ATOM      5  C   UNL     1     142.517 165.833 188.991  0.00  0.00    +0.074 C 
ATOM      6  C   UNL     1     143.819 166.336 189.549  0.00  0.00    -0.049 C 
ATOM      7  C   UNL     1     144.226 166.148 190.818  0.00  0.00    +0.021 C 
ATOM      8  C   UNL     1     145.635 166.245 191.240  0.00  0.00    +0.333 C 
ATOM      9  O   UNL     1     146.000 165.947 192.368  0.00  0.00    -0.246 OA
ATOM     10  O   UNL     1     146.437 166.598 190.210  0.00  0.00    -0.444 OA
ATOM     11  C   UNL     1     147.857 166.352 190.331  0.00  0.00    +0.202 C 
ATOM     12  C   UNL     1     148.193 164.832 190.428  0.00  0.00    +0.056 C 
ATOM     13  C   UNL     1     147.585 163.949 189.331  0.00  0.00    -0.078 C 
ATOM     14  C   UNL     1     146.838 162.848 189.538  0.00  0.00    -0.087 C 
ATOM     15  C   UNL     1     146.456 161.889 188.434  0.00  0.00    -0.032 C 
ATOM     16  C   UNL     1     149.739 164.629 190.455  0.00  0.00    +0.087 C 
ATOM     17  C   UNL     1     150.486 165.701 191.228  0.00  0.00    -0.045 C 
ATOM     18  C   UNL     1     151.795 165.916 191.000  0.00  0.00    -0.097 C 
ATOM     19  C   UNL     1     149.634 166.480 192.207  0.00  0.00    -0.012 C 
ATOM     20  C   UNL     1     148.500 167.233 191.462  0.00  0.00    +0.033 C 
ATOM     21  C   UNL     1     148.919 168.537 190.748  0.00  0.00    +0.035 C 
ATOM     22  N   UNL     1     149.072 168.153 189.375  0.00  0.00    -0.308 N 
ATOM     23  C   UNL     1     148.459 166.968 189.057  0.00  0.00    +0.258 C 
ATOM     24  O   UNL     1     148.403 166.538 187.916  0.00  0.00    -0.271 OA
ATOM     25  H   UNL     1     144.664 161.160 189.433  0.00  0.00    +0.030 HD
ATOM     26  H   UNL     1     143.085 161.886 187.464  0.00  0.00    +0.027 HD
ATOM     27  H   UNL     1     144.445 162.834 186.875  0.00  0.00    +0.027 HD
ATOM     28  H   UNL     1     143.020 163.086 189.577  0.00  0.00    +0.027 HD
ATOM     29  H   UNL     1     144.505 163.935 189.172  0.00  0.00    +0.027 HD
ATOM     30  H   UNL     1     143.315 164.971 187.172  0.00  0.00    +0.029 HD
ATOM     31  H   UNL     1     141.822 164.206 187.732  0.00  0.00    +0.029 HD
ATOM     32  H   UNL     1     142.028 166.638 188.432  0.00  0.00    +0.064 HD
ATOM     33  H   UNL     1     144.516 166.714 188.803  0.00  0.00    +0.060 HD
ATOM     34  H   UNL     1     143.565 165.722 191.566  0.00  0.00    +0.069 HD
ATOM     35  H   UNL     1     147.788 164.453 191.376  0.00  0.00    +0.042 HD
ATOM     36  H   UNL     1     147.873 164.189 188.307  0.00  0.00    +0.057 HD
ATOM     37  H   UNL     1     146.580 162.551 190.553  0.00  0.00    +0.057 HD
ATOM     38  H   UNL     1     147.110 161.017 188.570  0.00  0.00    +0.031 HD
ATOM     39  H   UNL     1     146.714 162.308 187.454  0.00  0.00    +0.031 HD
ATOM     40  H   UNL     1     150.125 164.588 189.428  0.00  0.00    +0.065 HD
ATOM     41  H   UNL     1     152.338 165.310 190.277  0.00  0.00    +0.054 HD
ATOM     42  H   UNL     1     152.370 166.675 191.517  0.00  0.00    +0.054 HD
ATOM     43  H   UNL     1     149.145 165.724 192.840  0.00  0.00    +0.035 HD
ATOM     44  H   UNL     1     147.768 167.500 192.233  0.00  0.00    +0.037 HD
ATOM     45  H   UNL     1     149.886 168.915 191.085  0.00  0.00    +0.051 HD
ATOM     46  H   UNL     1     149.510 168.725 188.661  0.00  0.00    +0.149 HD
ENDROOT
BRANCH   1  47
ATOM     47  C   UNL     1     144.925 160.089 187.601  0.00  0.00    -0.062 C 
ATOM     48  H   UNL     1     145.760 160.027 186.894  0.00  0.00    +0.023 HD
ATOM     49  H   UNL     1     144.992 159.216 188.260  0.00  0.00    +0.023 HD
ATOM     50  H   UNL     1     143.991 160.017 187.033  0.00  0.00    +0.023 HD
ENDBRANCH   1  47
BRANCH  19  51
ATOM     51  C   UNL     1     150.384 167.373 193.205  0.00  0.00    -0.058 C 
ATOM     52  H   UNL     1     151.464 167.201 193.135  0.00  0.00    +0.024 HD
ATOM     53  H   UNL     1     150.085 167.205 194.243  0.00  0.00    +0.024 HD
ATOM     54  H   UNL     1     150.206 168.431 192.980  0.00  0.00    +0.024 HD
ENDBRANCH  19  51
BRANCH  21  55
ATOM     55  C   UNL     1     147.849 169.639 190.909  0.00  0.00    -0.009 C 
ATOM     56  H   UNL     1     146.949 169.217 191.376  0.00  0.00    +0.033 HD
ATOM     57  H   UNL     1     147.531 170.022 189.931  0.00  0.00    +0.033 HD
BRANCH  55  58
ATOM     58  C   UNL     1     148.329 170.790 191.762  0.00  0.00    -0.046 A 
ATOM     59  C   UNL     1     149.683 170.900 192.109  0.00  0.00    -0.059 A 
ATOM     60  C   UNL     1     150.123 171.950 192.915  0.00  0.00    -0.062 A 
ATOM     61  C   UNL     1     149.216 172.899 193.382  0.00  0.00    -0.062 A 
ATOM     62  C   UNL     1     147.868 172.798 193.045  0.00  0.00    -0.062 A 
ATOM     63  C   UNL     1     147.425 171.749 192.239  0.00  0.00    -0.059 A 
ATOM     64  H   UNL     1     150.403 170.165 191.755  0.00  0.00    +0.062 HD
ATOM     65  H   UNL     1     151.175 172.027 193.179  0.00  0.00    +0.062 HD
ATOM     66  H   UNL     1     149.560 173.717 194.010  0.00  0.00    +0.062 HD
ATOM     67  H   UNL     1     147.160 173.540 193.409  0.00  0.00    +0.062 HD
ATOM     68  H   UNL     1     146.369 171.686 191.985  0.00  0.00    +0.062 HD
ENDBRANCH  55  58
ENDBRANCH  21  55
BRANCH  16  69
ATOM     69  O   UNL     1     150.049 163.372 191.061  0.00  0.00    -0.387 OA
ATOM     70  H   UNL     1     149.219 162.988 191.387  0.00  0.00    +0.210 HD
ENDBRANCH  16  69
BRANCH   5  71
ATOM     71  O   UNL     1     141.647 165.449 190.047  0.00  0.00    -0.388 OA
ATOM     72  H   UNL     1     140.991 164.840 189.670  0.00  0.00    +0.210 HD
ENDBRANCH   5  71
TORSDOF 6
ENDMDL
MODEL 6
REMARK VINA RESULT:      -7.1      3.035      5.460
REMARK  Name = Cytochalasin B_conf3
REMARK  6 active torsions:
REMARK  status: ('A' for Active; 'I' for Inactive)
REMARK    1  A    between atoms: C_1  and  C_2
REMARK    2  A    between atoms: C_6  and  O_35
REMARK    3  A    between atoms: C_17  and  O_34
REMARK    4  A    between atoms: C_20  and  C_33
REMARK    5  A    between atoms: C_22  and  C_26
REMARK    6  A    between atoms: C_26  and  C_27
REMARK                            x       y       z     vdW  Elec       q    Type
REMARK                         _______ _______ _______ _____ _____    ______ ____
ROOT
ATOM      1  C   UNL     1     153.353 165.146 183.854  0.00  0.00    -0.040 C 
ATOM      2  C   UNL     1     154.487 164.442 184.634  0.00  0.00    -0.050 C 
ATOM      3  C   UNL     1     154.880 165.189 185.905  0.00  0.00    -0.050 C 
ATOM      4  C   UNL     1     155.862 164.392 186.784  0.00  0.00    -0.023 C 
ATOM      5  C   UNL     1     156.126 165.059 188.150  0.00  0.00    +0.074 C 
ATOM      6  C   UNL     1     154.820 165.326 188.845  0.00  0.00    -0.049 C 
ATOM      7  C   UNL     1     154.261 166.543 188.973  0.00  0.00    +0.021 C 
ATOM      8  C   UNL     1     152.829 166.753 189.250  0.00  0.00    +0.333 C 
ATOM      9  O   UNL     1     152.318 167.863 189.237  0.00  0.00    -0.246 OA
ATOM     10  O   UNL     1     152.179 165.578 189.410  0.00  0.00    -0.444 OA
ATOM     11  C   UNL     1     150.738 165.568 189.286  0.00  0.00    +0.202 C 
ATOM     12  C   UNL     1     150.261 165.948 187.851  0.00  0.00    +0.056 C 
ATOM     13  C   UNL     1     150.905 165.155 186.707  0.00  0.00    -0.078 C 
ATOM     14  C   UNL     1     151.525 165.688 185.638  0.00  0.00    -0.087 C 
ATOM     15  C   UNL     1     151.939 164.876 184.432  0.00  0.00    -0.032 C 
ATOM     16  C   UNL     1     148.709 165.822 187.755  0.00  0.00    +0.087 C 
ATOM     17  C   UNL     1     147.979 166.244 189.018  0.00  0.00    -0.045 C 
ATOM     18  C   UNL     1     146.727 165.811 189.256  0.00  0.00    -0.097 C 
ATOM     19  C   UNL     1     148.784 167.131 189.944  0.00  0.00    -0.012 C 
ATOM     20  C   UNL     1     150.055 166.391 190.437  0.00  0.00    +0.033 C 
ATOM     21  C   UNL     1     149.834 165.365 191.570  0.00  0.00    +0.035 C 
ATOM     22  N   UNL     1     149.799 164.099 190.897  0.00  0.00    -0.308 N 
ATOM     23  C   UNL     1     150.337 164.126 189.635  0.00  0.00    +0.258 C 
ATOM     24  O   UNL     1     150.479 163.121 188.956  0.00  0.00    -0.271 OA
ATOM     25  H   UNL     1     153.539 166.227 183.838  0.00  0.00    +0.030 HD
ATOM     26  H   UNL     1     155.382 164.363 184.003  0.00  0.00    +0.027 HD
ATOM     27  H   UNL     1     154.185 163.415 184.876  0.00  0.00    +0.027 HD
ATOM     28  H   UNL     1     155.321 166.158 185.642  0.00  0.00    +0.027 HD
ATOM     29  H   UNL     1     153.971 165.394 186.468  0.00  0.00    +0.027 HD
ATOM     30  H   UNL     1     155.460 163.384 186.951  0.00  0.00    +0.029 HD
ATOM     31  H   UNL     1     156.809 164.281 186.241  0.00  0.00    +0.029 HD
ATOM     32  H   UNL     1     156.742 164.406 188.776  0.00  0.00    +0.064 HD
ATOM     33  H   UNL     1     154.246 164.434 189.088  0.00  0.00    +0.060 HD
ATOM     34  H   UNL     1     154.796 167.444 188.687  0.00  0.00    +0.069 HD
ATOM     35  H   UNL     1     150.524 166.999 187.671  0.00  0.00    +0.042 HD
ATOM     36  H   UNL     1     150.753 164.075 186.728  0.00  0.00    +0.057 HD
ATOM     37  H   UNL     1     151.643 166.767 185.561  0.00  0.00    +0.057 HD
ATOM     38  H   UNL     1     151.200 165.113 183.656  0.00  0.00    +0.031 HD
ATOM     39  H   UNL     1     151.828 163.803 184.635  0.00  0.00    +0.031 HD
ATOM     40  H   UNL     1     148.437 164.789 187.508  0.00  0.00    +0.065 HD
ATOM     41  H   UNL     1     146.216 165.174 188.538  0.00  0.00    +0.054 HD
ATOM     42  H   UNL     1     146.169 166.075 190.146  0.00  0.00    +0.054 HD
ATOM     43  H   UNL     1     149.132 167.970 189.321  0.00  0.00    +0.035 HD
ATOM     44  H   UNL     1     150.719 167.172 190.826  0.00  0.00    +0.037 HD
ATOM     45  H   UNL     1     148.872 165.486 192.073  0.00  0.00    +0.051 HD
ATOM     46  H   UNL     1     149.495 163.229 191.319  0.00  0.00    +0.149 HD
ENDROOT
BRANCH   1  47
ATOM     47  C   UNL     1     153.387 164.652 182.400  0.00  0.00    -0.062 C 
ATOM     48  H   UNL     1     152.933 165.387 181.726  0.00  0.00    +0.023 HD
ATOM     49  H   UNL     1     154.419 164.496 182.064  0.00  0.00    +0.023 HD
ATOM     50  H   UNL     1     152.845 163.707 182.288  0.00  0.00    +0.023 HD
ENDBRANCH   1  47
BRANCH  19  51
ATOM     51  C   UNL     1     148.010 167.809 191.082  0.00  0.00    -0.058 C 
ATOM     52  H   UNL     1     148.457 167.558 192.051  0.00  0.00    +0.024 HD
ATOM     53  H   UNL     1     146.955 167.525 191.116  0.00  0.00    +0.024 HD
ATOM     54  H   UNL     1     148.052 168.900 190.976  0.00  0.00    +0.024 HD
ENDBRANCH  19  51
BRANCH  21  55
ATOM     55  C   UNL     1     150.973 165.417 192.612  0.00  0.00    -0.009 C 
ATOM     56  H   UNL     1     151.704 166.183 192.323  0.00  0.00    +0.033 HD
ATOM     57  H   UNL     1     151.523 164.468 192.639  0.00  0.00    +0.033 HD
BRANCH  55  58
ATOM     58  C   UNL     1     150.471 165.742 194.000  0.00  0.00    -0.046 A 
ATOM     59  C   UNL     1     151.360 165.784 195.083  0.00  0.00    -0.059 A 
ATOM     60  C   UNL     1     150.895 166.062 196.369  0.00  0.00    -0.062 A 
ATOM     61  C   UNL     1     149.538 166.299 196.584  0.00  0.00    -0.062 A 
ATOM     62  C   UNL     1     148.647 166.258 195.514  0.00  0.00    -0.062 A 
ATOM     63  C   UNL     1     149.109 165.981 194.227  0.00  0.00    -0.059 A 
ATOM     64  H   UNL     1     152.421 165.598 194.932  0.00  0.00    +0.062 HD
ATOM     65  H   UNL     1     151.591 166.092 197.203  0.00  0.00    +0.062 HD
ATOM     66  H   UNL     1     149.177 166.516 197.586  0.00  0.00    +0.062 HD
ATOM     67  H   UNL     1     147.588 166.445 195.682  0.00  0.00    +0.062 HD
ATOM     68  H   UNL     1     148.399 165.953 193.404  0.00  0.00    +0.062 HD
ENDBRANCH  55  58
ENDBRANCH  21  55
BRANCH  16  69
ATOM     69  O   UNL     1     148.225 166.643 186.688  0.00  0.00    -0.387 OA
ATOM     70  H   UNL     1     148.606 167.528 186.800  0.00  0.00    +0.210 HD
ENDBRANCH  16  69
BRANCH   5  71
ATOM     71  O   UNL     1     156.838 166.275 187.960  0.00  0.00    -0.388 OA
ATOM     72  H   UNL     1     157.415 166.392 188.733  0.00  0.00    +0.210 HD
ENDBRANCH   5  71
TORSDOF 6
ENDMDL
MODEL 7
REMARK VINA RESULT:      -7.0      5.024      7.222
REMARK  Name = Cytochalasin B_conf3
REMARK  6 active torsions:
REMARK  status: ('A' for Active; 'I' for Inactive)
REMARK    1  A    between atoms: C_1  and  C_2
REMARK    2  A    between atoms: C_6  and  O_35
REMARK    3  A    between atoms: C_17  and  O_34
REMARK    4  A    between atoms: C_20  and  C_33
REMARK    5  A    between atoms: C_22  and  C_26
REMARK    6  A    between atoms: C_26  and  C_27
REMARK                            x       y       z     vdW  Elec       q    Type
REMARK                         _______ _______ _______ _____ _____    ______ ____
ROOT
ATOM      1  C   UNL     1     141.423 164.697 187.456  0.00  0.00    -0.040 C 
ATOM      2  C   UNL     1     140.849 166.032 186.927  0.00  0.00    -0.050 C 
ATOM      3  C   UNL     1     140.841 167.130 187.985  0.00  0.00    -0.050 C 
ATOM      4  C   UNL     1     140.461 168.508 187.411  0.00  0.00    -0.023 C 
ATOM      5  C   UNL     1     140.621 169.653 188.434  0.00  0.00    +0.074 C 
ATOM      6  C   UNL     1     142.012 169.632 189.004  0.00  0.00    -0.049 C 
ATOM      7  C   UNL     1     142.319 169.214 190.245  0.00  0.00    +0.021 C 
ATOM      8  C   UNL     1     143.672 168.789 190.646  0.00  0.00    +0.333 C 
ATOM      9  O   UNL     1     143.903 168.293 191.739  0.00  0.00    -0.246 OA
ATOM     10  O   UNL     1     144.555 168.927 189.632  0.00  0.00    -0.444 OA
ATOM     11  C   UNL     1     145.804 168.201 189.705  0.00  0.00    +0.202 C 
ATOM     12  C   UNL     1     145.597 166.656 189.674  0.00  0.00    +0.056 C 
ATOM     13  C   UNL     1     144.733 166.126 188.524  0.00  0.00    -0.078 C 
ATOM     14  C   UNL     1     143.652 165.335 188.658  0.00  0.00    -0.087 C 
ATOM     15  C   UNL     1     142.973 164.656 187.490  0.00  0.00    -0.032 C 
ATOM     16  C   UNL     1     146.980 165.934 189.654  0.00  0.00    +0.087 C 
ATOM     17  C   UNL     1     148.043 166.619 190.495  0.00  0.00    -0.045 C 
ATOM     18  C   UNL     1     149.348 166.391 190.259  0.00  0.00    -0.097 C 
ATOM     19  C   UNL     1     147.501 167.561 191.549  0.00  0.00    -0.012 C 
ATOM     20  C   UNL     1     146.700 168.714 190.889  0.00  0.00    +0.033 C 
ATOM     21  C   UNL     1     147.547 169.849 190.272  0.00  0.00    +0.035 C 
ATOM     22  N   UNL     1     147.571 169.549 188.870  0.00  0.00    -0.308 N 
ATOM     23  C   UNL     1     146.591 168.675 188.472  0.00  0.00    +0.258 C 
ATOM     24  O   UNL     1     146.401 168.384 187.302  0.00  0.00    -0.271 OA
ATOM     25  H   UNL     1     141.032 164.507 188.463  0.00  0.00    +0.030 HD
ATOM     26  H   UNL     1     139.815 165.887 186.589  0.00  0.00    +0.027 HD
ATOM     27  H   UNL     1     141.422 166.357 186.049  0.00  0.00    +0.027 HD
ATOM     28  H   UNL     1     140.147 166.861 188.791  0.00  0.00    +0.027 HD
ATOM     29  H   UNL     1     141.836 167.180 188.425  0.00  0.00    +0.027 HD
ATOM     30  H   UNL     1     141.091 168.720 186.537  0.00  0.00    +0.029 HD
ATOM     31  H   UNL     1     139.421 168.469 187.064  0.00  0.00    +0.029 HD
ATOM     32  H   UNL     1     140.443 170.618 187.950  0.00  0.00    +0.064 HD
ATOM     33  H   UNL     1     142.803 169.808 188.276  0.00  0.00    +0.060 HD
ATOM     34  H   UNL     1     141.546 168.981 190.971  0.00  0.00    +0.069 HD
ATOM     35  H   UNL     1     145.079 166.363 190.597  0.00  0.00    +0.042 HD
ATOM     36  H   UNL     1     145.095 166.335 187.516  0.00  0.00    +0.057 HD
ATOM     37  H   UNL     1     143.299 165.062 189.651  0.00  0.00    +0.057 HD
ATOM     38  H   UNL     1     143.288 163.606 187.543  0.00  0.00    +0.031 HD
ATOM     39  H   UNL     1     143.369 165.040 186.540  0.00  0.00    +0.031 HD
ATOM     40  H   UNL     1     147.337 165.847 188.621  0.00  0.00    +0.065 HD
ATOM     41  H   UNL     1     149.657 165.696 189.480  0.00  0.00    +0.054 HD
ATOM     42  H   UNL     1     150.144 166.863 190.823  0.00  0.00    +0.054 HD
ATOM     43  H   UNL     1     146.778 166.970 192.130  0.00  0.00    +0.035 HD
ATOM     44  H   UNL     1     146.098 169.152 191.693  0.00  0.00    +0.037 HD
ATOM     45  H   UNL     1     148.582 169.844 190.618  0.00  0.00    +0.051 HD
ATOM     46  H   UNL     1     148.184 169.992 188.195  0.00  0.00    +0.149 HD
ENDROOT
BRANCH   1  47
ATOM     47  C   UNL     1     140.926 163.563 186.547  0.00  0.00    -0.062 C 
ATOM     48  H   UNL     1     141.315 163.678 185.529  0.00  0.00    +0.023 HD
ATOM     49  H   UNL     1     141.264 162.588 186.917  0.00  0.00    +0.023 HD
ATOM     50  H   UNL     1     139.832 163.547 186.494  0.00  0.00    +0.023 HD
ENDBRANCH   1  47
BRANCH  19  51
ATOM     51  C   UNL     1     148.503 168.059 192.599  0.00  0.00    -0.058 C 
ATOM     52  H   UNL     1     148.372 167.515 193.541  0.00  0.00    +0.024 HD
ATOM     53  H   UNL     1     148.409 169.127 192.813  0.00  0.00    +0.024 HD
ATOM     54  H   UNL     1     149.532 167.882 192.261  0.00  0.00    +0.024 HD
ENDBRANCH  19  51
BRANCH  21  55
ATOM     55  C   UNL     1     146.918 171.234 190.540  0.00  0.00    -0.009 C 
ATOM     56  H   UNL     1     145.846 171.120 190.749  0.00  0.00    +0.033 HD
ATOM     57  H   UNL     1     146.988 171.875 189.652  0.00  0.00    +0.033 HD
BRANCH  55  58
ATOM     58  C   UNL     1     147.556 171.940 191.715  0.00  0.00    -0.046 A 
ATOM     59  C   UNL     1     146.807 172.824 192.503  0.00  0.00    -0.059 A 
ATOM     60  C   UNL     1     147.401 173.494 193.573  0.00  0.00    -0.062 A 
ATOM     61  C   UNL     1     148.748 173.287 193.864  0.00  0.00    -0.062 A 
ATOM     62  C   UNL     1     149.502 172.412 193.086  0.00  0.00    -0.062 A 
ATOM     63  C   UNL     1     148.910 171.741 192.015  0.00  0.00    -0.059 A 
ATOM     64  H   UNL     1     145.755 172.999 192.286  0.00  0.00    +0.062 HD
ATOM     65  H   UNL     1     146.812 174.177 194.179  0.00  0.00    +0.062 HD
ATOM     66  H   UNL     1     149.209 173.809 194.699  0.00  0.00    +0.062 HD
ATOM     67  H   UNL     1     150.553 172.250 193.314  0.00  0.00    +0.062 HD
ATOM     68  H   UNL     1     149.514 171.061 191.417  0.00  0.00    +0.062 HD
ENDBRANCH  55  58
ENDBRANCH  21  55
BRANCH  16  69
ATOM     69  O   UNL     1     146.835 164.602 190.154  0.00  0.00    -0.387 OA
ATOM     70  H   UNL     1     147.420 164.026 189.636  0.00  0.00    +0.210 HD
ENDBRANCH  16  69
BRANCH   5  71
ATOM     71  O   UNL     1     139.663 169.505 189.473  0.00  0.00    -0.388 OA
ATOM     72  H   UNL     1     139.548 168.552 189.622  0.00  0.00    +0.210 HD
ENDBRANCH   5  71
TORSDOF 6
ENDMDL
MODEL 8
REMARK VINA RESULT:      -7.0      2.473      3.668
REMARK  Name = Cytochalasin B_conf3
REMARK  6 active torsions:
REMARK  status: ('A' for Active; 'I' for Inactive)
REMARK    1  A    between atoms: C_1  and  C_2
REMARK    2  A    between atoms: C_6  and  O_35
REMARK    3  A    between atoms: C_17  and  O_34
REMARK    4  A    between atoms: C_20  and  C_33
REMARK    5  A    between atoms: C_22  and  C_26
REMARK    6  A    between atoms: C_26  and  C_27
REMARK                            x       y       z     vdW  Elec       q    Type
REMARK                         _______ _______ _______ _____ _____    ______ ____
ROOT
ATOM      1  C   UNL     1     150.261 161.361 189.230  0.00  0.00    -0.040 C 
ATOM      2  C   UNL     1     151.602 161.926 189.755  0.00  0.00    -0.050 C 
ATOM      3  C   UNL     1     151.915 163.312 189.200  0.00  0.00    -0.050 C 
ATOM      4  C   UNL     1     153.140 163.959 189.871  0.00  0.00    -0.023 C 
ATOM      5  C   UNL     1     153.358 165.426 189.443  0.00  0.00    +0.074 C 
ATOM      6  C   UNL     1     152.097 166.212 189.669  0.00  0.00    -0.049 C 
ATOM      7  C   UNL     1     151.270 166.622 188.690  0.00  0.00    +0.021 C 
ATOM      8  C   UNL     1     149.863 166.993 188.920  0.00  0.00    +0.333 C 
ATOM      9  O   UNL     1     149.095 167.240 188.002  0.00  0.00    -0.246 OA
ATOM     10  O   UNL     1     149.540 166.922 190.231  0.00  0.00    -0.444 OA
ATOM     11  C   UNL     1     148.141 166.855 190.591  0.00  0.00    +0.202 C 
ATOM     12  C   UNL     1     147.453 165.555 190.071  0.00  0.00    +0.056 C 
ATOM     13  C   UNL     1     148.164 164.243 190.426  0.00  0.00    -0.078 C 
ATOM     14  C   UNL     1     148.531 163.290 189.548  0.00  0.00    -0.087 C 
ATOM     15  C   UNL     1     149.018 161.922 189.969  0.00  0.00    -0.032 C 
ATOM     16  C   UNL     1     145.979 165.495 190.575  0.00  0.00    +0.087 C 
ATOM     17  C   UNL     1     145.288 166.846 190.618  0.00  0.00    -0.045 C 
ATOM     18  C   UNL     1     144.209 167.035 191.400  0.00  0.00    -0.097 C 
ATOM     19  C   UNL     1     145.932 167.910 189.754  0.00  0.00    -0.012 C 
ATOM     20  C   UNL     1     147.387 168.182 190.219  0.00  0.00    +0.033 C 
ATOM     21  C   UNL     1     147.532 169.075 191.472  0.00  0.00    +0.035 C 
ATOM     22  N   UNL     1     147.747 168.146 192.543  0.00  0.00    -0.308 N 
ATOM     23  C   UNL     1     148.142 166.900 192.128  0.00  0.00    +0.258 C 
ATOM     24  O   UNL     1     148.463 166.015 192.905  0.00  0.00    -0.271 OA
ATOM     25  H   UNL     1     150.174 161.572 188.157  0.00  0.00    +0.030 HD
ATOM     26  H   UNL     1     152.426 161.258 189.471  0.00  0.00    +0.027 HD
ATOM     27  H   UNL     1     151.586 161.953 190.852  0.00  0.00    +0.027 HD
ATOM     28  H   UNL     1     152.077 163.247 188.117  0.00  0.00    +0.027 HD
ATOM     29  H   UNL     1     151.040 163.941 189.354  0.00  0.00    +0.027 HD
ATOM     30  H   UNL     1     153.016 163.920 190.961  0.00  0.00    +0.029 HD
ATOM     31  H   UNL     1     154.031 163.368 189.622  0.00  0.00    +0.029 HD
ATOM     32  H   UNL     1     154.172 165.872 190.024  0.00  0.00    +0.064 HD
ATOM     33  H   UNL     1     151.786 166.279 190.710  0.00  0.00    +0.060 HD
ATOM     34  H   UNL     1     151.538 166.516 187.643  0.00  0.00    +0.069 HD
ATOM     35  H   UNL     1     147.432 165.596 188.974  0.00  0.00    +0.042 HD
ATOM     36  H   UNL     1     148.285 164.036 191.490  0.00  0.00    +0.057 HD
ATOM     37  H   UNL     1     148.371 163.444 188.483  0.00  0.00    +0.057 HD
ATOM     38  H   UNL     1     148.174 161.245 189.783  0.00  0.00    +0.031 HD
ATOM     39  H   UNL     1     149.194 161.893 191.052  0.00  0.00    +0.031 HD
ATOM     40  H   UNL     1     145.947 165.042 191.574  0.00  0.00    +0.065 HD
ATOM     41  H   UNL     1     143.806 166.217 191.993  0.00  0.00    +0.054 HD
ATOM     42  H   UNL     1     143.688 167.982 191.473  0.00  0.00    +0.054 HD
ATOM     43  H   UNL     1     146.003 167.470 188.747  0.00  0.00    +0.035 HD
ATOM     44  H   UNL     1     147.871 168.703 189.386  0.00  0.00    +0.037 HD
ATOM     45  H   UNL     1     146.621 169.629 191.707  0.00  0.00    +0.051 HD
ATOM     46  H   UNL     1     147.707 168.381 193.528  0.00  0.00    +0.149 HD
ENDROOT
BRANCH   1  47
ATOM     47  C   UNL     1     150.281 159.835 189.399  0.00  0.00    -0.062 C 
ATOM     48  H   UNL     1     149.298 159.463 189.710  0.00  0.00    +0.023 HD
ATOM     49  H   UNL     1     150.533 159.340 188.454  0.00  0.00    +0.023 HD
ATOM     50  H   UNL     1     151.015 159.527 190.152  0.00  0.00    +0.023 HD
ENDBRANCH   1  47
BRANCH  19  51
ATOM     51  C   UNL     1     145.125 169.198 189.540  0.00  0.00    -0.058 C 
ATOM     52  H   UNL     1     144.435 169.359 190.376  0.00  0.00    +0.024 HD
ATOM     53  H   UNL     1     144.539 169.191 188.618  0.00  0.00    +0.024 HD
ATOM     54  H   UNL     1     145.794 170.065 189.496  0.00  0.00    +0.024 HD
ENDBRANCH  19  51
BRANCH  21  55
ATOM     55  C   UNL     1     148.715 170.058 191.332  0.00  0.00    -0.009 C 
ATOM     56  H   UNL     1     148.833 170.348 190.280  0.00  0.00    +0.033 HD
ATOM     57  H   UNL     1     149.658 169.579 191.623  0.00  0.00    +0.033 HD
BRANCH  55  58
ATOM     58  C   UNL     1     148.522 171.314 192.151  0.00  0.00    -0.046 A 
ATOM     59  C   UNL     1     147.273 171.950 192.190  0.00  0.00    -0.059 A 
ATOM     60  C   UNL     1     147.100 173.122 192.927  0.00  0.00    -0.062 A 
ATOM     61  C   UNL     1     148.172 173.668 193.631  0.00  0.00    -0.062 A 
ATOM     62  C   UNL     1     149.417 173.044 193.598  0.00  0.00    -0.062 A 
ATOM     63  C   UNL     1     149.593 171.872 192.861  0.00  0.00    -0.059 A 
ATOM     64  H   UNL     1     146.428 171.538 191.643  0.00  0.00    +0.062 HD
ATOM     65  H   UNL     1     146.129 173.609 192.952  0.00  0.00    +0.062 HD
ATOM     66  H   UNL     1     148.036 174.580 194.205  0.00  0.00    +0.062 HD
ATOM     67  H   UNL     1     150.253 173.470 194.148  0.00  0.00    +0.062 HD
ATOM     68  H   UNL     1     150.572 171.398 192.846  0.00  0.00    +0.062 HD
ENDBRANCH  55  58
ENDBRANCH  21  55
BRANCH  16  69
ATOM     69  O   UNL     1     145.210 164.650 189.714  0.00  0.00    -0.387 OA
ATOM     70  H   UNL     1     144.327 165.044 189.626  0.00  0.00    +0.210 HD
ENDBRANCH  16  69
BRANCH   5  71
ATOM     71  O   UNL     1     153.728 165.475 188.071  0.00  0.00    -0.388 OA
ATOM     72  H   UNL     1     152.919 165.334 187.552  0.00  0.00    +0.210 HD
ENDBRANCH   5  71
TORSDOF 6
ENDMDL
MODEL 9
REMARK VINA RESULT:      -7.0      2.576      7.987
REMARK  Name = Cytochalasin B_conf3
REMARK  6 active torsions:
REMARK  status: ('A' for Active; 'I' for Inactive)
REMARK    1  A    between atoms: C_1  and  C_2
REMARK    2  A    between atoms: C_6  and  O_35
REMARK    3  A    between atoms: C_17  and  O_34
REMARK    4  A    between atoms: C_20  and  C_33
REMARK    5  A    between atoms: C_22  and  C_26
REMARK    6  A    between atoms: C_26  and  C_27
REMARK                            x       y       z     vdW  Elec       q    Type
REMARK                         _______ _______ _______ _____ _____    ______ ____
ROOT
ATOM      1  C   UNL     1     145.836 172.233 190.940  0.00  0.00    -0.040 C 
ATOM      2  C   UNL     1     144.635 171.260 190.993  0.00  0.00    -0.050 C 
ATOM      3  C   UNL     1     144.796 170.073 190.049  0.00  0.00    -0.050 C 
ATOM      4  C   UNL     1     143.704 169.004 190.246  0.00  0.00    -0.023 C 
ATOM      5  C   UNL     1     143.959 167.724 189.422  0.00  0.00    +0.074 C 
ATOM      6  C   UNL     1     145.336 167.198 189.715  0.00  0.00    -0.049 C 
ATOM      7  C   UNL     1     146.381 167.291 188.874  0.00  0.00    +0.021 C 
ATOM      8  C   UNL     1     147.785 167.181 189.309  0.00  0.00    +0.333 C 
ATOM      9  O   UNL     1     148.721 167.395 188.552  0.00  0.00    -0.246 OA
ATOM     10  O   UNL     1     147.874 166.923 190.633  0.00  0.00    -0.444 OA
ATOM     11  C   UNL     1     149.132 167.179 191.299  0.00  0.00    +0.202 C 
ATOM     12  C   UNL     1     149.513 168.692 191.292  0.00  0.00    +0.056 C 
ATOM     13  C   UNL     1     148.429 169.650 191.801  0.00  0.00    -0.078 C 
ATOM     14  C   UNL     1     147.955 170.719 191.135  0.00  0.00    -0.087 C 
ATOM     15  C   UNL     1     147.058 171.758 191.769  0.00  0.00    -0.032 C 
ATOM     16  C   UNL     1     150.822 168.915 192.109  0.00  0.00    +0.087 C 
ATOM     17  C   UNL     1     151.838 167.796 191.960  0.00  0.00    -0.045 C 
ATOM     18  C   UNL     1     152.796 167.619 192.888  0.00  0.00    -0.097 C 
ATOM     19  C   UNL     1     151.644 166.929 190.734  0.00  0.00    -0.012 C 
ATOM     20  C   UNL     1     150.264 166.221 190.780  0.00  0.00    +0.033 C 
ATOM     21  C   UNL     1     150.178 164.984 191.701  0.00  0.00    +0.035 C 
ATOM     22  N   UNL     1     149.559 165.477 192.898  0.00  0.00    -0.308 N 
ATOM     23  C   UNL     1     148.911 166.675 192.734  0.00  0.00    +0.258 C 
ATOM     24  O   UNL     1     148.248 167.193 193.619  0.00  0.00    -0.271 OA
ATOM     25  H   UNL     1     146.139 172.379 189.896  0.00  0.00    +0.030 HD
ATOM     26  H   UNL     1     143.714 171.788 190.712  0.00  0.00    +0.027 HD
ATOM     27  H   UNL     1     144.492 170.909 192.023  0.00  0.00    +0.027 HD
ATOM     28  H   UNL     1     144.788 170.423 189.011  0.00  0.00    +0.027 HD
ATOM     29  H   UNL     1     145.775 169.631 190.229  0.00  0.00    +0.027 HD
ATOM     30  H   UNL     1     143.647 168.739 191.309  0.00  0.00    +0.029 HD
ATOM     31  H   UNL     1     142.736 169.436 189.963  0.00  0.00    +0.029 HD
ATOM     32  H   UNL     1     143.218 166.959 189.675  0.00  0.00    +0.064 HD
ATOM     33  H   UNL     1     145.493 166.890 190.748  0.00  0.00    +0.060 HD
ATOM     34  H   UNL     1     146.257 167.647 187.855  0.00  0.00    +0.069 HD
ATOM     35  H   UNL     1     149.711 168.988 190.253  0.00  0.00    +0.042 HD
ATOM     36  H   UNL     1     148.097 169.496 192.828  0.00  0.00    +0.057 HD
ATOM     37  H   UNL     1     148.310 170.932 190.128  0.00  0.00    +0.057 HD
ATOM     38  H   UNL     1     147.705 172.625 191.953  0.00  0.00    +0.031 HD
ATOM     39  H   UNL     1     146.719 171.421 192.757  0.00  0.00    +0.031 HD
ATOM     40  H   UNL     1     150.579 169.042 193.171  0.00  0.00    +0.065 HD
ATOM     41  H   UNL     1     152.869 168.287 193.743  0.00  0.00    +0.054 HD
ATOM     42  H   UNL     1     153.537 166.829 192.832  0.00  0.00    +0.054 HD
ATOM     43  H   UNL     1     151.610 167.625 189.882  0.00  0.00    +0.035 HD
ATOM     44  H   UNL     1     150.071 165.883 189.756  0.00  0.00    +0.037 HD
ATOM     45  H   UNL     1     151.158 164.595 191.984  0.00  0.00    +0.051 HD
ATOM     46  H   UNL     1     149.512 164.971 193.774  0.00  0.00    +0.149 HD
ENDROOT
BRANCH   1  47
ATOM     47  C   UNL     1     145.380 173.595 191.482  0.00  0.00    -0.062 C 
ATOM     48  H   UNL     1     144.582 173.474 192.224  0.00  0.00    +0.023 HD
ATOM     49  H   UNL     1     146.208 174.117 191.975  0.00  0.00    +0.023 HD
ATOM     50  H   UNL     1     145.002 174.237 190.678  0.00  0.00    +0.023 HD
ENDBRANCH   1  47
BRANCH  19  51
ATOM     51  C   UNL     1     152.792 165.972 190.386  0.00  0.00    -0.058 C 
ATOM     52  H   UNL     1     153.181 165.496 191.292  0.00  0.00    +0.024 HD
ATOM     53  H   UNL     1     153.626 166.465 189.881  0.00  0.00    +0.024 HD
ATOM     54  H   UNL     1     152.436 165.172 189.724  0.00  0.00    +0.024 HD
ENDBRANCH  19  51
BRANCH  21  55
ATOM     55  C   UNL     1     149.340 163.857 191.058  0.00  0.00    -0.009 C 
ATOM     56  H   UNL     1     148.993 164.174 190.066  0.00  0.00    +0.033 HD
ATOM     57  H   UNL     1     148.435 163.657 191.646  0.00  0.00    +0.033 HD
BRANCH  55  58
ATOM     58  C   UNL     1     150.123 162.574 190.898  0.00  0.00    -0.046 A 
ATOM     59  C   UNL     1     149.457 161.346 190.784  0.00  0.00    -0.059 A 
ATOM     60  C   UNL     1     150.180 160.160 190.660  0.00  0.00    -0.062 A 
ATOM     61  C   UNL     1     151.573 160.188 190.649  0.00  0.00    -0.062 A 
ATOM     62  C   UNL     1     152.245 161.404 190.763  0.00  0.00    -0.062 A 
ATOM     63  C   UNL     1     151.525 162.592 190.888  0.00  0.00    -0.059 A 
ATOM     64  H   UNL     1     148.370 161.307 190.794  0.00  0.00    +0.062 HD
ATOM     65  H   UNL     1     149.655 159.212 190.571  0.00  0.00    +0.062 HD
ATOM     66  H   UNL     1     152.135 159.263 190.551  0.00  0.00    +0.062 HD
ATOM     67  H   UNL     1     153.332 161.426 190.754  0.00  0.00    +0.062 HD
ATOM     68  H   UNL     1     152.065 163.532 190.977  0.00  0.00    +0.062 HD
ENDBRANCH  55  58
ENDBRANCH  21  55
BRANCH  16  69
ATOM     69  O   UNL     1     151.455 170.124 191.684  0.00  0.00    -0.387 OA
ATOM     70  H   UNL     1     152.197 170.298 192.286  0.00  0.00    +0.210 HD
ENDBRANCH  16  69
BRANCH   5  71
ATOM     71  O   UNL     1     143.829 168.011 188.036  0.00  0.00    -0.388 OA
ATOM     72  H   UNL     1     142.902 167.846 187.795  0.00  0.00    +0.210 HD
ENDBRANCH   5  71
TORSDOF 6
ENDMDL
MODEL 10
REMARK VINA RESULT:      -6.8      3.416      6.554
REMARK  Name = Cytochalasin B_conf3
REMARK  6 active torsions:
REMARK  status: ('A' for Active; 'I' for Inactive)
REMARK    1  A    between atoms: C_1  and  C_2
REMARK    2  A    between atoms: C_6  and  O_35
REMARK    3  A    between atoms: C_17  and  O_34
REMARK    4  A    between atoms: C_20  and  C_33
REMARK    5  A    between atoms: C_22  and  C_26
REMARK    6  A    between atoms: C_26  and  C_27
REMARK                            x       y       z     vdW  Elec       q    Type
REMARK                         _______ _______ _______ _____ _____    ______ ____
ROOT
ATOM      1  C   UNL     1     150.022 165.536 194.802  0.00  0.00    -0.040 C 
ATOM      2  C   UNL     1     151.217 166.385 194.306  0.00  0.00    -0.050 C 
ATOM      3  C   UNL     1     151.421 166.289 192.798  0.00  0.00    -0.050 C 
ATOM      4  C   UNL     1     152.475 167.283 192.276  0.00  0.00    -0.023 C 
ATOM      5  C   UNL     1     152.561 167.317 190.735  0.00  0.00    +0.074 C 
ATOM      6  C   UNL     1     151.197 167.571 190.157  0.00  0.00    -0.049 C 
ATOM      7  C   UNL     1     150.442 166.637 189.549  0.00  0.00    +0.021 C 
ATOM      8  C   UNL     1     148.983 166.758 189.379  0.00  0.00    +0.333 C 
ATOM      9  O   UNL     1     148.300 165.845 188.940  0.00  0.00    -0.246 OA
ATOM     10  O   UNL     1     148.525 167.937 189.859  0.00  0.00    -0.444 OA
ATOM     11  C   UNL     1     147.113 168.059 190.144  0.00  0.00    +0.202 C 
ATOM     12  C   UNL     1     146.651 167.104 191.287  0.00  0.00    +0.056 C 
ATOM     13  C   UNL     1     147.470 167.176 192.582  0.00  0.00    -0.078 C 
ATOM     14  C   UNL     1     148.046 166.129 193.202  0.00  0.00    -0.087 C 
ATOM     15  C   UNL     1     148.645 166.216 194.587  0.00  0.00    -0.032 C 
ATOM     16  C   UNL     1     145.147 167.354 191.615  0.00  0.00    +0.087 C 
ATOM     17  C   UNL     1     144.297 167.673 190.397  0.00  0.00    -0.045 C 
ATOM     18  C   UNL     1     143.122 168.314 190.537  0.00  0.00    -0.097 C 
ATOM     19  C   UNL     1     144.902 167.242 189.078  0.00  0.00    -0.012 C 
ATOM     20  C   UNL     1     146.250 167.969 188.834  0.00  0.00    +0.033 C 
ATOM     21  C   UNL     1     146.144 169.428 188.338  0.00  0.00    +0.035 C 
ATOM     22  N   UNL     1     146.347 170.217 189.519  0.00  0.00    -0.308 N 
ATOM     23  C   UNL     1     146.934 169.531 190.551  0.00  0.00    +0.258 C 
ATOM     24  O   UNL     1     147.270 170.068 191.595  0.00  0.00    -0.271 OA
ATOM     25  H   UNL     1     150.032 164.564 194.295  0.00  0.00    +0.030 HD
ATOM     26  H   UNL     1     152.142 166.046 194.790  0.00  0.00    +0.027 HD
ATOM     27  H   UNL     1     151.073 167.431 194.603  0.00  0.00    +0.027 HD
ATOM     28  H   UNL     1     151.711 165.267 192.528  0.00  0.00    +0.027 HD
ATOM     29  H   UNL     1     150.464 166.486 192.316  0.00  0.00    +0.027 HD
ATOM     30  H   UNL     1     152.234 168.290 192.642  0.00  0.00    +0.029 HD
ATOM     31  H   UNL     1     153.453 167.009 192.691  0.00  0.00    +0.029 HD
ATOM     32  H   UNL     1     153.244 168.110 190.413  0.00  0.00    +0.064 HD
ATOM     33  H   UNL     1     150.763 168.533 190.424  0.00  0.00    +0.060 HD
ATOM     34  H   UNL     1     150.838 165.652 189.321  0.00  0.00    +0.069 HD
ATOM     35  H   UNL     1     146.749 166.070 190.928  0.00  0.00    +0.042 HD
ATOM     36  H   UNL     1     147.494 168.146 193.081  0.00  0.00    +0.057 HD
ATOM     37  H   UNL     1     147.991 165.138 192.757  0.00  0.00    +0.057 HD
ATOM     38  H   UNL     1     147.916 165.730 195.248  0.00  0.00    +0.031 HD
ATOM     39  H   UNL     1     148.699 167.262 194.918  0.00  0.00    +0.031 HD
ATOM     40  H   UNL     1     145.057 168.171 192.342  0.00  0.00    +0.065 HD
ATOM     41  H   UNL     1     142.756 168.590 191.523  0.00  0.00    +0.054 HD
ATOM     42  H   UNL     1     142.485 168.573 189.699  0.00  0.00    +0.054 HD
ATOM     43  H   UNL     1     145.139 166.174 189.196  0.00  0.00    +0.035 HD
ATOM     44  H   UNL     1     146.759 167.392 188.053  0.00  0.00    +0.037 HD
ATOM     45  H   UNL     1     145.152 169.676 187.955  0.00  0.00    +0.051 HD
ATOM     46  H   UNL     1     146.168 171.212 189.586  0.00  0.00    +0.149 HD
ENDROOT
BRANCH   1  47
ATOM     47  C   UNL     1     150.207 165.274 196.304  0.00  0.00    -0.062 C 
ATOM     48  H   UNL     1     150.217 164.198 196.515  0.00  0.00    +0.023 HD
ATOM     49  H   UNL     1     151.159 165.684 196.659  0.00  0.00    +0.023 HD
ATOM     50  H   UNL     1     149.400 165.728 196.889  0.00  0.00    +0.023 HD
ENDBRANCH   1  47
BRANCH  19  51
ATOM     51  C   UNL     1     143.974 167.284 187.856  0.00  0.00    -0.058 C 
ATOM     52  H   UNL     1     144.478 167.764 187.010  0.00  0.00    +0.024 HD
ATOM     53  H   UNL     1     143.041 167.822 188.041  0.00  0.00    +0.024 HD
ATOM     54  H   UNL     1     143.708 166.267 187.543  0.00  0.00    +0.024 HD
ENDBRANCH  19  51
BRANCH  21  55
ATOM     55  C   UNL     1     147.207 169.740 187.263  0.00  0.00    -0.009 C 
ATOM     56  H   UNL     1     148.205 169.755 187.721  0.00  0.00    +0.033 HD
ATOM     57  H   UNL     1     147.053 170.740 186.838  0.00  0.00    +0.033 HD
BRANCH  55  58
ATOM     58  C   UNL     1     147.216 168.720 186.146  0.00  0.00    -0.046 A 
ATOM     59  C   UNL     1     148.313 167.866 185.974  0.00  0.00    -0.059 A 
ATOM     60  C   UNL     1     148.332 166.941 184.930  0.00  0.00    -0.062 A 
ATOM     61  C   UNL     1     147.255 166.861 184.050  0.00  0.00    -0.062 A 
ATOM     62  C   UNL     1     146.159 167.706 184.211  0.00  0.00    -0.062 A 
ATOM     63  C   UNL     1     146.138 168.633 185.254  0.00  0.00    -0.059 A 
ATOM     64  H   UNL     1     149.163 167.919 186.651  0.00  0.00    +0.062 HD
ATOM     65  H   UNL     1     149.187 166.282 184.804  0.00  0.00    +0.062 HD
ATOM     66  H   UNL     1     147.270 166.139 183.237  0.00  0.00    +0.062 HD
ATOM     67  H   UNL     1     145.319 167.643 183.524  0.00  0.00    +0.062 HD
ATOM     68  H   UNL     1     145.275 169.285 185.365  0.00  0.00    +0.062 HD
ENDBRANCH  55  58
ENDBRANCH  21  55
BRANCH  16  69
ATOM     69  O   UNL     1     144.588 166.191 192.231  0.00  0.00    -0.387 OA
ATOM     70  H   UNL     1     143.775 166.460 192.689  0.00  0.00    +0.210 HD
ENDBRANCH  16  69
BRANCH   5  71
ATOM     71  O   UNL     1     153.075 166.082 190.256  0.00  0.00    -0.388 OA
ATOM     72  H   UNL     1     154.041 166.119 190.347  0.00  0.00    +0.210 HD
ENDBRANCH   5  71
TORSDOF 6
ENDMDL
