MODEL 1
REMARK VINA RESULT:      -7.2      0.000      0.000
REMARK  Name = Cytochalasin D_conf2
REMARK  10 active torsions:
REMARK  status: ('A' for Active; 'I' for Inactive)
REMARK    1  A    between atoms: C_1  and  C_2
REMARK    2  A    between atoms: C_7  and  O_37
REMARK    3  A    between atoms: C_10  and  C_36
REMARK    4  A    between atoms: C_13  and  O_21
REMARK    5  A    between atoms: C_16  and  C_19
REMARK    6  A    between atoms: C_16  and  O_20
REMARK    7  A    between atoms: O_21  and  C_22
REMARK    8  A    between atoms: C_22  and  C_24
REMARK    9  A    between atoms: C_28  and  C_29
REMARK   10  A    between atoms: C_29  and  C_30
REMARK                            x       y       z     vdW  Elec       q    Type
REMARK                         _______ _______ _______ _____ _____    ______ ____
ROOT
ATOM      1  C   UNL     1     143.547 167.026 192.588  0.00  0.00    +0.021 C 
ATOM      2  C   UNL     1     144.403 166.191 193.554  0.00  0.00    -0.025 C 
ATOM      3  C   UNL     1     145.843 166.635 193.585  0.00  0.00    -0.087 C 
ATOM      4  C   UNL     1     146.856 165.930 193.051  0.00  0.00    -0.081 C 
ATOM      5  C   UNL     1     148.319 166.372 193.070  0.00  0.00    +0.025 C 
ATOM      6  C   UNL     1     149.141 165.371 193.933  0.00  0.00    +0.084 C 
ATOM      7  C   UNL     1     150.627 165.668 193.955  0.00  0.00    -0.045 C 
ATOM      8  C   UNL     1     151.479 164.816 194.555  0.00  0.00    -0.097 C 
ATOM      9  C   UNL     1     151.032 166.950 193.256  0.00  0.00    -0.015 C 
ATOM     10  C   UNL     1     150.538 166.916 191.786  0.00  0.00    +0.002 C 
ATOM     11  C   UNL     1     148.982 166.613 191.658  0.00  0.00    +0.101 C 
ATOM     12  C   UNL     1     148.303 167.781 190.858  0.00  0.00    +0.136 C 
ATOM     13  C   UNL     1     146.936 167.471 190.279  0.00  0.00    -0.044 C 
ATOM     14  C   UNL     1     145.762 168.032 190.629  0.00  0.00    -0.046 C 
ATOM     15  C   UNL     1     144.400 167.613 190.140  0.00  0.00    +0.139 C 
ATOM     16  C   UNL     1     143.797 166.591 191.144  0.00  0.00    +0.171 C 
ATOM     17  O   UNL     1     143.531 165.441 190.769  0.00  0.00    -0.294 OA
ATOM     18  C   UNL     1     148.969 165.313 190.858  0.00  0.00    +0.224 C 
ATOM     19  O   UNL     1     148.001 164.630 190.564  0.00  0.00    -0.275 OA
ATOM     20  N   UNL     1     150.237 164.944 190.517  0.00  0.00    -0.311 N 
ATOM     21  C   UNL     1     151.263 165.848 190.931  0.00  0.00    +0.032 C 
ATOM     22  H   UNL     1     143.786 168.089 192.703  0.00  0.00    +0.038 HD
ATOM     23  H   UNL     1     144.014 166.289 194.575  0.00  0.00    +0.031 HD
ATOM     24  H   UNL     1     144.339 165.124 193.303  0.00  0.00    +0.031 HD
ATOM     25  H   UNL     1     146.046 167.589 194.069  0.00  0.00    +0.057 HD
ATOM     26  H   UNL     1     146.636 164.977 192.571  0.00  0.00    +0.057 HD
ATOM     27  H   UNL     1     148.335 167.330 193.612  0.00  0.00    +0.038 HD
ATOM     28  H   UNL     1     148.983 164.344 193.580  0.00  0.00    +0.065 HD
ATOM     29  H   UNL     1     152.549 164.983 194.603  0.00  0.00    +0.054 HD
ATOM     30  H   UNL     1     151.108 163.920 195.047  0.00  0.00    +0.054 HD
ATOM     31  H   UNL     1     150.508 167.772 193.765  0.00  0.00    +0.035 HD
ATOM     32  H   UNL     1     150.764 167.902 191.374  0.00  0.00    +0.034 HD
ATOM     33  H   UNL     1     148.925 168.057 190.001  0.00  0.00    +0.079 HD
ATOM     34  H   UNL     1     146.928 166.691 189.518  0.00  0.00    +0.061 HD
ATOM     35  H   UNL     1     145.762 168.810 191.389  0.00  0.00    +0.060 HD
ATOM     36  H   UNL     1     150.394 164.077 190.017  0.00  0.00    +0.149 HD
ATOM     37  H   UNL     1     151.942 165.246 191.544  0.00  0.00    +0.050 HD
ENDROOT
BRANCH   1  38
ATOM     38  C   UNL     1     142.059 166.848 192.890  0.00  0.00    -0.055 C 
ATOM     39  H   UNL     1     141.647 167.745 193.367  0.00  0.00    +0.024 HD
ATOM     40  H   UNL     1     141.899 166.003 193.566  0.00  0.00    +0.024 HD
ATOM     41  H   UNL     1     141.482 166.667 191.976  0.00  0.00    +0.024 HD
ENDBRANCH   1  38
BRANCH  15  42
ATOM     42  C   UNL     1     143.467 168.804 189.943  0.00  0.00    -0.025 C 
ATOM     43  H   UNL     1     142.731 168.854 190.754  0.00  0.00    +0.026 HD
ATOM     44  H   UNL     1     142.900 168.709 189.009  0.00  0.00    +0.026 HD
ATOM     45  H   UNL     1     144.002 169.759 189.921  0.00  0.00    +0.026 HD
ENDBRANCH  15  42
BRANCH   9  46
ATOM     46  C   UNL     1     152.518 167.331 193.340  0.00  0.00    -0.058 C 
ATOM     47  H   UNL     1     153.159 166.671 192.748  0.00  0.00    +0.024 HD
ATOM     48  H   UNL     1     152.868 167.295 194.378  0.00  0.00    +0.024 HD
ATOM     49  H   UNL     1     152.672 168.355 192.981  0.00  0.00    +0.024 HD
ENDBRANCH   9  46
BRANCH  21  50
ATOM     50  C   UNL     1     152.104 166.390 189.756  0.00  0.00    -0.009 C 
ATOM     51  H   UNL     1     151.509 166.324 188.836  0.00  0.00    +0.033 HD
ATOM     52  H   UNL     1     152.276 167.464 189.912  0.00  0.00    +0.033 HD
BRANCH  50  53
ATOM     53  C   UNL     1     153.454 165.750 189.528  0.00  0.00    -0.046 A 
ATOM     54  C   UNL     1     154.599 166.533 189.325  0.00  0.00    -0.059 A 
ATOM     55  C   UNL     1     155.846 165.936 189.131  0.00  0.00    -0.062 A 
ATOM     56  C   UNL     1     155.961 164.549 189.123  0.00  0.00    -0.062 A 
ATOM     57  C   UNL     1     154.829 163.759 189.304  0.00  0.00    -0.062 A 
ATOM     58  C   UNL     1     153.582 164.355 189.502  0.00  0.00    -0.059 A 
ATOM     59  H   UNL     1     154.535 167.618 189.321  0.00  0.00    +0.062 HD
ATOM     60  H   UNL     1     156.728 166.554 188.988  0.00  0.00    +0.062 HD
ATOM     61  H   UNL     1     156.932 164.083 188.978  0.00  0.00    +0.062 HD
ATOM     62  H   UNL     1     154.914 162.676 189.308  0.00  0.00    +0.062 HD
ATOM     63  H   UNL     1     152.717 163.714 189.658  0.00  0.00    +0.062 HD
ENDBRANCH  50  53
ENDBRANCH  21  50
BRANCH  15  64
ATOM     64  O   UNL     1     144.530 166.984 188.861  0.00  0.00    -0.377 OA
ATOM     65  H   UNL     1     144.721 167.708 188.229  0.00  0.00    +0.211 HD
ENDBRANCH  15  64
BRANCH   6  66
ATOM     66  O   UNL     1     148.700 165.441 195.293  0.00  0.00    -0.387 OA
ATOM     67  H   UNL     1     149.450 165.155 195.845  0.00  0.00    +0.210 HD
ENDBRANCH   6  66
BRANCH  12  68
ATOM     68  O   UNL     1     148.149 168.917 191.752  0.00  0.00    -0.456 OA
BRANCH  68  69
ATOM     69  C   UNL     1     148.566 170.143 191.351  0.00  0.00    +0.305 C 
ATOM     70  O   UNL     1     147.957 170.917 190.630  0.00  0.00    -0.251 OA
BRANCH  69  71
ATOM     71  C   UNL     1     149.915 170.431 191.936  0.00  0.00    +0.033 C 
ATOM     72  H   UNL     1     150.141 171.497 191.854  0.00  0.00    +0.034 HD
ATOM     73  H   UNL     1     150.673 169.838 191.422  0.00  0.00    +0.034 HD
ATOM     74  H   UNL     1     149.911 170.169 192.999  0.00  0.00    +0.034 HD
ENDBRANCH  69  71
ENDBRANCH  68  69
ENDBRANCH  12  68
TORSDOF 10
ENDMDL
MODEL 2
REMARK VINA RESULT:      -7.1      2.971      7.843
REMARK  Name = Cytochalasin D_conf2
REMARK  10 active torsions:
REMARK  status: ('A' for Active; 'I' for Inactive)
REMARK    1  A    between atoms: C_1  and  C_2
REMARK    2  A    between atoms: C_7  and  O_37
REMARK    3  A    between atoms: C_10  and  C_36
REMARK    4  A    between atoms: C_13  and  O_21
REMARK    5  A    between atoms: C_16  and  C_19
REMARK    6  A    between atoms: C_16  and  O_20
REMARK    7  A    between atoms: O_21  and  C_22
REMARK    8  A    between atoms: C_22  and  C_24
REMARK    9  A    between atoms: C_28  and  C_29
REMARK   10  A    between atoms: C_29  and  C_30
REMARK                            x       y       z     vdW  Elec       q    Type
REMARK                         _______ _______ _______ _____ _____    ______ ____
ROOT
ATOM      1  C   UNL     1     154.140 163.817 188.426  0.00  0.00    +0.021 C 
ATOM      2  C   UNL     1     153.540 163.488 189.803  0.00  0.00    -0.025 C 
ATOM      3  C   UNL     1     152.134 164.003 189.961  0.00  0.00    -0.087 C 
ATOM      4  C   UNL     1     151.801 165.041 190.748  0.00  0.00    -0.081 C 
ATOM      5  C   UNL     1     150.379 165.579 190.913  0.00  0.00    +0.025 C 
ATOM      6  C   UNL     1     149.919 165.355 192.383  0.00  0.00    +0.084 C 
ATOM      7  C   UNL     1     148.547 165.926 192.681  0.00  0.00    -0.045 C 
ATOM      8  C   UNL     1     148.070 165.920 193.940  0.00  0.00    -0.097 C 
ATOM      9  C   UNL     1     147.813 166.486 191.479  0.00  0.00    -0.015 C 
ATOM     10  C   UNL     1     148.685 167.575 190.802  0.00  0.00    +0.002 C 
ATOM     11  C   UNL     1     150.150 167.068 190.445  0.00  0.00    +0.101 C 
ATOM     12  C   UNL     1     150.393 167.268 188.907  0.00  0.00    +0.136 C 
ATOM     13  C   UNL     1     151.844 167.243 188.464  0.00  0.00    -0.044 C 
ATOM     14  C   UNL     1     152.433 166.324 187.676  0.00  0.00    -0.046 C 
ATOM     15  C   UNL     1     153.905 166.241 187.361  0.00  0.00    +0.139 C 
ATOM     16  C   UNL     1     154.584 165.280 188.376  0.00  0.00    +0.171 C 
ATOM     17  O   UNL     1     155.468 165.704 189.132  0.00  0.00    -0.294 OA
ATOM     18  C   UNL     1     151.027 168.006 191.271  0.00  0.00    +0.224 C 
ATOM     19  O   UNL     1     152.241 167.970 191.397  0.00  0.00    -0.275 OA
ATOM     20  N   UNL     1     150.265 168.923 191.931  0.00  0.00    -0.311 N 
ATOM     21  C   UNL     1     148.861 168.838 191.680  0.00  0.00    +0.032 C 
ATOM     22  H   UNL     1     153.399 163.626 187.642  0.00  0.00    +0.038 HD
ATOM     23  H   UNL     1     153.502 162.400 189.940  0.00  0.00    +0.031 HD
ATOM     24  H   UNL     1     154.181 163.875 190.605  0.00  0.00    +0.031 HD
ATOM     25  H   UNL     1     151.361 163.491 189.390  0.00  0.00    +0.057 HD
ATOM     26  H   UNL     1     152.585 165.544 191.314  0.00  0.00    +0.057 HD
ATOM     27  H   UNL     1     149.742 164.934 190.290  0.00  0.00    +0.038 HD
ATOM     28  H   UNL     1     150.649 165.785 193.081  0.00  0.00    +0.065 HD
ATOM     29  H   UNL     1     147.095 166.312 194.207  0.00  0.00    +0.054 HD
ATOM     30  H   UNL     1     148.655 165.489 194.750  0.00  0.00    +0.054 HD
ATOM     31  H   UNL     1     147.695 165.660 190.763  0.00  0.00    +0.035 HD
ATOM     32  H   UNL     1     148.152 167.857 189.891  0.00  0.00    +0.034 HD
ATOM     33  H   UNL     1     150.011 168.244 188.592  0.00  0.00    +0.079 HD
ATOM     34  H   UNL     1     152.456 168.053 188.859  0.00  0.00    +0.061 HD
ATOM     35  H   UNL     1     151.829 165.511 187.280  0.00  0.00    +0.060 HD
ATOM     36  H   UNL     1     150.704 169.590 192.555  0.00  0.00    +0.149 HD
ATOM     37  H   UNL     1     148.403 168.701 192.666  0.00  0.00    +0.050 HD
ENDROOT
BRANCH   1  38
ATOM     38  C   UNL     1     155.358 162.938 188.141  0.00  0.00    -0.055 C 
ATOM     39  H   UNL     1     155.194 162.322 187.249  0.00  0.00    +0.024 HD
ATOM     40  H   UNL     1     155.559 162.268 188.982  0.00  0.00    +0.024 HD
ATOM     41  H   UNL     1     156.256 163.540 187.963  0.00  0.00    +0.024 HD
ENDBRANCH   1  38
BRANCH  15  42
ATOM     42  C   UNL     1     154.162 165.794 185.925  0.00  0.00    -0.025 C 
ATOM     43  H   UNL     1     154.099 166.646 185.239  0.00  0.00    +0.026 HD
ATOM     44  H   UNL     1     153.404 165.071 185.597  0.00  0.00    +0.026 HD
ATOM     45  H   UNL     1     155.148 165.336 185.797  0.00  0.00    +0.026 HD
ENDBRANCH  15  42
BRANCH   9  46
ATOM     46  C   UNL     1     146.382 166.986 191.729  0.00  0.00    -0.058 C 
ATOM     47  H   UNL     1     145.629 166.206 191.586  0.00  0.00    +0.024 HD
ATOM     48  H   UNL     1     146.139 167.814 191.053  0.00  0.00    +0.024 HD
ATOM     49  H   UNL     1     146.281 167.364 192.753  0.00  0.00    +0.024 HD
ENDBRANCH   9  46
BRANCH  21  50
ATOM     50  C   UNL     1     148.268 170.142 191.104  0.00  0.00    -0.009 C 
ATOM     51  H   UNL     1     148.810 170.400 190.185  0.00  0.00    +0.033 HD
ATOM     52  H   UNL     1     147.235 169.947 190.784  0.00  0.00    +0.033 HD
BRANCH  50  53
ATOM     53  C   UNL     1     148.232 171.341 192.021  0.00  0.00    -0.046 A 
ATOM     54  C   UNL     1     147.065 172.105 192.167  0.00  0.00    -0.059 A 
ATOM     55  C   UNL     1     147.034 173.203 193.027  0.00  0.00    -0.062 A 
ATOM     56  C   UNL     1     148.173 173.560 193.744  0.00  0.00    -0.062 A 
ATOM     57  C   UNL     1     149.344 172.823 193.594  0.00  0.00    -0.062 A 
ATOM     58  C   UNL     1     149.376 171.722 192.736  0.00  0.00    -0.059 A 
ATOM     59  H   UNL     1     146.164 171.850 191.615  0.00  0.00    +0.062 HD
ATOM     60  H   UNL     1     146.119 173.778 193.142  0.00  0.00    +0.062 HD
ATOM     61  H   UNL     1     148.148 174.411 194.419  0.00  0.00    +0.062 HD
ATOM     62  H   UNL     1     150.234 173.092 194.157  0.00  0.00    +0.062 HD
ATOM     63  H   UNL     1     150.300 171.153 192.651  0.00  0.00    +0.062 HD
ENDBRANCH  50  53
ENDBRANCH  21  50
BRANCH  15  64
ATOM     64  O   UNL     1     154.490 167.541 187.491  0.00  0.00    -0.377 OA
ATOM     65  H   UNL     1     154.730 167.815 186.582  0.00  0.00    +0.211 HD
ENDBRANCH  15  64
BRANCH   6  66
ATOM     66  O   UNL     1     149.832 163.951 192.647  0.00  0.00    -0.387 OA
ATOM     67  H   UNL     1     150.651 163.551 192.304  0.00  0.00    +0.210 HD
ENDBRANCH   6  66
BRANCH  12  68
ATOM     68  O   UNL     1     149.703 166.206 188.193  0.00  0.00    -0.456 OA
BRANCH  68  69
ATOM     69  C   UNL     1     148.766 166.524 187.267  0.00  0.00    +0.305 C 
ATOM     70  O   UNL     1     148.947 167.160 186.242  0.00  0.00    -0.251 OA
BRANCH  69  71
ATOM     71  C   UNL     1     147.439 165.964 187.680  0.00  0.00    +0.033 C 
ATOM     72  H   UNL     1     147.581 165.062 188.281  0.00  0.00    +0.034 HD
ATOM     73  H   UNL     1     146.842 165.743 186.793  0.00  0.00    +0.034 HD
ATOM     74  H   UNL     1     146.913 166.699 188.296  0.00  0.00    +0.034 HD
ENDBRANCH  69  71
ENDBRANCH  68  69
ENDBRANCH  12  68
TORSDOF 10
ENDMDL
MODEL 3
REMARK VINA RESULT:      -6.9      2.247      4.266
REMARK  Name = Cytochalasin D_conf2
REMARK  10 active torsions:
REMARK  status: ('A' for Active; 'I' for Inactive)
REMARK    1  A    between atoms: C_1  and  C_2
REMARK    2  A    between atoms: C_7  and  O_37
REMARK    3  A    between atoms: C_10  and  C_36
REMARK    4  A    between atoms: C_13  and  O_21
REMARK    5  A    between atoms: C_16  and  C_19
REMARK    6  A    between atoms: C_16  and  O_20
REMARK    7  A    between atoms: O_21  and  C_22
REMARK    8  A    between atoms: C_22  and  C_24
REMARK    9  A    between atoms: C_28  and  C_29
REMARK   10  A    between atoms: C_29  and  C_30
REMARK                            x       y       z     vdW  Elec       q    Type
REMARK                         _______ _______ _______ _____ _____    ______ ____
ROOT
ATOM      1  C   UNL     1     143.761 169.556 189.946  0.00  0.00    +0.021 C 
ATOM      2  C   UNL     1     144.902 170.491 190.380  0.00  0.00    -0.025 C 
ATOM      3  C   UNL     1     146.262 169.864 190.211  0.00  0.00    -0.087 C 
ATOM      4  C   UNL     1     147.031 169.456 191.236  0.00  0.00    -0.081 C 
ATOM      5  C   UNL     1     148.408 168.813 191.078  0.00  0.00    +0.025 C 
ATOM      6  C   UNL     1     149.482 169.753 191.698  0.00  0.00    +0.084 C 
ATOM      7  C   UNL     1     150.883 169.175 191.670  0.00  0.00    -0.045 C 
ATOM      8  C   UNL     1     151.894 169.819 192.283  0.00  0.00    -0.097 C 
ATOM      9  C   UNL     1     151.016 167.859 190.930  0.00  0.00    -0.015 C 
ATOM     10  C   UNL     1     150.044 166.819 191.544  0.00  0.00    +0.002 C 
ATOM     11  C   UNL     1     148.541 167.335 191.615  0.00  0.00    +0.101 C 
ATOM     12  C   UNL     1     147.623 166.322 190.844  0.00  0.00    +0.136 C 
ATOM     13  C   UNL     1     146.141 166.411 191.155  0.00  0.00    -0.044 C 
ATOM     14  C   UNL     1     145.158 166.786 190.313  0.00  0.00    -0.046 C 
ATOM     15  C   UNL     1     143.713 167.002 190.681  0.00  0.00    +0.139 C 
ATOM     16  C   UNL     1     143.499 168.503 191.023  0.00  0.00    +0.171 C 
ATOM     17  O   UNL     1     143.125 168.830 192.157  0.00  0.00    -0.294 OA
ATOM     18  C   UNL     1     148.259 167.307 193.115  0.00  0.00    +0.224 C 
ATOM     19  O   UNL     1     147.251 167.689 193.689  0.00  0.00    -0.275 OA
ATOM     20  N   UNL     1     149.332 166.818 193.799  0.00  0.00    -0.311 N 
ATOM     21  C   UNL     1     150.434 166.410 192.987  0.00  0.00    +0.032 C 
ATOM     22  H   UNL     1     144.020 169.066 189.001  0.00  0.00    +0.038 HD
ATOM     23  H   UNL     1     144.889 171.401 189.768  0.00  0.00    +0.031 HD
ATOM     24  H   UNL     1     144.759 170.818 191.418  0.00  0.00    +0.031 HD
ATOM     25  H   UNL     1     146.616 169.740 189.189  0.00  0.00    +0.057 HD
ATOM     26  H   UNL     1     146.662 169.587 192.253  0.00  0.00    +0.057 HD
ATOM     27  H   UNL     1     148.606 168.791 189.996  0.00  0.00    +0.038 HD
ATOM     28  H   UNL     1     149.217 170.006 192.732  0.00  0.00    +0.065 HD
ATOM     29  H   UNL     1     152.914 169.451 192.289  0.00  0.00    +0.054 HD
ATOM     30  H   UNL     1     151.720 170.767 192.785  0.00  0.00    +0.054 HD
ATOM     31  H   UNL     1     150.696 168.042 189.893  0.00  0.00    +0.035 HD
ATOM     32  H   UNL     1     150.110 165.936 190.904  0.00  0.00    +0.034 HD
ATOM     33  H   UNL     1     147.908 165.294 191.092  0.00  0.00    +0.079 HD
ATOM     34  H   UNL     1     145.874 166.165 192.182  0.00  0.00    +0.061 HD
ATOM     35  H   UNL     1     145.418 167.037 189.288  0.00  0.00    +0.060 HD
ATOM     36  H   UNL     1     149.310 166.777 194.811  0.00  0.00    +0.149 HD
ATOM     37  H   UNL     1     151.286 166.997 193.347  0.00  0.00    +0.050 HD
ENDROOT
BRANCH   1  38
ATOM     38  C   UNL     1     142.470 170.344 189.724  0.00  0.00    -0.055 C 
ATOM     39  H   UNL     1     142.046 170.676 190.678  0.00  0.00    +0.024 HD
ATOM     40  H   UNL     1     141.721 169.727 189.218  0.00  0.00    +0.024 HD
ATOM     41  H   UNL     1     142.644 171.237 189.113  0.00  0.00    +0.024 HD
ENDBRANCH   1  38
BRANCH  15  42
ATOM     42  C   UNL     1     142.764 166.551 189.574  0.00  0.00    -0.025 C 
ATOM     43  H   UNL     1     142.214 165.654 189.880  0.00  0.00    +0.026 HD
ATOM     44  H   UNL     1     143.319 166.284 188.666  0.00  0.00    +0.026 HD
ATOM     45  H   UNL     1     142.029 167.318 189.311  0.00  0.00    +0.026 HD
ENDBRANCH  15  42
BRANCH   9  46
ATOM     46  C   UNL     1     152.438 167.292 190.800  0.00  0.00    -0.058 C 
ATOM     47  H   UNL     1     152.907 167.538 189.843  0.00  0.00    +0.024 HD
ATOM     48  H   UNL     1     152.429 166.201 190.899  0.00  0.00    +0.024 HD
ATOM     49  H   UNL     1     153.081 167.685 191.596  0.00  0.00    +0.024 HD
ENDBRANCH   9  46
BRANCH  21  50
ATOM     50  C   UNL     1     150.815 164.927 193.182  0.00  0.00    -0.009 C 
ATOM     51  H   UNL     1     151.890 164.864 193.391  0.00  0.00    +0.033 HD
ATOM     52  H   UNL     1     150.322 164.553 194.090  0.00  0.00    +0.033 HD
BRANCH  50  53
ATOM     53  C   UNL     1     150.464 163.977 192.061  0.00  0.00    -0.046 A 
ATOM     54  C   UNL     1     149.176 163.433 191.952  0.00  0.00    -0.059 A 
ATOM     55  C   UNL     1     148.854 162.568 190.905  0.00  0.00    -0.062 A 
ATOM     56  C   UNL     1     149.818 162.225 189.961  0.00  0.00    -0.062 A 
ATOM     57  C   UNL     1     151.106 162.743 190.068  0.00  0.00    -0.062 A 
ATOM     58  C   UNL     1     151.429 163.611 191.113  0.00  0.00    -0.059 A 
ATOM     59  H   UNL     1     148.407 163.680 192.679  0.00  0.00    +0.062 HD
ATOM     60  H   UNL     1     147.849 162.164 190.824  0.00  0.00    +0.062 HD
ATOM     61  H   UNL     1     149.567 161.557 189.142  0.00  0.00    +0.062 HD
ATOM     62  H   UNL     1     151.861 162.486 189.329  0.00  0.00    +0.062 HD
ATOM     63  H   UNL     1     152.438 164.014 191.163  0.00  0.00    +0.062 HD
ENDBRANCH  50  53
ENDBRANCH  21  50
BRANCH  15  64
ATOM     64  O   UNL     1     143.395 166.214 191.833  0.00  0.00    -0.377 OA
ATOM     65  H   UNL     1     144.220 166.170 192.358  0.00  0.00    +0.211 HD
ENDBRANCH  15  64
BRANCH   6  66
ATOM     66  O   UNL     1     149.539 170.971 190.948  0.00  0.00    -0.387 OA
ATOM     67  H   UNL     1     148.900 170.881 190.220  0.00  0.00    +0.210 HD
ENDBRANCH   6  66
BRANCH  12  68
ATOM     68  O   UNL     1     147.782 166.555 189.417  0.00  0.00    -0.456 OA
BRANCH  68  69
ATOM     69  C   UNL     1     148.126 165.525 188.607  0.00  0.00    +0.305 C 
ATOM     70  O   UNL     1     147.398 164.619 188.237  0.00  0.00    -0.251 OA
BRANCH  69  71
ATOM     71  C   UNL     1     149.564 165.658 188.207  0.00  0.00    +0.033 C 
ATOM     72  H   UNL     1     150.014 166.521 188.703  0.00  0.00    +0.034 HD
ATOM     73  H   UNL     1     149.636 165.759 187.123  0.00  0.00    +0.034 HD
ATOM     74  H   UNL     1     150.111 164.765 188.524  0.00  0.00    +0.034 HD
ENDBRANCH  69  71
ENDBRANCH  68  69
ENDBRANCH  12  68
TORSDOF 10
ENDMDL
MODEL 4
REMARK VINA RESULT:      -6.7      3.045      7.978
REMARK  Name = Cytochalasin D_conf2
REMARK  10 active torsions:
REMARK  status: ('A' for Active; 'I' for Inactive)
REMARK    1  A    between atoms: C_1  and  C_2
REMARK    2  A    between atoms: C_7  and  O_37
REMARK    3  A    between atoms: C_10  and  C_36
REMARK    4  A    between atoms: C_13  and  O_21
REMARK    5  A    between atoms: C_16  and  C_19
REMARK    6  A    between atoms: C_16  and  O_20
REMARK    7  A    between atoms: O_21  and  C_22
REMARK    8  A    between atoms: C_22  and  C_24
REMARK    9  A    between atoms: C_28  and  C_29
REMARK   10  A    between atoms: C_29  and  C_30
REMARK                            x       y       z     vdW  Elec       q    Type
REMARK                         _______ _______ _______ _____ _____    ______ ____
ROOT
ATOM      1  C   UNL     1     155.275 166.447 186.803  0.00  0.00    +0.021 C 
ATOM      2  C   UNL     1     153.973 166.830 186.080  0.00  0.00    -0.025 C 
ATOM      3  C   UNL     1     152.886 167.258 187.030  0.00  0.00    -0.087 C 
ATOM      4  C   UNL     1     151.795 166.520 187.302  0.00  0.00    -0.081 C 
ATOM      5  C   UNL     1     150.688 166.940 188.269  0.00  0.00    +0.025 C 
ATOM      6  C   UNL     1     149.366 167.140 187.472  0.00  0.00    +0.084 C 
ATOM      7  C   UNL     1     148.176 167.480 188.347  0.00  0.00    -0.045 C 
ATOM      8  C   UNL     1     146.943 167.557 187.813  0.00  0.00    -0.097 C 
ATOM      9  C   UNL     1     148.503 167.699 189.810  0.00  0.00    -0.015 C 
ATOM     10  C   UNL     1     149.212 166.442 190.377  0.00  0.00    +0.002 C 
ATOM     11  C   UNL     1     150.482 166.005 189.524  0.00  0.00    +0.101 C 
ATOM     12  C   UNL     1     151.736 165.968 190.467  0.00  0.00    +0.136 C 
ATOM     13  C   UNL     1     152.925 165.181 189.947  0.00  0.00    -0.044 C 
ATOM     14  C   UNL     1     154.132 165.671 189.605  0.00  0.00    -0.046 C 
ATOM     15  C   UNL     1     155.251 164.895 188.961  0.00  0.00    +0.139 C 
ATOM     16  C   UNL     1     155.151 165.053 187.418  0.00  0.00    +0.171 C 
ATOM     17  O   UNL     1     154.968 164.056 186.706  0.00  0.00    -0.294 OA
ATOM     18  C   UNL     1     150.095 164.603 189.061  0.00  0.00    +0.224 C 
ATOM     19  O   UNL     1     150.716 163.871 188.306  0.00  0.00    -0.275 OA
ATOM     20  N   UNL     1     148.885 164.242 189.575  0.00  0.00    -0.311 N 
ATOM     21  C   UNL     1     148.284 165.204 190.443  0.00  0.00    +0.032 C 
ATOM     22  H   UNL     1     155.495 167.181 187.586  0.00  0.00    +0.038 HD
ATOM     23  H   UNL     1     154.159 167.672 185.402  0.00  0.00    +0.031 HD
ATOM     24  H   UNL     1     153.624 166.001 185.449  0.00  0.00    +0.031 HD
ATOM     25  H   UNL     1     153.018 168.223 187.516  0.00  0.00    +0.057 HD
ATOM     26  H   UNL     1     151.677 165.556 186.806  0.00  0.00    +0.057 HD
ATOM     27  H   UNL     1     150.976 167.934 188.639  0.00  0.00    +0.038 HD
ATOM     28  H   UNL     1     149.136 166.242 186.883  0.00  0.00    +0.065 HD
ATOM     29  H   UNL     1     146.060 167.800 188.393  0.00  0.00    +0.054 HD
ATOM     30  H   UNL     1     146.791 167.397 186.748  0.00  0.00    +0.054 HD
ATOM     31  H   UNL     1     149.217 168.535 189.858  0.00  0.00    +0.035 HD
ATOM     32  H   UNL     1     149.514 166.704 191.393  0.00  0.00    +0.034 HD
ATOM     33  H   UNL     1     151.473 165.497 191.420  0.00  0.00    +0.079 HD
ATOM     34  H   UNL     1     152.748 164.113 189.825  0.00  0.00    +0.061 HD
ATOM     35  H   UNL     1     154.314 166.737 189.722  0.00  0.00    +0.060 HD
ATOM     36  H   UNL     1     148.475 163.350 189.324  0.00  0.00    +0.149 HD
ATOM     37  H   UNL     1     147.307 165.419 189.996  0.00  0.00    +0.050 HD
ENDROOT
BRANCH   1  38
ATOM     38  C   UNL     1     156.453 166.437 185.829  0.00  0.00    -0.055 C 
ATOM     39  H   UNL     1     156.304 167.171 185.029  0.00  0.00    +0.024 HD
ATOM     40  H   UNL     1     156.566 165.452 185.366  0.00  0.00    +0.024 HD
ATOM     41  H   UNL     1     157.394 166.687 186.333  0.00  0.00    +0.024 HD
ENDBRANCH   1  38
BRANCH  15  42
ATOM     42  C   UNL     1     156.622 165.333 189.469  0.00  0.00    -0.025 C 
ATOM     43  H   UNL     1     157.406 164.672 189.081  0.00  0.00    +0.026 HD
ATOM     44  H   UNL     1     156.673 165.273 190.563  0.00  0.00    +0.026 HD
ATOM     45  H   UNL     1     156.874 166.356 189.171  0.00  0.00    +0.026 HD
ENDBRANCH  15  42
BRANCH   9  46
ATOM     46  C   UNL     1     147.336 168.138 190.709  0.00  0.00    -0.058 C 
ATOM     47  H   UNL     1     147.371 167.683 191.703  0.00  0.00    +0.024 HD
ATOM     48  H   UNL     1     146.376 167.873 190.253  0.00  0.00    +0.024 HD
ATOM     49  H   UNL     1     147.343 169.227 190.840  0.00  0.00    +0.024 HD
ENDBRANCH   9  46
BRANCH  21  50
ATOM     50  C   UNL     1     148.002 164.654 191.857  0.00  0.00    -0.009 C 
ATOM     51  H   UNL     1     146.979 164.929 192.145  0.00  0.00    +0.033 HD
ATOM     52  H   UNL     1     148.005 163.556 191.815  0.00  0.00    +0.033 HD
BRANCH  50  53
ATOM     53  C   UNL     1     148.959 165.061 192.953  0.00  0.00    -0.046 A 
ATOM     54  C   UNL     1     148.668 166.136 193.804  0.00  0.00    -0.059 A 
ATOM     55  C   UNL     1     149.549 166.498 194.824  0.00  0.00    -0.062 A 
ATOM     56  C   UNL     1     150.739 165.796 194.999  0.00  0.00    -0.062 A 
ATOM     57  C   UNL     1     151.050 164.738 194.149  0.00  0.00    -0.062 A 
ATOM     58  C   UNL     1     150.168 164.374 193.130  0.00  0.00    -0.059 A 
ATOM     59  H   UNL     1     147.748 166.703 193.685  0.00  0.00    +0.062 HD
ATOM     60  H   UNL     1     149.305 167.325 195.486  0.00  0.00    +0.062 HD
ATOM     61  H   UNL     1     151.423 166.072 195.797  0.00  0.00    +0.062 HD
ATOM     62  H   UNL     1     151.973 164.181 194.286  0.00  0.00    +0.062 HD
ATOM     63  H   UNL     1     150.428 163.532 192.491  0.00  0.00    +0.062 HD
ENDBRANCH  50  53
ENDBRANCH  21  50
BRANCH  15  64
ATOM     64  O   UNL     1     155.119 163.510 189.295  0.00  0.00    -0.377 OA
ATOM     65  H   UNL     1     154.336 163.192 188.799  0.00  0.00    +0.211 HD
ENDBRANCH  15  64
BRANCH   6  66
ATOM     66  O   UNL     1     149.518 168.235 186.563  0.00  0.00    -0.387 OA
ATOM     67  H   UNL     1     149.477 169.048 187.096  0.00  0.00    +0.210 HD
ENDBRANCH   6  66
BRANCH  12  68
ATOM     68  O   UNL     1     152.182 167.334 190.689  0.00  0.00    -0.456 OA
BRANCH  68  69
ATOM     69  C   UNL     1     152.223 167.826 191.951  0.00  0.00    +0.305 C 
ATOM     70  O   UNL     1     152.943 167.439 192.857  0.00  0.00    -0.251 OA
BRANCH  69  71
ATOM     71  C   UNL     1     151.241 168.949 192.085  0.00  0.00    +0.033 C 
ATOM     72  H   UNL     1     151.359 169.439 193.055  0.00  0.00    +0.034 HD
ATOM     73  H   UNL     1     150.226 168.565 191.971  0.00  0.00    +0.034 HD
ATOM     74  H   UNL     1     151.436 169.694 191.307  0.00  0.00    +0.034 HD
ENDBRANCH  69  71
ENDBRANCH  68  69
ENDBRANCH  12  68
TORSDOF 10
ENDMDL
MODEL 5
REMARK VINA RESULT:      -6.6      3.179      7.163
REMARK  Name = Cytochalasin D_conf2
REMARK  10 active torsions:
REMARK  status: ('A' for Active; 'I' for Inactive)
REMARK    1  A    between atoms: C_1  and  C_2
REMARK    2  A    between atoms: C_7  and  O_37
REMARK    3  A    between atoms: C_10  and  C_36
REMARK    4  A    between atoms: C_13  and  O_21
REMARK    5  A    between atoms: C_16  and  C_19
REMARK    6  A    between atoms: C_16  and  O_20
REMARK    7  A    between atoms: O_21  and  C_22
REMARK    8  A    between atoms: C_22  and  C_24
REMARK    9  A    between atoms: C_28  and  C_29
REMARK   10  A    between atoms: C_29  and  C_30
REMARK                            x       y       z     vdW  Elec       q    Type
REMARK                         _______ _______ _______ _____ _____    ______ ____
ROOT
ATOM      1  C   UNL     1     148.160 161.372 189.386  0.00  0.00    +0.021 C 
ATOM      2  C   UNL     1     146.787 162.057 189.479  0.00  0.00    -0.025 C 
ATOM      3  C   UNL     1     146.836 163.511 189.086  0.00  0.00    -0.087 C 
ATOM      4  C   UNL     1     146.717 164.527 189.958  0.00  0.00    -0.081 C 
ATOM      5  C   UNL     1     146.771 166.006 189.574  0.00  0.00    +0.025 C 
ATOM      6  C   UNL     1     145.387 166.657 189.862  0.00  0.00    +0.084 C 
ATOM      7  C   UNL     1     145.351 168.147 189.593  0.00  0.00    -0.045 C 
ATOM      8  C   UNL     1     144.260 168.868 189.915  0.00  0.00    -0.097 C 
ATOM      9  C   UNL     1     146.610 168.714 188.967  0.00  0.00    -0.015 C 
ATOM     10  C   UNL     1     147.828 168.385 189.868  0.00  0.00    +0.002 C 
ATOM     11  C   UNL     1     147.954 166.836 190.206  0.00  0.00    +0.101 C 
ATOM     12  C   UNL     1     149.368 166.332 189.744  0.00  0.00    +0.136 C 
ATOM     13  C   UNL     1     149.826 165.020 190.352  0.00  0.00    -0.044 C 
ATOM     14  C   UNL     1     150.029 163.855 189.706  0.00  0.00    -0.046 C 
ATOM     15  C   UNL     1     150.350 162.531 190.349  0.00  0.00    +0.139 C 
ATOM     16  C   UNL     1     149.026 161.752 190.587  0.00  0.00    +0.171 C 
ATOM     17  O   UNL     1     148.685 161.453 191.739  0.00  0.00    -0.294 OA
ATOM     18  C   UNL     1     147.832 166.825 191.728  0.00  0.00    +0.224 C 
ATOM     19  O   UNL     1     147.793 165.852 192.464  0.00  0.00    -0.275 OA
ATOM     20  N   UNL     1     147.724 168.095 192.212  0.00  0.00    -0.311 N 
ATOM     21  C   UNL     1     147.790 169.127 191.227  0.00  0.00    +0.032 C 
ATOM     22  H   UNL     1     148.661 161.668 188.457  0.00  0.00    +0.038 HD
ATOM     23  H   UNL     1     146.079 161.564 188.802  0.00  0.00    +0.031 HD
ATOM     24  H   UNL     1     146.370 161.949 190.489  0.00  0.00    +0.031 HD
ATOM     25  H   UNL     1     146.982 163.723 188.028  0.00  0.00    +0.057 HD
ATOM     26  H   UNL     1     146.570 164.298 191.014  0.00  0.00    +0.057 HD
ATOM     27  H   UNL     1     146.898 166.025 188.481  0.00  0.00    +0.038 HD
ATOM     28  H   UNL     1     145.087 166.470 190.901  0.00  0.00    +0.065 HD
ATOM     29  H   UNL     1     144.182 169.935 189.740  0.00  0.00    +0.054 HD
ATOM     30  H   UNL     1     143.390 168.385 190.352  0.00  0.00    +0.054 HD
ATOM     31  H   UNL     1     146.753 168.193 188.009  0.00  0.00    +0.035 HD
ATOM     32  H   UNL     1     148.707 168.722 189.313  0.00  0.00    +0.034 HD
ATOM     33  H   UNL     1     150.134 167.062 190.021  0.00  0.00    +0.079 HD
ATOM     34  H   UNL     1     149.977 165.044 191.431  0.00  0.00    +0.061 HD
ATOM     35  H   UNL     1     149.877 163.823 188.630  0.00  0.00    +0.060 HD
ATOM     36  H   UNL     1     147.594 168.248 193.205  0.00  0.00    +0.149 HD
ATOM     37  H   UNL     1     146.859 169.692 191.342  0.00  0.00    +0.050 HD
ENDROOT
BRANCH   1  38
ATOM     38  C   UNL     1     148.007 159.851 189.369  0.00  0.00    -0.055 C 
ATOM     39  H   UNL     1     147.778 159.494 188.358  0.00  0.00    +0.024 HD
ATOM     40  H   UNL     1     147.195 159.535 190.030  0.00  0.00    +0.024 HD
ATOM     41  H   UNL     1     148.926 159.351 189.694  0.00  0.00    +0.024 HD
ENDBRANCH   1  38
BRANCH  15  42
ATOM     42  C   UNL     1     151.328 161.708 189.515  0.00  0.00    -0.025 C 
ATOM     43  H   UNL     1     152.246 161.511 190.080  0.00  0.00    +0.026 HD
ATOM     44  H   UNL     1     151.627 162.252 188.611  0.00  0.00    +0.026 HD
ATOM     45  H   UNL     1     150.912 160.743 189.209  0.00  0.00    +0.026 HD
ENDBRANCH  15  42
BRANCH   9  46
ATOM     46  C   UNL     1     146.573 170.204 188.593  0.00  0.00    -0.058 C 
ATOM     47  H   UNL     1     145.601 170.519 188.202  0.00  0.00    +0.024 HD
ATOM     48  H   UNL     1     147.329 170.430 187.833  0.00  0.00    +0.024 HD
ATOM     49  H   UNL     1     146.796 170.824 189.469  0.00  0.00    +0.024 HD
ENDBRANCH   9  46
BRANCH  21  50
ATOM     50  C   UNL     1     148.938 170.130 191.474  0.00  0.00    -0.009 C 
ATOM     51  H   UNL     1     149.759 169.606 191.981  0.00  0.00    +0.033 HD
ATOM     52  H   UNL     1     149.349 170.440 190.504  0.00  0.00    +0.033 HD
BRANCH  50  53
ATOM     53  C   UNL     1     148.596 171.387 192.238  0.00  0.00    -0.046 A 
ATOM     54  C   UNL     1     147.310 171.942 192.175  0.00  0.00    -0.059 A 
ATOM     55  C   UNL     1     146.996 173.096 192.895  0.00  0.00    -0.062 A 
ATOM     56  C   UNL     1     147.967 173.717 193.677  0.00  0.00    -0.062 A 
ATOM     57  C   UNL     1     149.253 173.188 193.732  0.00  0.00    -0.062 A 
ATOM     58  C   UNL     1     149.568 172.032 193.014  0.00  0.00    -0.059 A 
ATOM     59  H   UNL     1     146.536 171.480 191.569  0.00  0.00    +0.062 HD
ATOM     60  H   UNL     1     145.992 173.509 192.850  0.00  0.00    +0.062 HD
ATOM     61  H   UNL     1     147.722 174.612 194.242  0.00  0.00    +0.062 HD
ATOM     62  H   UNL     1     150.013 173.663 194.346  0.00  0.00    +0.062 HD
ATOM     63  H   UNL     1     150.576 171.630 193.089  0.00  0.00    +0.062 HD
ENDBRANCH  50  53
ENDBRANCH  21  50
BRANCH  15  64
ATOM     64  O   UNL     1     150.986 162.760 191.610  0.00  0.00    -0.377 OA
ATOM     65  H   UNL     1     150.281 163.084 192.207  0.00  0.00    +0.211 HD
ENDBRANCH  15  64
BRANCH   6  66
ATOM     66  O   UNL     1     144.398 166.073 189.007  0.00  0.00    -0.387 OA
ATOM     67  H   UNL     1     143.919 166.810 188.590  0.00  0.00    +0.210 HD
ENDBRANCH   6  66
BRANCH  12  68
ATOM     68  O   UNL     1     149.341 166.156 188.301  0.00  0.00    -0.456 OA
BRANCH  68  69
ATOM     69  C   UNL     1     150.153 166.910 187.522  0.00  0.00    +0.305 C 
ATOM     70  O   UNL     1     151.367 166.997 187.611  0.00  0.00    -0.251 OA
BRANCH  69  71
ATOM     71  C   UNL     1     149.336 167.639 186.499  0.00  0.00    +0.033 C 
ATOM     72  H   UNL     1     148.281 167.369 186.599  0.00  0.00    +0.034 HD
ATOM     73  H   UNL     1     149.700 167.399 185.499  0.00  0.00    +0.034 HD
ATOM     74  H   UNL     1     149.424 168.716 186.668  0.00  0.00    +0.034 HD
ENDBRANCH  69  71
ENDBRANCH  68  69
ENDBRANCH  12  68
TORSDOF 10
ENDMDL
MODEL 6
REMARK VINA RESULT:      -6.5      4.270      8.417
REMARK  Name = Cytochalasin D_conf2
REMARK  10 active torsions:
REMARK  status: ('A' for Active; 'I' for Inactive)
REMARK    1  A    between atoms: C_1  and  C_2
REMARK    2  A    between atoms: C_7  and  O_37
REMARK    3  A    between atoms: C_10  and  C_36
REMARK    4  A    between atoms: C_13  and  O_21
REMARK    5  A    between atoms: C_16  and  C_19
REMARK    6  A    between atoms: C_16  and  O_20
REMARK    7  A    between atoms: O_21  and  C_22
REMARK    8  A    between atoms: C_22  and  C_24
REMARK    9  A    between atoms: C_28  and  C_29
REMARK   10  A    between atoms: C_29  and  C_30
REMARK                            x       y       z     vdW  Elec       q    Type
REMARK                         _______ _______ _______ _____ _____    ______ ____
ROOT
ATOM      1  C   UNL     1     151.051 158.123 188.118  0.00  0.00    +0.021 C 
ATOM      2  C   UNL     1     150.071 159.145 187.520  0.00  0.00    -0.025 C 
ATOM      3  C   UNL     1     150.560 160.564 187.653  0.00  0.00    -0.087 C 
ATOM      4  C   UNL     1     150.025 161.465 188.496  0.00  0.00    -0.081 C 
ATOM      5  C   UNL     1     150.515 162.905 188.645  0.00  0.00    +0.025 C 
ATOM      6  C   UNL     1     149.394 163.875 188.174  0.00  0.00    +0.084 C 
ATOM      7  C   UNL     1     149.742 165.339 188.356  0.00  0.00    -0.045 C 
ATOM      8  C   UNL     1     148.822 166.290 188.111  0.00  0.00    -0.097 C 
ATOM      9  C   UNL     1     151.158 165.603 188.829  0.00  0.00    -0.015 C 
ATOM     10  C   UNL     1     151.408 164.848 190.160  0.00  0.00    +0.002 C 
ATOM     11  C   UNL     1     151.071 163.296 190.069  0.00  0.00    +0.101 C 
ATOM     12  C   UNL     1     152.350 162.478 190.470  0.00  0.00    +0.136 C 
ATOM     13  C   UNL     1     152.109 161.028 190.849  0.00  0.00    -0.044 C 
ATOM     14  C   UNL     1     152.535 159.937 190.184  0.00  0.00    -0.046 C 
ATOM     15  C   UNL     1     152.168 158.510 190.500  0.00  0.00    +0.139 C 
ATOM     16  C   UNL     1     150.935 158.106 189.643  0.00  0.00    +0.171 C 
ATOM     17  O   UNL     1     149.878 157.780 190.199  0.00  0.00    -0.294 OA
ATOM     18  C   UNL     1     149.966 163.142 191.111  0.00  0.00    +0.224 C 
ATOM     19  O   UNL     1     149.318 162.139 191.366  0.00  0.00    -0.275 OA
ATOM     20  N   UNL     1     149.730 164.327 191.743  0.00  0.00    -0.311 N 
ATOM     21  C   UNL     1     150.572 165.408 191.337  0.00  0.00    +0.032 C 
ATOM     22  H   UNL     1     152.077 158.375 187.826  0.00  0.00    +0.038 HD
ATOM     23  H   UNL     1     149.939 158.949 186.449  0.00  0.00    +0.031 HD
ATOM     24  H   UNL     1     149.078 159.040 187.975  0.00  0.00    +0.031 HD
ATOM     25  H   UNL     1     151.401 160.849 187.022  0.00  0.00    +0.057 HD
ATOM     26  H   UNL     1     149.183 161.164 189.120  0.00  0.00    +0.057 HD
ATOM     27  H   UNL     1     151.340 163.016 187.925  0.00  0.00    +0.038 HD
ATOM     28  H   UNL     1     148.456 163.659 188.703  0.00  0.00    +0.065 HD
ATOM     29  H   UNL     1     149.021 167.350 188.222  0.00  0.00    +0.054 HD
ATOM     30  H   UNL     1     147.828 166.019 187.762  0.00  0.00    +0.054 HD
ATOM     31  H   UNL     1     151.833 165.178 188.072  0.00  0.00    +0.035 HD
ATOM     32  H   UNL     1     152.467 164.991 190.388  0.00  0.00    +0.034 HD
ATOM     33  H   UNL     1     152.823 162.930 191.347  0.00  0.00    +0.079 HD
ATOM     34  H   UNL     1     151.504 160.884 191.743  0.00  0.00    +0.061 HD
ATOM     35  H   UNL     1     153.137 160.073 189.289  0.00  0.00    +0.060 HD
ATOM     36  H   UNL     1     148.994 164.393 192.435  0.00  0.00    +0.149 HD
ATOM     37  H   UNL     1     149.885 166.191 190.997  0.00  0.00    +0.050 HD
ENDROOT
BRANCH   1  38
ATOM     38  C   UNL     1     150.750 156.716 187.601  0.00  0.00    -0.055 C 
ATOM     39  H   UNL     1     149.675 156.584 187.432  0.00  0.00    +0.024 HD
ATOM     40  H   UNL     1     151.074 155.959 188.321  0.00  0.00    +0.024 HD
ATOM     41  H   UNL     1     151.259 156.520 186.650  0.00  0.00    +0.024 HD
ENDBRANCH   1  38
BRANCH  15  42
ATOM     42  C   UNL     1     153.333 157.552 190.270  0.00  0.00    -0.025 C 
ATOM     43  H   UNL     1     152.987 156.512 190.289  0.00  0.00    +0.026 HD
ATOM     44  H   UNL     1     154.083 157.647 191.065  0.00  0.00    +0.026 HD
ATOM     45  H   UNL     1     153.832 157.718 189.309  0.00  0.00    +0.026 HD
ENDBRANCH  15  42
BRANCH   9  46
ATOM     46  C   UNL     1     151.575 167.078 188.933  0.00  0.00    -0.058 C 
ATOM     47  H   UNL     1     152.590 167.206 189.322  0.00  0.00    +0.024 HD
ATOM     48  H   UNL     1     150.893 167.628 189.591  0.00  0.00    +0.024 HD
ATOM     49  H   UNL     1     151.533 167.558 187.948  0.00  0.00    +0.024 HD
ENDBRANCH   9  46
BRANCH  21  50
ATOM     50  C   UNL     1     151.381 166.018 192.502  0.00  0.00    -0.009 C 
ATOM     51  H   UNL     1     152.383 165.570 192.507  0.00  0.00    +0.033 HD
ATOM     52  H   UNL     1     151.543 167.085 192.298  0.00  0.00    +0.033 HD
BRANCH  50  53
ATOM     53  C   UNL     1     150.776 165.915 193.883  0.00  0.00    -0.046 A 
ATOM     54  C   UNL     1     149.526 166.482 194.168  0.00  0.00    -0.059 A 
ATOM     55  C   UNL     1     148.966 166.370 195.442  0.00  0.00    -0.062 A 
ATOM     56  C   UNL     1     149.654 165.701 196.450  0.00  0.00    -0.062 A 
ATOM     57  C   UNL     1     150.905 165.150 196.186  0.00  0.00    -0.062 A 
ATOM     58  C   UNL     1     151.465 165.259 194.912  0.00  0.00    -0.059 A 
ATOM     59  H   UNL     1     148.971 167.014 193.400  0.00  0.00    +0.062 HD
ATOM     60  H   UNL     1     147.990 166.802 195.646  0.00  0.00    +0.062 HD
ATOM     61  H   UNL     1     149.216 165.608 197.440  0.00  0.00    +0.062 HD
ATOM     62  H   UNL     1     151.443 164.619 196.967  0.00  0.00    +0.062 HD
ATOM     63  H   UNL     1     152.436 164.804 194.728  0.00  0.00    +0.062 HD
ENDBRANCH  50  53
ENDBRANCH  21  50
BRANCH  15  64
ATOM     64  O   UNL     1     151.824 158.405 191.885  0.00  0.00    -0.377 OA
ATOM     65  H   UNL     1     150.859 158.563 191.930  0.00  0.00    +0.211 HD
ENDBRANCH  15  64
BRANCH   6  66
ATOM     66  O   UNL     1     149.161 163.691 186.774  0.00  0.00    -0.387 OA
ATOM     67  H   UNL     1     149.425 162.779 186.564  0.00  0.00    +0.210 HD
ENDBRANCH   6  66
BRANCH  12  68
ATOM     68  O   UNL     1     153.269 162.485 189.344  0.00  0.00    -0.456 OA
BRANCH  68  69
ATOM     69  C   UNL     1     154.530 162.950 189.515  0.00  0.00    +0.305 C 
ATOM     70  O   UNL     1     155.417 162.420 190.165  0.00  0.00    -0.251 OA
BRANCH  69  71
ATOM     71  C   UNL     1     154.698 164.238 188.768  0.00  0.00    +0.033 C 
ATOM     72  H   UNL     1     153.754 164.788 188.749  0.00  0.00    +0.034 HD
ATOM     73  H   UNL     1     155.042 164.032 187.753  0.00  0.00    +0.034 HD
ATOM     74  H   UNL     1     155.437 164.860 189.282  0.00  0.00    +0.034 HD
ENDBRANCH  69  71
ENDBRANCH  68  69
ENDBRANCH  12  68
TORSDOF 10
ENDMDL
MODEL 7
REMARK VINA RESULT:      -6.2      3.750      8.971
REMARK  Name = Cytochalasin D_conf2
REMARK  10 active torsions:
REMARK  status: ('A' for Active; 'I' for Inactive)
REMARK    1  A    between atoms: C_1  and  C_2
REMARK    2  A    between atoms: C_7  and  O_37
REMARK    3  A    between atoms: C_10  and  C_36
REMARK    4  A    between atoms: C_13  and  O_21
REMARK    5  A    between atoms: C_16  and  C_19
REMARK    6  A    between atoms: C_16  and  O_20
REMARK    7  A    between atoms: O_21  and  C_22
REMARK    8  A    between atoms: C_22  and  C_24
REMARK    9  A    between atoms: C_28  and  C_29
REMARK   10  A    between atoms: C_29  and  C_30
REMARK                            x       y       z     vdW  Elec       q    Type
REMARK                         _______ _______ _______ _____ _____    ______ ____
ROOT
ATOM      1  C   UNL     1     154.548 160.511 186.268  0.00  0.00    +0.021 C 
ATOM      2  C   UNL     1     153.023 160.691 186.185  0.00  0.00    -0.025 C 
ATOM      3  C   UNL     1     152.564 162.018 186.731  0.00  0.00    -0.087 C 
ATOM      4  C   UNL     1     151.900 162.161 187.892  0.00  0.00    -0.081 C 
ATOM      5  C   UNL     1     151.435 163.501 188.461  0.00  0.00    +0.025 C 
ATOM      6  C   UNL     1     149.880 163.526 188.496  0.00  0.00    +0.084 C 
ATOM      7  C   UNL     1     149.308 164.783 189.121  0.00  0.00    -0.045 C 
ATOM      8  C   UNL     1     147.983 164.891 189.335  0.00  0.00    -0.097 C 
ATOM      9  C   UNL     1     150.331 165.844 189.473  0.00  0.00    -0.015 C 
ATOM     10  C   UNL     1     151.398 165.239 190.422  0.00  0.00    +0.002 C 
ATOM     11  C   UNL     1     152.061 163.912 189.850  0.00  0.00    +0.101 C 
ATOM     12  C   UNL     1     153.617 164.113 189.781  0.00  0.00    +0.136 C 
ATOM     13  C   UNL     1     154.439 162.843 189.669  0.00  0.00    -0.044 C 
ATOM     14  C   UNL     1     155.196 162.459 188.623  0.00  0.00    -0.046 C 
ATOM     15  C   UNL     1     155.892 161.131 188.476  0.00  0.00    +0.139 C 
ATOM     16  C   UNL     1     154.963 160.159 187.697  0.00  0.00    +0.171 C 
ATOM     17  O   UNL     1     154.567 159.117 188.237  0.00  0.00    -0.294 OA
ATOM     18  C   UNL     1     151.683 162.878 190.908  0.00  0.00    +0.224 C 
ATOM     19  O   UNL     1     151.899 161.676 190.884  0.00  0.00    -0.275 OA
ATOM     20  N   UNL     1     150.998 163.463 191.931  0.00  0.00    -0.311 N 
ATOM     21  C   UNL     1     150.828 164.877 191.816  0.00  0.00    +0.032 C 
ATOM     22  H   UNL     1     155.049 161.433 185.952  0.00  0.00    +0.038 HD
ATOM     23  H   UNL     1     152.701 160.646 185.137  0.00  0.00    +0.031 HD
ATOM     24  H   UNL     1     152.509 159.869 186.699  0.00  0.00    +0.031 HD
ATOM     25  H   UNL     1     152.802 162.897 186.135  0.00  0.00    +0.057 HD
ATOM     26  H   UNL     1     151.669 161.271 188.477  0.00  0.00    +0.057 HD
ATOM     27  H   UNL     1     151.738 164.260 187.724  0.00  0.00    +0.038 HD
ATOM     28  H   UNL     1     149.496 162.649 189.033  0.00  0.00    +0.065 HD
ATOM     29  H   UNL     1     147.523 165.768 189.775  0.00  0.00    +0.054 HD
ATOM     30  H   UNL     1     147.310 164.087 189.044  0.00  0.00    +0.054 HD
ATOM     31  H   UNL     1     150.838 166.122 188.537  0.00  0.00    +0.035 HD
ATOM     32  H   UNL     1     152.157 166.015 190.549  0.00  0.00    +0.034 HD
ATOM     33  H   UNL     1     153.971 164.607 190.692  0.00  0.00    +0.079 HD
ATOM     34  H   UNL     1     154.372 162.178 190.529  0.00  0.00    +0.061 HD
ATOM     35  H   UNL     1     155.265 163.116 187.760  0.00  0.00    +0.060 HD
ATOM     36  H   UNL     1     150.644 162.896 192.692  0.00  0.00    +0.149 HD
ATOM     37  H   UNL     1     149.745 165.037 191.853  0.00  0.00    +0.050 HD
ENDROOT
BRANCH   1  38
ATOM     38  C   UNL     1     155.012 159.386 185.344  0.00  0.00    -0.055 C 
ATOM     39  H   UNL     1     154.169 158.972 184.780  0.00  0.00    +0.024 HD
ATOM     40  H   UNL     1     155.466 158.573 185.918  0.00  0.00    +0.024 HD
ATOM     41  H   UNL     1     155.750 159.742 184.616  0.00  0.00    +0.024 HD
ENDBRANCH   1  38
BRANCH  15  42
ATOM     42  C   UNL     1     157.247 161.265 187.787  0.00  0.00    -0.025 C 
ATOM     43  H   UNL     1     157.971 161.751 188.451  0.00  0.00    +0.026 HD
ATOM     44  H   UNL     1     157.172 161.894 186.891  0.00  0.00    +0.026 HD
ATOM     45  H   UNL     1     157.666 160.298 187.490  0.00  0.00    +0.026 HD
ENDBRANCH  15  42
BRANCH   9  46
ATOM     46  C   UNL     1     149.778 167.168 190.020  0.00  0.00    -0.058 C 
ATOM     47  H   UNL     1     150.154 167.405 191.019  0.00  0.00    +0.024 HD
ATOM     48  H   UNL     1     148.684 167.137 190.073  0.00  0.00    +0.024 HD
ATOM     49  H   UNL     1     150.047 167.999 189.357  0.00  0.00    +0.024 HD
ENDBRANCH   9  46
BRANCH  21  50
ATOM     50  C   UNL     1     151.424 165.659 193.006  0.00  0.00    -0.009 C 
ATOM     51  H   UNL     1     152.327 165.140 193.351  0.00  0.00    +0.033 HD
ATOM     52  H   UNL     1     151.772 166.637 192.646  0.00  0.00    +0.033 HD
BRANCH  50  53
ATOM     53  C   UNL     1     150.511 165.915 194.182  0.00  0.00    -0.046 A 
ATOM     54  C   UNL     1     149.143 166.160 193.994  0.00  0.00    -0.059 A 
ATOM     55  C   UNL     1     148.302 166.382 195.086  0.00  0.00    -0.062 A 
ATOM     56  C   UNL     1     148.819 166.373 196.379  0.00  0.00    -0.062 A 
ATOM     57  C   UNL     1     150.179 166.150 196.578  0.00  0.00    -0.062 A 
ATOM     58  C   UNL     1     151.021 165.926 195.487  0.00  0.00    -0.059 A 
ATOM     59  H   UNL     1     148.715 166.178 192.995  0.00  0.00    +0.062 HD
ATOM     60  H   UNL     1     147.241 166.557 194.928  0.00  0.00    +0.062 HD
ATOM     61  H   UNL     1     148.164 166.539 197.229  0.00  0.00    +0.062 HD
ATOM     62  H   UNL     1     150.587 166.134 197.585  0.00  0.00    +0.062 HD
ATOM     63  H   UNL     1     152.076 165.737 195.673  0.00  0.00    +0.062 HD
ENDBRANCH  50  53
ENDBRANCH  21  50
BRANCH  15  64
ATOM     64  O   UNL     1     156.150 160.586 189.774  0.00  0.00    -0.377 OA
ATOM     65  H   UNL     1     157.124 160.583 189.871  0.00  0.00    +0.211 HD
ENDBRANCH  15  64
BRANCH   6  66
ATOM     66  O   UNL     1     149.372 163.479 187.159  0.00  0.00    -0.387 OA
ATOM     67  H   UNL     1     148.433 163.733 187.207  0.00  0.00    +0.210 HD
ENDBRANCH   6  66
BRANCH  12  68
ATOM     68  O   UNL     1     153.921 164.931 188.618  0.00  0.00    -0.456 OA
BRANCH  68  69
ATOM     69  C   UNL     1     154.412 166.182 188.792  0.00  0.00    +0.305 C 
ATOM     70  O   UNL     1     153.811 167.229 188.614  0.00  0.00    -0.251 OA
BRANCH  69  71
ATOM     71  C   UNL     1     155.835 166.104 189.256  0.00  0.00    +0.033 C 
ATOM     72  H   UNL     1     156.367 165.323 188.707  0.00  0.00    +0.034 HD
ATOM     73  H   UNL     1     155.861 165.904 190.328  0.00  0.00    +0.034 HD
ATOM     74  H   UNL     1     156.334 167.057 189.053  0.00  0.00    +0.034 HD
ENDBRANCH  69  71
ENDBRANCH  68  69
ENDBRANCH  12  68
TORSDOF 10
ENDMDL
MODEL 8
REMARK VINA RESULT:      -6.1      3.045      6.923
REMARK  Name = Cytochalasin D_conf2
REMARK  10 active torsions:
REMARK  status: ('A' for Active; 'I' for Inactive)
REMARK    1  A    between atoms: C_1  and  C_2
REMARK    2  A    between atoms: C_7  and  O_37
REMARK    3  A    between atoms: C_10  and  C_36
REMARK    4  A    between atoms: C_13  and  O_21
REMARK    5  A    between atoms: C_16  and  C_19
REMARK    6  A    between atoms: C_16  and  O_20
REMARK    7  A    between atoms: O_21  and  C_22
REMARK    8  A    between atoms: C_22  and  C_24
REMARK    9  A    between atoms: C_28  and  C_29
REMARK   10  A    between atoms: C_29  and  C_30
REMARK                            x       y       z     vdW  Elec       q    Type
REMARK                         _______ _______ _______ _____ _____    ______ ____
ROOT
ATOM      1  C   UNL     1     150.943 161.478 188.050  0.00  0.00    +0.021 C 
ATOM      2  C   UNL     1     151.542 161.768 189.437  0.00  0.00    -0.025 C 
ATOM      3  C   UNL     1     150.643 162.626 190.289  0.00  0.00    -0.087 C 
ATOM      4  C   UNL     1     150.900 163.912 190.588  0.00  0.00    -0.081 C 
ATOM      5  C   UNL     1     149.994 164.796 191.446  0.00  0.00    +0.025 C 
ATOM      6  C   UNL     1     150.748 165.179 192.752  0.00  0.00    +0.084 C 
ATOM      7  C   UNL     1     149.970 166.126 193.645  0.00  0.00    -0.045 C 
ATOM      8  C   UNL     1     150.545 166.644 194.746  0.00  0.00    -0.097 C 
ATOM      9  C   UNL     1     148.557 166.422 193.184  0.00  0.00    -0.015 C 
ATOM     10  C   UNL     1     148.591 166.989 191.742  0.00  0.00    +0.002 C 
ATOM     11  C   UNL     1     149.387 166.061 190.724  0.00  0.00    +0.101 C 
ATOM     12  C   UNL     1     148.436 165.685 189.533  0.00  0.00    +0.136 C 
ATOM     13  C   UNL     1     149.123 165.173 188.281  0.00  0.00    -0.044 C 
ATOM     14  C   UNL     1     149.034 163.934 187.759  0.00  0.00    -0.046 C 
ATOM     15  C   UNL     1     149.833 163.406 186.595  0.00  0.00    +0.139 C 
ATOM     16  C   UNL     1     151.104 162.695 187.138  0.00  0.00    +0.171 C 
ATOM     17  O   UNL     1     152.226 163.119 186.832  0.00  0.00    -0.294 OA
ATOM     18  C   UNL     1     150.517 166.979 190.263  0.00  0.00    +0.224 C 
ATOM     19  O   UNL     1     151.449 166.698 189.526  0.00  0.00    -0.275 OA
ATOM     20  N   UNL     1     150.394 168.215 190.825  0.00  0.00    -0.311 N 
ATOM     21  C   UNL     1     149.249 168.389 191.661  0.00  0.00    +0.032 C 
ATOM     22  H   UNL     1     149.881 161.225 188.149  0.00  0.00    +0.038 HD
ATOM     23  H   UNL     1     151.696 160.827 189.978  0.00  0.00    +0.031 HD
ATOM     24  H   UNL     1     152.532 162.231 189.340  0.00  0.00    +0.031 HD
ATOM     25  H   UNL     1     149.737 162.156 190.667  0.00  0.00    +0.057 HD
ATOM     26  H   UNL     1     151.811 164.369 190.203  0.00  0.00    +0.057 HD
ATOM     27  H   UNL     1     149.155 164.154 191.752  0.00  0.00    +0.038 HD
ATOM     28  H   UNL     1     151.721 165.626 192.514  0.00  0.00    +0.065 HD
ATOM     29  H   UNL     1     150.032 167.321 195.420  0.00  0.00    +0.054 HD
ATOM     30  H   UNL     1     151.563 166.373 195.017  0.00  0.00    +0.054 HD
ATOM     31  H   UNL     1     148.023 165.460 193.151  0.00  0.00    +0.035 HD
ATOM     32  H   UNL     1     147.547 167.079 191.432  0.00  0.00    +0.034 HD
ATOM     33  H   UNL     1     147.872 166.567 189.213  0.00  0.00    +0.079 HD
ATOM     34  H   UNL     1     149.769 165.896 187.786  0.00  0.00    +0.061 HD
ATOM     35  H   UNL     1     148.393 163.206 188.249  0.00  0.00    +0.060 HD
ATOM     36  H   UNL     1     151.095 168.924 190.645  0.00  0.00    +0.149 HD
ATOM     37  H   UNL     1     149.650 168.694 192.634  0.00  0.00    +0.050 HD
ENDROOT
BRANCH   1  38
ATOM     38  C   UNL     1     151.647 160.291 187.393  0.00  0.00    -0.055 C 
ATOM     39  H   UNL     1     152.728 160.462 187.336  0.00  0.00    +0.024 HD
ATOM     40  H   UNL     1     151.276 160.134 186.376  0.00  0.00    +0.024 HD
ATOM     41  H   UNL     1     151.490 159.366 187.960  0.00  0.00    +0.024 HD
ENDBRANCH   1  38
BRANCH  15  42
ATOM     42  C   UNL     1     149.013 162.468 185.714  0.00  0.00    -0.025 C 
ATOM     43  H   UNL     1     149.477 162.364 184.726  0.00  0.00    +0.026 HD
ATOM     44  H   UNL     1     148.005 162.866 185.546  0.00  0.00    +0.026 HD
ATOM     45  H   UNL     1     148.916 161.465 186.143  0.00  0.00    +0.026 HD
ENDBRANCH  15  42
BRANCH   9  46
ATOM     46  C   UNL     1     147.708 167.301 194.114  0.00  0.00    -0.058 C 
ATOM     47  H   UNL     1     146.763 167.611 193.660  0.00  0.00    +0.024 HD
ATOM     48  H   UNL     1     148.257 168.207 194.396  0.00  0.00    +0.024 HD
ATOM     49  H   UNL     1     147.472 166.764 195.040  0.00  0.00    +0.024 HD
ENDBRANCH   9  46
BRANCH  21  50
ATOM     50  C   UNL     1     148.326 169.536 191.194  0.00  0.00    -0.009 C 
ATOM     51  H   UNL     1     148.505 169.719 190.127  0.00  0.00    +0.033 HD
ATOM     52  H   UNL     1     147.284 169.197 191.258  0.00  0.00    +0.033 HD
BRANCH  50  53
ATOM     53  C   UNL     1     148.419 170.840 191.951  0.00  0.00    -0.046 A 
ATOM     54  C   UNL     1     149.624 171.250 192.539  0.00  0.00    -0.059 A 
ATOM     55  C   UNL     1     149.707 172.463 193.224  0.00  0.00    -0.062 A 
ATOM     56  C   UNL     1     148.583 173.276 193.341  0.00  0.00    -0.062 A 
ATOM     57  C   UNL     1     147.376 172.873 192.779  0.00  0.00    -0.062 A 
ATOM     58  C   UNL     1     147.292 171.660 192.091  0.00  0.00    -0.059 A 
ATOM     59  H   UNL     1     150.514 170.630 192.466  0.00  0.00    +0.062 HD
ATOM     60  H   UNL     1     150.651 172.776 193.664  0.00  0.00    +0.062 HD
ATOM     61  H   UNL     1     148.648 174.224 193.869  0.00  0.00    +0.062 HD
ATOM     62  H   UNL     1     146.497 173.507 192.860  0.00  0.00    +0.062 HD
ATOM     63  H   UNL     1     146.340 171.378 191.647  0.00  0.00    +0.062 HD
ENDBRANCH  50  53
ENDBRANCH  21  50
BRANCH  15  64
ATOM     64  O   UNL     1     150.233 164.498 185.762  0.00  0.00    -0.377 OA
ATOM     65  H   UNL     1     151.175 164.661 185.974  0.00  0.00    +0.211 HD
ENDBRANCH  15  64
BRANCH   6  66
ATOM     66  O   UNL     1     150.983 164.001 193.530  0.00  0.00    -0.387 OA
ATOM     67  H   UNL     1     151.945 163.848 193.521  0.00  0.00    +0.210 HD
ENDBRANCH   6  66
BRANCH  12  68
ATOM     68  O   UNL     1     147.526 164.646 189.985  0.00  0.00    -0.456 OA
BRANCH  68  69
ATOM     69  C   UNL     1     146.189 164.865 189.946  0.00  0.00    +0.305 C 
ATOM     70  O   UNL     1     145.585 165.766 190.505  0.00  0.00    -0.251 OA
BRANCH  69  71
ATOM     71  C   UNL     1     145.534 163.825 189.088  0.00  0.00    +0.033 C 
ATOM     72  H   UNL     1     144.518 164.136 188.830  0.00  0.00    +0.034 HD
ATOM     73  H   UNL     1     145.520 162.870 189.615  0.00  0.00    +0.034 HD
ATOM     74  H   UNL     1     146.099 163.717 188.157  0.00  0.00    +0.034 HD
ENDBRANCH  69  71
ENDBRANCH  68  69
ENDBRANCH  12  68
TORSDOF 10
ENDMDL
MODEL 9
REMARK VINA RESULT:      -6.1     15.778     19.000
REMARK  Name = Cytochalasin D_conf2
REMARK  10 active torsions:
REMARK  status: ('A' for Active; 'I' for Inactive)
REMARK    1  A    between atoms: C_1  and  C_2
REMARK    2  A    between atoms: C_7  and  O_37
REMARK    3  A    between atoms: C_10  and  C_36
REMARK    4  A    between atoms: C_13  and  O_21
REMARK    5  A    between atoms: C_16  and  C_19
REMARK    6  A    between atoms: C_16  and  O_20
REMARK    7  A    between atoms: O_21  and  C_22
REMARK    8  A    between atoms: C_22  and  C_24
REMARK    9  A    between atoms: C_28  and  C_29
REMARK   10  A    between atoms: C_29  and  C_30
REMARK                            x       y       z     vdW  Elec       q    Type
REMARK                         _______ _______ _______ _____ _____    ______ ____
ROOT
ATOM      1  C   UNL     1     133.265 173.348 197.183  0.00  0.00    +0.021 C 
ATOM      2  C   UNL     1     132.464 173.664 198.457  0.00  0.00    -0.025 C 
ATOM      3  C   UNL     1     133.054 174.805 199.245  0.00  0.00    -0.087 C 
ATOM      4  C   UNL     1     133.688 174.654 200.420  0.00  0.00    -0.081 C 
ATOM      5  C   UNL     1     134.297 175.802 201.227  0.00  0.00    +0.025 C 
ATOM      6  C   UNL     1     133.531 175.938 202.574  0.00  0.00    +0.084 C 
ATOM      7  C   UNL     1     134.105 176.998 203.493  0.00  0.00    -0.045 C 
ATOM      8  C   UNL     1     133.626 177.143 204.743  0.00  0.00    -0.097 C 
ATOM      9  C   UNL     1     135.224 177.825 202.893  0.00  0.00    -0.015 C 
ATOM     10  C   UNL     1     136.363 176.886 202.418  0.00  0.00    +0.002 C 
ATOM     11  C   UNL     1     135.859 175.736 201.443  0.00  0.00    +0.101 C 
ATOM     12  C   UNL     1     136.664 175.825 200.097  0.00  0.00    +0.136 C 
ATOM     13  C   UNL     1     136.628 174.582 199.228  0.00  0.00    -0.044 C 
ATOM     14  C   UNL     1     136.063 174.463 198.011  0.00  0.00    -0.046 C 
ATOM     15  C   UNL     1     135.918 173.185 197.225  0.00  0.00    +0.139 C 
ATOM     16  C   UNL     1     134.528 172.560 197.533  0.00  0.00    +0.171 C 
ATOM     17  O   UNL     1     134.457 171.441 198.058  0.00  0.00    -0.294 OA
ATOM     18  C   UNL     1     136.216 174.471 202.219  0.00  0.00    +0.224 C 
ATOM     19  O   UNL     1     135.959 173.316 201.918  0.00  0.00    -0.275 OA
ATOM     20  N   UNL     1     136.858 174.784 203.380  0.00  0.00    -0.311 N 
ATOM     21  C   UNL     1     137.088 176.178 203.590  0.00  0.00    +0.032 C 
ATOM     22  H   UNL     1     133.535 174.279 196.673  0.00  0.00    +0.038 HD
ATOM     23  H   UNL     1     131.440 173.954 198.190  0.00  0.00    +0.031 HD
ATOM     24  H   UNL     1     132.374 172.771 199.088  0.00  0.00    +0.031 HD
ATOM     25  H   UNL     1     132.951 175.799 198.812  0.00  0.00    +0.057 HD
ATOM     26  H   UNL     1     133.782 173.653 200.841  0.00  0.00    +0.057 HD
ATOM     27  H   UNL     1     134.079 176.716 200.655  0.00  0.00    +0.038 HD
ATOM     28  H   UNL     1     133.511 174.975 203.101  0.00  0.00    +0.065 HD
ATOM     29  H   UNL     1     133.998 177.887 205.438  0.00  0.00    +0.054 HD
ATOM     30  H   UNL     1     132.811 176.516 205.097  0.00  0.00    +0.054 HD
ATOM     31  H   UNL     1     134.812 178.324 202.004  0.00  0.00    +0.035 HD
ATOM     32  H   UNL     1     137.082 177.528 201.903  0.00  0.00    +0.034 HD
ATOM     33  H   UNL     1     137.724 176.000 200.307  0.00  0.00    +0.079 HD
ATOM     34  H   UNL     1     137.094 173.702 199.669  0.00  0.00    +0.061 HD
ATOM     35  H   UNL     1     135.594 175.336 197.565  0.00  0.00    +0.060 HD
ATOM     36  H   UNL     1     137.123 174.048 204.025  0.00  0.00    +0.149 HD
ATOM     37  H   UNL     1     136.606 176.405 204.547  0.00  0.00    +0.050 HD
ENDROOT
BRANCH   1  38
ATOM     38  C   UNL     1     132.432 172.510 196.214  0.00  0.00    -0.055 C 
ATOM     39  H   UNL     1     132.397 172.978 195.223  0.00  0.00    +0.024 HD
ATOM     40  H   UNL     1     131.403 172.406 196.573  0.00  0.00    +0.024 HD
ATOM     41  H   UNL     1     132.851 171.505 196.088  0.00  0.00    +0.024 HD
ENDBRANCH   1  38
BRANCH  15  42
ATOM     42  C   UNL     1     136.099 173.407 195.726  0.00  0.00    -0.025 C 
ATOM     43  H   UNL     1     135.127 173.444 195.222  0.00  0.00    +0.026 HD
ATOM     44  H   UNL     1     136.658 172.580 195.271  0.00  0.00    +0.026 HD
ATOM     45  H   UNL     1     136.626 174.340 195.500  0.00  0.00    +0.026 HD
ENDBRANCH  15  42
BRANCH   9  46
ATOM     46  C   UNL     1     135.765 178.970 203.762  0.00  0.00    -0.058 C 
ATOM     47  H   UNL     1     135.065 179.807 203.845  0.00  0.00    +0.024 HD
ATOM     48  H   UNL     1     136.703 179.359 203.350  0.00  0.00    +0.024 HD
ATOM     49  H   UNL     1     135.980 178.613 204.776  0.00  0.00    +0.024 HD
ENDBRANCH   9  46
BRANCH  21  50
ATOM     50  C   UNL     1     138.582 176.527 203.762  0.00  0.00    -0.009 C 
ATOM     51  H   UNL     1     138.813 176.566 204.834  0.00  0.00    +0.033 HD
ATOM     52  H   UNL     1     139.185 175.698 203.366  0.00  0.00    +0.033 HD
BRANCH  50  53
ATOM     53  C   UNL     1     139.070 177.792 203.095  0.00  0.00    -0.046 A 
ATOM     54  C   UNL     1     139.373 177.816 201.726  0.00  0.00    -0.059 A 
ATOM     55  C   UNL     1     139.809 178.992 201.113  0.00  0.00    -0.062 A 
ATOM     56  C   UNL     1     139.960 180.155 201.863  0.00  0.00    -0.062 A 
ATOM     57  C   UNL     1     139.682 180.140 203.227  0.00  0.00    -0.062 A 
ATOM     58  C   UNL     1     139.243 178.965 203.841  0.00  0.00    -0.059 A 
ATOM     59  H   UNL     1     139.268 176.920 201.120  0.00  0.00    +0.062 HD
ATOM     60  H   UNL     1     140.027 179.001 200.049  0.00  0.00    +0.062 HD
ATOM     61  H   UNL     1     140.294 181.072 201.385  0.00  0.00    +0.062 HD
ATOM     62  H   UNL     1     139.790 181.047 203.816  0.00  0.00    +0.062 HD
ATOM     63  H   UNL     1     139.016 178.987 204.905  0.00  0.00    +0.062 HD
ENDBRANCH  50  53
ENDBRANCH  21  50
BRANCH  15  64
ATOM     64  O   UNL     1     136.938 172.265 197.625  0.00  0.00    -0.377 OA
ATOM     65  H   UNL     1     136.683 171.403 197.237  0.00  0.00    +0.211 HD
ENDBRANCH  15  64
BRANCH   6  66
ATOM     66  O   UNL     1     132.177 176.325 202.316  0.00  0.00    -0.387 OA
ATOM     67  H   UNL     1     131.899 176.885 203.062  0.00  0.00    +0.210 HD
ENDBRANCH   6  66
BRANCH  12  68
ATOM     68  O   UNL     1     136.120 176.921 199.311  0.00  0.00    -0.456 OA
BRANCH  68  69
ATOM     69  C   UNL     1     136.935 177.934 198.926  0.00  0.00    +0.305 C 
ATOM     70  O   UNL     1     137.909 177.843 198.197  0.00  0.00    -0.251 OA
BRANCH  69  71
ATOM     71  C   UNL     1     136.456 179.220 199.526  0.00  0.00    +0.033 C 
ATOM     72  H   UNL     1     137.031 179.452 200.426  0.00  0.00    +0.034 HD
ATOM     73  H   UNL     1     135.393 179.144 199.760  0.00  0.00    +0.034 HD
ATOM     74  H   UNL     1     136.612 180.033 198.810  0.00  0.00    +0.034 HD
ENDBRANCH  69  71
ENDBRANCH  68  69
ENDBRANCH  12  68
TORSDOF 10
ENDMDL
MODEL 10
REMARK VINA RESULT:      -6.1      2.126      5.332
REMARK  Name = Cytochalasin D_conf2
REMARK  10 active torsions:
REMARK  status: ('A' for Active; 'I' for Inactive)
REMARK    1  A    between atoms: C_1  and  C_2
REMARK    2  A    between atoms: C_7  and  O_37
REMARK    3  A    between atoms: C_10  and  C_36
REMARK    4  A    between atoms: C_13  and  O_21
REMARK    5  A    between atoms: C_16  and  C_19
REMARK    6  A    between atoms: C_16  and  O_20
REMARK    7  A    between atoms: O_21  and  C_22
REMARK    8  A    between atoms: C_22  and  C_24
REMARK    9  A    between atoms: C_28  and  C_29
REMARK   10  A    between atoms: C_29  and  C_30
REMARK                            x       y       z     vdW  Elec       q    Type
REMARK                         _______ _______ _______ _____ _____    ______ ____
ROOT
ATOM      1  C   UNL     1     144.452 163.948 189.172  0.00  0.00    +0.021 C 
ATOM      2  C   UNL     1     145.885 163.639 188.710  0.00  0.00    -0.025 C 
ATOM      3  C   UNL     1     146.924 164.069 189.713  0.00  0.00    -0.087 C 
ATOM      4  C   UNL     1     147.749 165.115 189.535  0.00  0.00    -0.081 C 
ATOM      5  C   UNL     1     148.802 165.566 190.547  0.00  0.00    +0.025 C 
ATOM      6  C   UNL     1     150.216 165.375 189.928  0.00  0.00    +0.084 C 
ATOM      7  C   UNL     1     151.340 165.868 190.818  0.00  0.00    -0.045 C 
ATOM      8  C   UNL     1     152.607 165.885 190.363  0.00  0.00    -0.097 C 
ATOM      9  C   UNL     1     150.907 166.328 192.195  0.00  0.00    -0.015 C 
ATOM     10  C   UNL     1     149.837 167.441 192.057  0.00  0.00    +0.002 C 
ATOM     11  C   UNL     1     148.610 167.017 191.138  0.00  0.00    +0.101 C 
ATOM     12  C   UNL     1     147.284 167.166 191.966  0.00  0.00    +0.136 C 
ATOM     13  C   UNL     1     146.005 167.217 191.151  0.00  0.00    -0.044 C 
ATOM     14  C   UNL     1     145.013 166.305 191.144  0.00  0.00    -0.046 C 
ATOM     15  C   UNL     1     143.819 166.305 190.226  0.00  0.00    +0.139 C 
ATOM     16  C   UNL     1     144.140 165.433 188.980  0.00  0.00    +0.171 C 
ATOM     17  O   UNL     1     144.146 165.945 187.853  0.00  0.00    -0.294 OA
ATOM     18  C   UNL     1     148.678 168.043 190.010  0.00  0.00    +0.224 C 
ATOM     19  O   UNL     1     147.985 168.091 189.006  0.00  0.00    -0.275 OA
ATOM     20  N   UNL     1     149.684 168.936 190.231  0.00  0.00    -0.311 N 
ATOM     21  C   UNL     1     150.403 168.749 191.451  0.00  0.00    +0.032 C 
ATOM     22  H   UNL     1     144.334 163.677 190.227  0.00  0.00    +0.038 HD
ATOM     23  H   UNL     1     146.004 162.558 188.566  0.00  0.00    +0.031 HD
ATOM     24  H   UNL     1     146.083 164.101 187.734  0.00  0.00    +0.031 HD
ATOM     25  H   UNL     1     146.985 163.484 190.629  0.00  0.00    +0.057 HD
ATOM     26  H   UNL     1     147.675 165.691 188.612  0.00  0.00    +0.057 HD
ATOM     27  H   UNL     1     148.735 164.855 191.384  0.00  0.00    +0.038 HD
ATOM     28  H   UNL     1     150.278 165.881 188.955  0.00  0.00    +0.065 HD
ATOM     29  H   UNL     1     153.446 166.223 190.960  0.00  0.00    +0.054 HD
ATOM     30  H   UNL     1     152.839 165.526 189.363  0.00  0.00    +0.054 HD
ATOM     31  H   UNL     1     150.430 165.466 192.686  0.00  0.00    +0.035 HD
ATOM     32  H   UNL     1     149.492 167.650 193.073  0.00  0.00    +0.034 HD
ATOM     33  H   UNL     1     147.302 168.102 192.534  0.00  0.00    +0.079 HD
ATOM     34  H   UNL     1     145.916 168.081 190.493  0.00  0.00    +0.061 HD
ATOM     35  H   UNL     1     145.096 165.439 191.796  0.00  0.00    +0.060 HD
ATOM     36  H   UNL     1     149.880 169.656 189.546  0.00  0.00    +0.149 HD
ATOM     37  H   UNL     1     151.449 168.624 191.149  0.00  0.00    +0.050 HD
ENDROOT
BRANCH   1  38
ATOM     38  C   UNL     1     143.436 163.139 188.366  0.00  0.00    -0.055 C 
ATOM     39  H   UNL     1     143.919 162.290 187.869  0.00  0.00    +0.024 HD
ATOM     40  H   UNL     1     142.968 163.759 187.596  0.00  0.00    +0.024 HD
ATOM     41  H   UNL     1     142.643 162.736 189.007  0.00  0.00    +0.024 HD
ENDBRANCH   1  38
BRANCH  15  42
ATOM     42  C   UNL     1     142.554 165.815 190.927  0.00  0.00    -0.025 C 
ATOM     43  H   UNL     1     142.293 166.479 191.759  0.00  0.00    +0.026 HD
ATOM     44  H   UNL     1     142.706 164.817 191.357  0.00  0.00    +0.026 HD
ATOM     45  H   UNL     1     141.691 165.769 190.255  0.00  0.00    +0.026 HD
ENDBRANCH  15  42
BRANCH   9  46
ATOM     46  C   UNL     1     152.030 166.745 193.157  0.00  0.00    -0.058 C 
ATOM     47  H   UNL     1     151.664 166.982 194.160  0.00  0.00    +0.024 HD
ATOM     48  H   UNL     1     152.558 167.626 192.777  0.00  0.00    +0.024 HD
ATOM     49  H   UNL     1     152.769 165.941 193.254  0.00  0.00    +0.024 HD
ENDBRANCH   9  46
BRANCH  21  50
ATOM     50  C   UNL     1     150.363 169.987 192.374  0.00  0.00    -0.009 C 
ATOM     51  H   UNL     1     150.206 169.650 193.407  0.00  0.00    +0.033 HD
ATOM     52  H   UNL     1     151.355 170.459 192.373  0.00  0.00    +0.033 HD
BRANCH  50  53
ATOM     53  C   UNL     1     149.356 171.060 192.036  0.00  0.00    -0.046 A 
ATOM     54  C   UNL     1     147.992 170.884 192.311  0.00  0.00    -0.059 A 
ATOM     55  C   UNL     1     147.069 171.886 192.009  0.00  0.00    -0.062 A 
ATOM     56  C   UNL     1     147.495 173.073 191.418  0.00  0.00    -0.062 A 
ATOM     57  C   UNL     1     148.843 173.253 191.122  0.00  0.00    -0.062 A 
ATOM     58  C   UNL     1     149.768 172.252 191.425  0.00  0.00    -0.059 A 
ATOM     59  H   UNL     1     147.634 169.966 192.767  0.00  0.00    +0.062 HD
ATOM     60  H   UNL     1     146.017 171.743 192.240  0.00  0.00    +0.062 HD
ATOM     61  H   UNL     1     146.778 173.856 191.189  0.00  0.00    +0.062 HD
ATOM     62  H   UNL     1     149.183 174.180 190.668  0.00  0.00    +0.062 HD
ATOM     63  H   UNL     1     150.818 172.427 191.198  0.00  0.00    +0.062 HD
ENDBRANCH  50  53
ENDBRANCH  21  50
BRANCH  15  64
ATOM     64  O   UNL     1     143.551 167.644 189.798  0.00  0.00    -0.377 OA
ATOM     65  H   UNL     1     144.290 167.884 189.202  0.00  0.00    +0.211 HD
ENDBRANCH  15  64
BRANCH   6  66
ATOM     66  O   UNL     1     150.460 163.981 189.714  0.00  0.00    -0.387 OA
ATOM     67  H   UNL     1     151.414 163.841 189.844  0.00  0.00    +0.210 HD
ENDBRANCH   6  66
BRANCH  12  68
ATOM     68  O   UNL     1     147.178 166.033 192.870  0.00  0.00    -0.456 OA
BRANCH  68  69
ATOM     69  C   UNL     1     147.095 166.249 194.205  0.00  0.00    +0.305 C 
ATOM     70  O   UNL     1     147.784 167.015 194.860  0.00  0.00    -0.251 OA
BRANCH  69  71
ATOM     71  C   UNL     1     146.004 165.402 194.785  0.00  0.00    +0.033 C 
ATOM     72  H   UNL     1     145.086 165.987 194.886  0.00  0.00    +0.034 HD
ATOM     73  H   UNL     1     146.318 165.012 195.755  0.00  0.00    +0.034 HD
ATOM     74  H   UNL     1     145.797 164.567 194.109  0.00  0.00    +0.034 HD
ENDBRANCH  69  71
ENDBRANCH  68  69
ENDBRANCH  12  68
TORSDOF 10
ENDMDL
