MODEL 1
REMARK VINA RESULT:      -7.0      0.000      0.000
REMARK  Name = Jasplakinolide_conf3
REMARK  10 active torsions:
REMARK  status: ('A' for Active; 'I' for Inactive)
REMARK    1  A    between atoms: C_1  and  C_2
REMARK    2  A    between atoms: C_4  and  C_47
REMARK    3  A    between atoms: C_9  and  C_40
REMARK    4  A    between atoms: C_13  and  C_29
REMARK    5  A    between atoms: N_14  and  C_28
REMARK    6  A    between atoms: C_17  and  C_27
REMARK    7  A    between atoms: C_21  and  C_26
REMARK    8  A    between atoms: C_23  and  C_25
REMARK    9  A    between atoms: C_29  and  C_30
REMARK   10  A    between atoms: C_43  and  O_46
REMARK                            x       y       z     vdW  Elec       q    Type
REMARK                         _______ _______ _______ _____ _____    ______ ____
ROOT
ATOM      1  C   UNL     1     150.575 170.127 191.868  0.00  0.00    -0.022 C 
ATOM      2  C   UNL     1     149.718 171.025 192.791  0.00  0.00    -0.010 C 
ATOM      3  C   UNL     1     148.690 171.865 192.013  0.00  0.00    +0.101 C 
ATOM      4  O   UNL     1     147.508 171.052 191.840  0.00  0.00    -0.462 OA
ATOM      5  C   UNL     1     146.689 171.380 190.800  0.00  0.00    +0.309 C 
ATOM      6  O   UNL     1     146.925 172.230 189.955  0.00  0.00    -0.251 OA
ATOM      7  C   UNL     1     145.381 170.643 190.923  0.00  0.00    +0.067 C 
ATOM      8  C   UNL     1     144.964 169.981 189.606  0.00  0.00    +0.058 C 
ATOM      9  N   UNL     1     145.502 168.632 189.513  0.00  0.00    -0.306 N 
ATOM     10  C   UNL     1     146.476 168.252 188.613  0.00  0.00    +0.234 C 
ATOM     11  O   UNL     1     146.894 169.005 187.737  0.00  0.00    -0.274 OA
ATOM     12  C   UNL     1     146.829 166.743 188.684  0.00  0.00    +0.106 C 
ATOM     13  N   UNL     1     146.654 166.176 190.053  0.00  0.00    -0.291 N 
ATOM     14  C   UNL     1     147.454 166.684 191.071  0.00  0.00    +0.236 C 
ATOM     15  O   UNL     1     148.115 167.713 190.892  0.00  0.00    -0.274 OA
ATOM     16  C   UNL     1     147.451 166.014 192.461  0.00  0.00    +0.097 C 
ATOM     17  N   UNL     1     148.688 166.405 193.136  0.00  0.00    -0.304 N 
ATOM     18  C   UNL     1     149.676 165.519 193.490  0.00  0.00    +0.217 C 
ATOM     19  O   UNL     1     149.589 164.311 193.294  0.00  0.00    -0.275 OA
ATOM     20  C   UNL     1     150.885 166.176 194.158  0.00  0.00    +0.036 C 
ATOM     21  C   UNL     1     151.926 166.642 193.122  0.00  0.00    -0.021 C 
ATOM     22  C   UNL     1     151.450 167.743 192.192  0.00  0.00    -0.076 C 
ATOM     23  C   UNL     1     151.163 168.975 192.661  0.00  0.00    -0.082 C 
ATOM     24  H   UNL     1     149.921 169.732 191.082  0.00  0.00    +0.034 HD
ATOM     25  H   UNL     1     150.388 171.679 193.365  0.00  0.00    +0.031 HD
ATOM     26  H   UNL     1     149.181 170.399 193.517  0.00  0.00    +0.031 HD
ATOM     27  H   UNL     1     149.095 172.174 191.043  0.00  0.00    +0.073 HD
ATOM     28  H   UNL     1     145.447 169.902 191.730  0.00  0.00    +0.040 HD
ATOM     29  H   UNL     1     144.652 171.399 191.244  0.00  0.00    +0.040 HD
ATOM     30  H   UNL     1     145.347 170.573 188.765  0.00  0.00    +0.055 HD
ATOM     31  H   UNL     1     145.158 167.924 190.146  0.00  0.00    +0.149 HD
ATOM     32  H   UNL     1     146.056 166.276 188.058  0.00  0.00    +0.060 HD
ATOM     33  H   UNL     1     147.434 164.927 192.350  0.00  0.00    +0.059 HD
ATOM     34  H   UNL     1     148.917 167.395 193.109  0.00  0.00    +0.149 HD
ATOM     35  H   UNL     1     150.529 167.034 194.744  0.00  0.00    +0.039 HD
ATOM     36  H   UNL     1     152.256 165.779 192.528  0.00  0.00    +0.032 HD
ATOM     37  H   UNL     1     152.824 167.003 193.642  0.00  0.00    +0.032 HD
ATOM     38  H   UNL     1     151.337 169.177 193.718  0.00  0.00    +0.057 HD
ENDROOT
BRANCH   8  39
ATOM     39  C   UNL     1     143.450 169.878 189.471  0.00  0.00    -0.026 A 
ATOM     40  C   UNL     1     142.584 170.174 190.539  0.00  0.00    -0.053 A 
ATOM     41  C   UNL     1     141.202 170.043 190.391  0.00  0.00    -0.020 A 
ATOM     42  C   UNL     1     140.677 169.609 189.181  0.00  0.00    +0.117 A 
ATOM     43  C   UNL     1     141.512 169.297 188.114  0.00  0.00    -0.020 A 
ATOM     44  C   UNL     1     142.895 169.428 188.262  0.00  0.00    -0.053 A 
ATOM     45  H   UNL     1     142.975 170.508 191.498  0.00  0.00    +0.062 HD
ATOM     46  H   UNL     1     140.537 170.279 191.216  0.00  0.00    +0.065 HD
ATOM     47  H   UNL     1     141.112 168.951 187.166  0.00  0.00    +0.065 HD
ATOM     48  H   UNL     1     143.544 169.170 187.425  0.00  0.00    +0.062 HD
BRANCH  42  49
ATOM     49  O   UNL     1     139.323 169.496 189.081  0.00  0.00    -0.507 OA
ATOM     50  H   UNL     1     139.050 169.816 188.204  0.00  0.00    +0.292 HD
ENDBRANCH  42  49
ENDBRANCH   8  39
BRANCH   1  51
ATOM     51  C   UNL     1     151.702 170.935 191.215  0.00  0.00    -0.059 C 
ATOM     52  H   UNL     1     151.322 171.872 190.792  0.00  0.00    +0.024 HD
ATOM     53  H   UNL     1     152.179 170.374 190.404  0.00  0.00    +0.024 HD
ATOM     54  H   UNL     1     152.476 171.197 191.942  0.00  0.00    +0.024 HD
ENDBRANCH   1  51
BRANCH  22  55
ATOM     55  C   UNL     1     151.349 167.339 190.744  0.00  0.00    -0.044 C 
ATOM     56  H   UNL     1     150.706 167.992 190.150  0.00  0.00    +0.027 HD
ATOM     57  H   UNL     1     152.341 167.357 190.283  0.00  0.00    +0.027 HD
ATOM     58  H   UNL     1     150.954 166.324 190.666  0.00  0.00    +0.027 HD
ENDBRANCH  22  55
BRANCH  20  59
ATOM     59  C   UNL     1     151.530 165.191 195.136  0.00  0.00    -0.054 C 
ATOM     60  H   UNL     1     151.613 164.189 194.700  0.00  0.00    +0.024 HD
ATOM     61  H   UNL     1     150.934 165.106 196.051  0.00  0.00    +0.024 HD
ATOM     62  H   UNL     1     152.535 165.524 195.417  0.00  0.00    +0.024 HD
ENDBRANCH  20  59
BRANCH  16  63
ATOM     63  C   UNL     1     146.255 166.502 193.270  0.00  0.00    -0.038 C 
ATOM     64  H   UNL     1     145.813 167.406 192.841  0.00  0.00    +0.025 HD
ATOM     65  H   UNL     1     145.479 165.731 193.316  0.00  0.00    +0.025 HD
ATOM     66  H   UNL     1     146.547 166.741 194.299  0.00  0.00    +0.025 HD
ENDBRANCH  16  63
BRANCH  13  67
ATOM     67  C   UNL     1     145.795 165.002 190.164  0.00  0.00    +0.004 C 
ATOM     68  H   UNL     1     146.336 164.106 190.458  0.00  0.00    +0.043 HD
ATOM     69  H   UNL     1     145.030 165.205 190.919  0.00  0.00    +0.043 HD
ATOM     70  H   UNL     1     145.310 164.818 189.203  0.00  0.00    +0.043 HD
ENDBRANCH  13  67
BRANCH   3  71
ATOM     71  C   UNL     1     148.296 173.100 192.823  0.00  0.00    -0.028 C 
ATOM     72  H   UNL     1     148.688 173.039 193.844  0.00  0.00    +0.027 HD
ATOM     73  H   UNL     1     147.209 173.206 192.879  0.00  0.00    +0.027 HD
ATOM     74  H   UNL     1     148.717 174.009 192.379  0.00  0.00    +0.027 HD
ENDBRANCH   3  71
BRANCH  12  75
ATOM     75  C   UNL     1     148.209 166.447 188.058  0.00  0.00    +0.003 C 
ATOM     76  H   UNL     1     149.019 166.788 188.712  0.00  0.00    +0.034 HD
ATOM     77  H   UNL     1     148.339 167.014 187.129  0.00  0.00    +0.034 HD
BRANCH  75  78
ATOM     78  C   UNL     1     148.408 164.987 187.747  0.00  0.00    -0.006 A 
ATOM     79  C   UNL     1     147.886 164.282 186.682  0.00  0.00    +0.087 A 
ATOM     80  N   UNL     1     148.306 162.988 186.750  0.00  0.00    -0.349 N 
ATOM     81  C   UNL     1     149.082 162.802 187.868  0.00  0.00    +0.048 A 
ATOM     82  C   UNL     1     149.705 161.645 188.352  0.00  0.00    -0.038 A 
ATOM     83  C   UNL     1     150.439 161.751 189.536  0.00  0.00    -0.060 A 
ATOM     84  C   UNL     1     150.550 162.966 190.203  0.00  0.00    -0.061 A 
ATOM     85  C   UNL     1     149.927 164.113 189.700  0.00  0.00    -0.052 A 
ATOM     86  C   UNL     1     149.174 164.040 188.510  0.00  0.00    +0.004 A 
ATOM     87 BR   UNL     1     146.753 164.946 185.305  0.00  0.00    -0.031 Br
ATOM     88  H   UNL     1     148.070 162.269 186.082  0.00  0.00    +0.166 HD
ATOM     89  H   UNL     1     149.622 160.696 187.834  0.00  0.00    +0.064 HD
ATOM     90  H   UNL     1     150.934 160.870 189.943  0.00  0.00    +0.062 HD
ATOM     91  H   UNL     1     151.121 163.034 191.128  0.00  0.00    +0.062 HD
ATOM     92  H   UNL     1     150.027 165.049 190.239  0.00  0.00    +0.062 HD
ENDBRANCH  75  78
ENDBRANCH  12  75
TORSDOF 10
ENDMDL
MODEL 2
REMARK VINA RESULT:      -6.8      2.738      6.785
REMARK  Name = Jasplakinolide_conf3
REMARK  10 active torsions:
REMARK  status: ('A' for Active; 'I' for Inactive)
REMARK    1  A    between atoms: C_1  and  C_2
REMARK    2  A    between atoms: C_4  and  C_47
REMARK    3  A    between atoms: C_9  and  C_40
REMARK    4  A    between atoms: C_13  and  C_29
REMARK    5  A    between atoms: N_14  and  C_28
REMARK    6  A    between atoms: C_17  and  C_27
REMARK    7  A    between atoms: C_21  and  C_26
REMARK    8  A    between atoms: C_23  and  C_25
REMARK    9  A    between atoms: C_29  and  C_30
REMARK   10  A    between atoms: C_43  and  O_46
REMARK                            x       y       z     vdW  Elec       q    Type
REMARK                         _______ _______ _______ _____ _____    ______ ____
ROOT
ATOM      1  C   UNL     1     143.865 164.130 187.554  0.00  0.00    -0.022 C 
ATOM      2  C   UNL     1     143.089 165.137 186.672  0.00  0.00    -0.010 C 
ATOM      3  C   UNL     1     142.172 166.060 187.493  0.00  0.00    +0.101 C 
ATOM      4  O   UNL     1     142.968 167.183 187.934  0.00  0.00    -0.462 OA
ATOM      5  C   UNL     1     142.528 167.848 189.039  0.00  0.00    +0.309 C 
ATOM      6  O   UNL     1     141.582 167.511 189.736  0.00  0.00    -0.251 OA
ATOM      7  C   UNL     1     143.285 169.141 189.198  0.00  0.00    +0.067 C 
ATOM      8  C   UNL     1     143.790 169.341 190.631  0.00  0.00    +0.058 C 
ATOM      9  N   UNL     1     145.114 168.761 190.797  0.00  0.00    -0.306 N 
ATOM     10  C   UNL     1     145.378 167.656 191.579  0.00  0.00    +0.234 C 
ATOM     11  O   UNL     1     144.524 167.132 192.290  0.00  0.00    -0.274 OA
ATOM     12  C   UNL     1     146.882 167.278 191.630  0.00  0.00    +0.106 C 
ATOM     13  N   UNL     1     147.608 167.638 190.377  0.00  0.00    -0.291 N 
ATOM     14  C   UNL     1     147.216 167.010 189.199  0.00  0.00    +0.236 C 
ATOM     15  O   UNL     1     146.168 166.357 189.158  0.00  0.00    -0.274 OA
ATOM     16  C   UNL     1     148.045 167.201 187.912  0.00  0.00    +0.097 C 
ATOM     17  N   UNL     1     147.726 166.087 187.019  0.00  0.00    -0.304 N 
ATOM     18  C   UNL     1     148.639 165.139 186.626  0.00  0.00    +0.217 C 
ATOM     19  O   UNL     1     149.816 165.166 186.970  0.00  0.00    -0.275 OA
ATOM     20  C   UNL     1     148.055 164.060 185.713  0.00  0.00    +0.036 C 
ATOM     21  C   UNL     1     147.462 162.889 186.522  0.00  0.00    -0.021 C 
ATOM     22  C   UNL     1     146.263 163.251 187.380  0.00  0.00    -0.076 C 
ATOM     23  C   UNL     1     145.097 163.636 186.820  0.00  0.00    -0.082 C 
ATOM     24  H   UNL     1     144.171 164.651 188.469  0.00  0.00    +0.034 HD
ATOM     25  H   UNL     1     142.502 164.576 185.934  0.00  0.00    +0.031 HD
ATOM     26  H   UNL     1     143.801 165.758 186.112  0.00  0.00    +0.031 HD
ATOM     27  H   UNL     1     141.748 165.524 188.349  0.00  0.00    +0.073 HD
ATOM     28  H   UNL     1     144.115 169.175 188.482  0.00  0.00    +0.040 HD
ATOM     29  H   UNL     1     142.578 169.928 188.905  0.00  0.00    +0.040 HD
ATOM     30  H   UNL     1     143.101 168.854 191.330  0.00  0.00    +0.055 HD
ATOM     31  H   UNL     1     145.896 169.176 190.308  0.00  0.00    +0.149 HD
ATOM     32  H   UNL     1     147.279 167.938 192.414  0.00  0.00    +0.060 HD
ATOM     33  H   UNL     1     149.112 167.173 188.148  0.00  0.00    +0.059 HD
ATOM     34  H   UNL     1     146.738 165.883 186.897  0.00  0.00    +0.149 HD
ATOM     35  H   UNL     1     147.275 164.520 185.092  0.00  0.00    +0.039 HD
ATOM     36  H   UNL     1     148.246 162.454 187.155  0.00  0.00    +0.032 HD
ATOM     37  H   UNL     1     147.157 162.087 185.836  0.00  0.00    +0.032 HD
ATOM     38  H   UNL     1     145.019 163.625 185.733  0.00  0.00    +0.057 HD
ENDROOT
BRANCH   8  39
ATOM     39  C   UNL     1     143.890 170.815 191.000  0.00  0.00    -0.026 A 
ATOM     40  C   UNL     1     142.753 171.590 191.292  0.00  0.00    -0.053 A 
ATOM     41  C   UNL     1     142.877 172.946 191.602  0.00  0.00    -0.020 A 
ATOM     42  C   UNL     1     144.133 173.538 191.613  0.00  0.00    +0.117 A 
ATOM     43  C   UNL     1     145.271 172.798 191.315  0.00  0.00    -0.020 A 
ATOM     44  C   UNL     1     145.148 171.441 191.005  0.00  0.00    -0.053 A 
ATOM     45  H   UNL     1     141.759 171.148 191.281  0.00  0.00    +0.062 HD
ATOM     46  H   UNL     1     141.997 173.539 191.833  0.00  0.00    +0.065 HD
ATOM     47  H   UNL     1     146.257 173.253 191.316  0.00  0.00    +0.065 HD
ATOM     48  H   UNL     1     146.043 170.870 190.762  0.00  0.00    +0.062 HD
BRANCH  42  49
ATOM     49  O   UNL     1     144.207 174.863 191.921  0.00  0.00    -0.507 OA
ATOM     50  H   UNL     1     144.496 175.349 191.131  0.00  0.00    +0.292 HD
ENDBRANCH  42  49
ENDBRANCH   8  39
BRANCH   1  51
ATOM     51  C   UNL     1     142.977 162.941 187.934  0.00  0.00    -0.059 C 
ATOM     52  H   UNL     1     143.462 162.312 188.689  0.00  0.00    +0.024 HD
ATOM     53  H   UNL     1     142.760 162.309 187.065  0.00  0.00    +0.024 HD
ATOM     54  H   UNL     1     142.022 163.275 188.353  0.00  0.00    +0.024 HD
ENDBRANCH   1  51
BRANCH  22  55
ATOM     55  C   UNL     1     146.495 163.128 188.863  0.00  0.00    -0.044 C 
ATOM     56  H   UNL     1     146.662 164.085 189.363  0.00  0.00    +0.027 HD
ATOM     57  H   UNL     1     145.624 162.664 189.338  0.00  0.00    +0.027 HD
ATOM     58  H   UNL     1     147.365 162.498 189.054  0.00  0.00    +0.027 HD
ENDBRANCH  22  55
BRANCH  20  59
ATOM     59  C   UNL     1     149.143 163.541 184.771  0.00  0.00    -0.054 C 
ATOM     60  H   UNL     1     150.123 163.520 185.261  0.00  0.00    +0.024 HD
ATOM     61  H   UNL     1     149.229 164.182 183.886  0.00  0.00    +0.024 HD
ATOM     62  H   UNL     1     148.911 162.526 184.430  0.00  0.00    +0.024 HD
ENDBRANCH  20  59
BRANCH  16  63
ATOM     63  C   UNL     1     147.666 168.515 187.240  0.00  0.00    -0.038 C 
ATOM     64  H   UNL     1     148.397 169.303 187.442  0.00  0.00    +0.025 HD
ATOM     65  H   UNL     1     147.593 168.387 186.155  0.00  0.00    +0.025 HD
ATOM     66  H   UNL     1     146.694 168.875 187.597  0.00  0.00    +0.025 HD
ENDBRANCH  16  63
BRANCH  13  67
ATOM     67  C   UNL     1     148.793 168.474 190.531  0.00  0.00    +0.004 C 
ATOM     68  H   UNL     1     148.639 169.307 191.214  0.00  0.00    +0.043 HD
ATOM     69  H   UNL     1     149.604 167.854 190.924  0.00  0.00    +0.043 HD
ATOM     70  H   UNL     1     149.085 168.871 189.557  0.00  0.00    +0.043 HD
ENDBRANCH  13  67
BRANCH   3  71
ATOM     71  C   UNL     1     141.044 166.601 186.614  0.00  0.00    -0.028 C 
ATOM     72  H   UNL     1     140.693 167.570 186.983  0.00  0.00    +0.027 HD
ATOM     73  H   UNL     1     140.194 165.913 186.594  0.00  0.00    +0.027 HD
ATOM     74  H   UNL     1     141.392 166.763 185.588  0.00  0.00    +0.027 HD
ENDBRANCH   3  71
BRANCH  12  75
ATOM     75  C   UNL     1     147.091 165.814 192.072  0.00  0.00    +0.003 C 
ATOM     76  H   UNL     1     147.007 165.129 191.221  0.00  0.00    +0.034 HD
ATOM     77  H   UNL     1     146.297 165.504 192.762  0.00  0.00    +0.034 HD
BRANCH  75  78
ATOM     78  C   UNL     1     148.416 165.593 192.754  0.00  0.00    -0.006 A 
ATOM     79  C   UNL     1     149.560 165.058 192.200  0.00  0.00    +0.087 A 
ATOM     80  N   UNL     1     150.546 165.035 193.141  0.00  0.00    -0.349 N 
ATOM     81  C   UNL     1     150.071 165.522 194.334  0.00  0.00    +0.048 A 
ATOM     82  C   UNL     1     150.713 165.663 195.570  0.00  0.00    -0.038 A 
ATOM     83  C   UNL     1     149.971 166.191 196.630  0.00  0.00    -0.060 A 
ATOM     84  C   UNL     1     148.643 166.566 196.457  0.00  0.00    -0.061 A 
ATOM     85  C   UNL     1     148.021 166.425 195.212  0.00  0.00    -0.052 A 
ATOM     86  C   UNL     1     148.740 165.890 194.122  0.00  0.00    +0.004 A 
ATOM     87 BR   UNL     1     149.794 164.429 190.420  0.00  0.00    -0.031 Br
ATOM     88  H   UNL     1     151.485 164.698 192.984  0.00  0.00    +0.166 HD
ATOM     89  H   UNL     1     151.750 165.373 195.710  0.00  0.00    +0.064 HD
ATOM     90  H   UNL     1     150.439 166.312 197.606  0.00  0.00    +0.062 HD
ATOM     91  H   UNL     1     148.075 166.971 197.292  0.00  0.00    +0.062 HD
ATOM     92  H   UNL     1     146.984 166.723 195.102  0.00  0.00    +0.062 HD
ENDBRANCH  75  78
ENDBRANCH  12  75
TORSDOF 10
ENDMDL
MODEL 3
REMARK VINA RESULT:      -6.6      2.670      7.053
REMARK  Name = Jasplakinolide_conf3
REMARK  10 active torsions:
REMARK  status: ('A' for Active; 'I' for Inactive)
REMARK    1  A    between atoms: C_1  and  C_2
REMARK    2  A    between atoms: C_4  and  C_47
REMARK    3  A    between atoms: C_9  and  C_40
REMARK    4  A    between atoms: C_13  and  C_29
REMARK    5  A    between atoms: N_14  and  C_28
REMARK    6  A    between atoms: C_17  and  C_27
REMARK    7  A    between atoms: C_21  and  C_26
REMARK    8  A    between atoms: C_23  and  C_25
REMARK    9  A    between atoms: C_29  and  C_30
REMARK   10  A    between atoms: C_43  and  O_46
REMARK                            x       y       z     vdW  Elec       q    Type
REMARK                         _______ _______ _______ _____ _____    ______ ____
ROOT
ATOM      1  C   UNL     1     143.621 165.251 188.453  0.00  0.00    -0.022 C 
ATOM      2  C   UNL     1     142.982 166.526 187.854  0.00  0.00    -0.010 C 
ATOM      3  C   UNL     1     142.761 167.628 188.904  0.00  0.00    +0.101 C 
ATOM      4  O   UNL     1     143.988 168.386 189.003  0.00  0.00    -0.462 OA
ATOM      5  C   UNL     1     144.194 169.065 190.167  0.00  0.00    +0.309 C 
ATOM      6  O   UNL     1     143.481 169.001 191.158  0.00  0.00    -0.251 OA
ATOM      7  C   UNL     1     145.349 170.019 190.010  0.00  0.00    +0.067 C 
ATOM      8  C   UNL     1     146.340 169.923 191.173  0.00  0.00    +0.058 C 
ATOM      9  N   UNL     1     147.366 168.928 190.897  0.00  0.00    -0.306 N 
ATOM     10  C   UNL     1     147.487 167.737 191.582  0.00  0.00    +0.234 C 
ATOM     11  O   UNL     1     146.797 167.466 192.561  0.00  0.00    -0.274 OA
ATOM     12  C   UNL     1     148.700 166.883 191.128  0.00  0.00    +0.106 C 
ATOM     13  N   UNL     1     149.042 167.087 189.690  0.00  0.00    -0.291 N 
ATOM     14  C   UNL     1     148.091 166.722 188.742  0.00  0.00    +0.236 C 
ATOM     15  O   UNL     1     146.934 166.456 189.086  0.00  0.00    -0.274 OA
ATOM     16  C   UNL     1     148.455 166.736 187.243  0.00  0.00    +0.097 C 
ATOM     17  N   UNL     1     147.500 165.867 186.555  0.00  0.00    -0.304 N 
ATOM     18  C   UNL     1     147.852 164.708 185.908  0.00  0.00    +0.217 C 
ATOM     19  O   UNL     1     149.013 164.318 185.827  0.00  0.00    -0.275 OA
ATOM     20  C   UNL     1     146.669 163.960 185.291  0.00  0.00    +0.036 C 
ATOM     21  C   UNL     1     146.023 162.987 186.297  0.00  0.00    -0.021 C 
ATOM     22  C   UNL     1     145.377 163.650 187.500  0.00  0.00    -0.076 C 
ATOM     23  C   UNL     1     144.293 164.442 187.360  0.00  0.00    -0.082 C 
ATOM     24  H   UNL     1     144.372 165.564 189.187  0.00  0.00    +0.034 HD
ATOM     25  H   UNL     1     142.029 166.253 187.382  0.00  0.00    +0.031 HD
ATOM     26  H   UNL     1     143.630 166.923 187.060  0.00  0.00    +0.031 HD
ATOM     27  H   UNL     1     142.493 167.193 189.873  0.00  0.00    +0.073 HD
ATOM     28  H   UNL     1     145.851 169.838 189.051  0.00  0.00    +0.040 HD
ATOM     29  H   UNL     1     144.894 171.016 189.947  0.00  0.00    +0.040 HD
ATOM     30  H   UNL     1     145.804 169.633 192.085  0.00  0.00    +0.055 HD
ATOM     31  H   UNL     1     148.030 169.103 190.155  0.00  0.00    +0.149 HD
ATOM     32  H   UNL     1     149.535 167.308 191.704  0.00  0.00    +0.060 HD
ATOM     33  H   UNL     1     149.463 166.340 187.100  0.00  0.00    +0.059 HD
ATOM     34  H   UNL     1     146.521 166.010 186.787  0.00  0.00    +0.149 HD
ATOM     35  H   UNL     1     145.930 164.701 184.959  0.00  0.00    +0.039 HD
ATOM     36  H   UNL     1     146.779 162.267 186.639  0.00  0.00    +0.032 HD
ATOM     37  H   UNL     1     145.255 162.389 185.787  0.00  0.00    +0.032 HD
ATOM     38  H   UNL     1     143.857 164.547 186.366  0.00  0.00    +0.057 HD
ENDROOT
BRANCH   8  39
ATOM     39  C   UNL     1     147.048 171.247 191.432  0.00  0.00    -0.026 A 
ATOM     40  C   UNL     1     146.860 172.368 190.605  0.00  0.00    -0.053 A 
ATOM     41  C   UNL     1     147.545 173.558 190.854  0.00  0.00    -0.020 A 
ATOM     42  C   UNL     1     148.428 173.635 191.924  0.00  0.00    +0.117 A 
ATOM     43  C   UNL     1     148.642 172.537 192.749  0.00  0.00    -0.020 A 
ATOM     44  C   UNL     1     147.957 171.345 192.499  0.00  0.00    -0.053 A 
ATOM     45  H   UNL     1     146.179 172.327 189.757  0.00  0.00    +0.062 HD
ATOM     46  H   UNL     1     147.391 174.424 190.217  0.00  0.00    +0.065 HD
ATOM     47  H   UNL     1     149.335 172.584 193.584  0.00  0.00    +0.065 HD
ATOM     48  H   UNL     1     148.139 170.485 193.143  0.00  0.00    +0.062 HD
BRANCH  42  49
ATOM     49  O   UNL     1     149.074 174.817 192.130  0.00  0.00    -0.507 OA
ATOM     50  H   UNL     1     149.527 174.775 192.989  0.00  0.00    +0.292 HD
ENDBRANCH  42  49
ENDBRANCH   8  39
BRANCH   1  51
ATOM     51  C   UNL     1     142.565 164.392 189.158  0.00  0.00    -0.059 C 
ATOM     52  H   UNL     1     143.035 163.647 189.810  0.00  0.00    +0.024 HD
ATOM     53  H   UNL     1     141.939 163.855 188.437  0.00  0.00    +0.024 HD
ATOM     54  H   UNL     1     141.908 165.004 189.783  0.00  0.00    +0.024 HD
ENDBRANCH   1  51
BRANCH  22  55
ATOM     55  C   UNL     1     146.036 163.335 188.817  0.00  0.00    -0.044 C 
ATOM     56  H   UNL     1     146.232 164.216 189.433  0.00  0.00    +0.027 HD
ATOM     57  H   UNL     1     145.394 162.669 189.403  0.00  0.00    +0.027 HD
ATOM     58  H   UNL     1     146.988 162.830 188.648  0.00  0.00    +0.027 HD
ENDBRANCH  22  55
BRANCH  20  59
ATOM     59  C   UNL     1     147.137 163.192 184.053  0.00  0.00    -0.054 C 
ATOM     60  H   UNL     1     148.023 162.584 184.267  0.00  0.00    +0.024 HD
ATOM     61  H   UNL     1     147.396 163.883 183.243  0.00  0.00    +0.024 HD
ATOM     62  H   UNL     1     146.348 162.526 183.688  0.00  0.00    +0.024 HD
ENDBRANCH  20  59
BRANCH  16  63
ATOM     63  C   UNL     1     148.338 168.153 186.693  0.00  0.00    -0.038 C 
ATOM     64  H   UNL     1     147.566 168.729 187.211  0.00  0.00    +0.025 HD
ATOM     65  H   UNL     1     149.289 168.686 186.795  0.00  0.00    +0.025 HD
ATOM     66  H   UNL     1     148.076 168.143 185.629  0.00  0.00    +0.025 HD
ENDBRANCH  16  63
BRANCH  13  67
ATOM     67  C   UNL     1     150.418 167.471 189.398  0.00  0.00    +0.004 C 
ATOM     68  H   UNL     1     150.737 167.181 188.399  0.00  0.00    +0.043 HD
ATOM     69  H   UNL     1     150.498 168.559 189.482  0.00  0.00    +0.043 HD
ATOM     70  H   UNL     1     151.085 167.005 190.127  0.00  0.00    +0.043 HD
ENDBRANCH  13  67
BRANCH   3  71
ATOM     71  C   UNL     1     141.657 168.580 188.446  0.00  0.00    -0.028 C 
ATOM     72  H   UNL     1     141.826 168.907 187.415  0.00  0.00    +0.027 HD
ATOM     73  H   UNL     1     141.609 169.468 189.084  0.00  0.00    +0.027 HD
ATOM     74  H   UNL     1     140.681 168.083 188.460  0.00  0.00    +0.027 HD
ENDBRANCH   3  71
BRANCH  12  75
ATOM     75  C   UNL     1     148.539 165.400 191.526  0.00  0.00    +0.003 C 
ATOM     76  H   UNL     1     148.592 164.748 190.648  0.00  0.00    +0.034 HD
ATOM     77  H   UNL     1     147.543 165.222 191.950  0.00  0.00    +0.034 HD
BRANCH  75  78
ATOM     78  C   UNL     1     149.563 164.952 192.536  0.00  0.00    -0.006 A 
ATOM     79  C   UNL     1     150.614 164.082 192.328  0.00  0.00    +0.087 A 
ATOM     80  N   UNL     1     151.316 163.941 193.488  0.00  0.00    -0.349 N 
ATOM     81  C   UNL     1     150.733 164.683 194.485  0.00  0.00    +0.048 A 
ATOM     82  C   UNL     1     151.091 164.825 195.832  0.00  0.00    -0.038 A 
ATOM     83  C   UNL     1     150.300 165.655 196.630  0.00  0.00    -0.060 A 
ATOM     84  C   UNL     1     149.200 166.320 196.100  0.00  0.00    -0.061 A 
ATOM     85  C   UNL     1     148.862 166.173 194.750  0.00  0.00    -0.052 A 
ATOM     86  C   UNL     1     149.637 165.337 193.918  0.00  0.00    +0.004 A 
ATOM     87 BR   UNL     1     151.065 163.185 190.713  0.00  0.00    -0.031 Br
ATOM     88  H   UNL     1     152.138 163.365 193.598  0.00  0.00    +0.166 HD
ATOM     89  H   UNL     1     151.950 164.309 196.249  0.00  0.00    +0.064 HD
ATOM     90  H   UNL     1     150.548 165.785 197.682  0.00  0.00    +0.062 HD
ATOM     91  H   UNL     1     148.588 166.960 196.734  0.00  0.00    +0.062 HD
ATOM     92  H   UNL     1     147.998 166.700 194.361  0.00  0.00    +0.062 HD
ENDBRANCH  75  78
ENDBRANCH  12  75
TORSDOF 10
ENDMDL
MODEL 4
REMARK VINA RESULT:      -6.6      3.000      7.719
REMARK  Name = Jasplakinolide_conf3
REMARK  10 active torsions:
REMARK  status: ('A' for Active; 'I' for Inactive)
REMARK    1  A    between atoms: C_1  and  C_2
REMARK    2  A    between atoms: C_4  and  C_47
REMARK    3  A    between atoms: C_9  and  C_40
REMARK    4  A    between atoms: C_13  and  C_29
REMARK    5  A    between atoms: N_14  and  C_28
REMARK    6  A    between atoms: C_17  and  C_27
REMARK    7  A    between atoms: C_21  and  C_26
REMARK    8  A    between atoms: C_23  and  C_25
REMARK    9  A    between atoms: C_29  and  C_30
REMARK   10  A    between atoms: C_43  and  O_46
REMARK                            x       y       z     vdW  Elec       q    Type
REMARK                         _______ _______ _______ _____ _____    ______ ____
ROOT
ATOM      1  C   UNL     1     146.750 168.949 186.504  0.00  0.00    -0.022 C 
ATOM      2  C   UNL     1     145.918 168.033 185.577  0.00  0.00    -0.010 C 
ATOM      3  C   UNL     1     146.564 166.651 185.374  0.00  0.00    +0.101 C 
ATOM      4  O   UNL     1     146.132 165.806 186.464  0.00  0.00    -0.462 OA
ATOM      5  C   UNL     1     146.928 164.741 186.763  0.00  0.00    +0.309 C 
ATOM      6  O   UNL     1     148.015 164.506 186.256  0.00  0.00    -0.251 OA
ATOM      7  C   UNL     1     146.211 163.811 187.707  0.00  0.00    +0.067 C 
ATOM      8  C   UNL     1     147.091 163.399 188.891  0.00  0.00    +0.058 C 
ATOM      9  N   UNL     1     146.941 164.335 189.996  0.00  0.00    -0.306 N 
ATOM     10  C   UNL     1     147.938 165.188 190.423  0.00  0.00    +0.234 C 
ATOM     11  O   UNL     1     149.078 165.148 189.968  0.00  0.00    -0.274 OA
ATOM     12  C   UNL     1     147.538 166.040 191.656  0.00  0.00    +0.106 C 
ATOM     13  N   UNL     1     146.076 166.335 191.700  0.00  0.00    -0.291 N 
ATOM     14  C   UNL     1     145.538 167.095 190.666  0.00  0.00    +0.236 C 
ATOM     15  O   UNL     1     146.198 167.318 189.645  0.00  0.00    -0.274 OA
ATOM     16  C   UNL     1     144.078 167.587 190.751  0.00  0.00    +0.097 C 
ATOM     17  N   UNL     1     143.947 168.723 189.839  0.00  0.00    -0.304 N 
ATOM     18  C   UNL     1     143.662 170.002 190.249  0.00  0.00    +0.217 C 
ATOM     19  O   UNL     1     143.460 170.295 191.424  0.00  0.00    -0.275 OA
ATOM     20  C   UNL     1     143.607 171.020 189.109  0.00  0.00    +0.036 C 
ATOM     21  C   UNL     1     144.995 171.620 188.813  0.00  0.00    -0.021 C 
ATOM     22  C   UNL     1     146.020 170.628 188.294  0.00  0.00    -0.076 C 
ATOM     23  C   UNL     1     145.868 170.035 187.091  0.00  0.00    -0.082 C 
ATOM     24  H   UNL     1     147.154 168.331 187.314  0.00  0.00    +0.034 HD
ATOM     25  H   UNL     1     145.788 168.537 184.610  0.00  0.00    +0.031 HD
ATOM     26  H   UNL     1     144.916 167.892 186.003  0.00  0.00    +0.031 HD
ATOM     27  H   UNL     1     147.656 166.732 185.354  0.00  0.00    +0.073 HD
ATOM     28  H   UNL     1     145.281 164.279 188.054  0.00  0.00    +0.040 HD
ATOM     29  H   UNL     1     145.923 162.944 187.097  0.00  0.00    +0.040 HD
ATOM     30  H   UNL     1     148.141 163.388 188.577  0.00  0.00    +0.055 HD
ATOM     31  H   UNL     1     146.056 164.381 190.481  0.00  0.00    +0.149 HD
ATOM     32  H   UNL     1     147.740 165.366 192.501  0.00  0.00    +0.060 HD
ATOM     33  H   UNL     1     143.856 167.921 191.768  0.00  0.00    +0.059 HD
ATOM     34  H   UNL     1     144.329 168.592 188.906  0.00  0.00    +0.149 HD
ATOM     35  H   UNL     1     143.219 170.513 188.215  0.00  0.00    +0.039 HD
ATOM     36  H   UNL     1     145.381 172.103 189.721  0.00  0.00    +0.032 HD
ATOM     37  H   UNL     1     144.896 172.424 188.071  0.00  0.00    +0.032 HD
ATOM     38  H   UNL     1     145.019 170.330 186.475  0.00  0.00    +0.057 HD
ENDROOT
BRANCH   8  39
ATOM     39  C   UNL     1     146.731 162.015 189.417  0.00  0.00    -0.026 A 
ATOM     40  C   UNL     1     147.601 161.280 190.241  0.00  0.00    -0.053 A 
ATOM     41  C   UNL     1     147.253 160.003 190.684  0.00  0.00    -0.020 A 
ATOM     42  C   UNL     1     146.039 159.448 190.299  0.00  0.00    +0.117 A 
ATOM     43  C   UNL     1     145.166 160.147 189.474  0.00  0.00    -0.020 A 
ATOM     44  C   UNL     1     145.515 161.426 189.031  0.00  0.00    -0.053 A 
ATOM     45  H   UNL     1     148.560 161.693 190.548  0.00  0.00    +0.062 HD
ATOM     46  H   UNL     1     147.925 159.442 191.326  0.00  0.00    +0.065 HD
ATOM     47  H   UNL     1     144.218 159.720 189.162  0.00  0.00    +0.065 HD
ATOM     48  H   UNL     1     144.832 161.963 188.374  0.00  0.00    +0.062 HD
BRANCH  42  49
ATOM     49  O   UNL     1     145.739 158.199 190.755  0.00  0.00    -0.507 OA
ATOM     50  H   UNL     1     146.286 157.555 190.275  0.00  0.00    +0.292 HD
ENDBRANCH  42  49
ENDBRANCH   8  39
BRANCH   1  51
ATOM     51  C   UNL     1     147.915 169.586 185.739  0.00  0.00    -0.059 C 
ATOM     52  H   UNL     1     147.552 170.194 184.902  0.00  0.00    +0.024 HD
ATOM     53  H   UNL     1     148.589 168.825 185.329  0.00  0.00    +0.024 HD
ATOM     54  H   UNL     1     148.505 170.242 186.386  0.00  0.00    +0.024 HD
ENDBRANCH   1  51
BRANCH  22  55
ATOM     55  C   UNL     1     147.187 170.394 189.217  0.00  0.00    -0.044 C 
ATOM     56  H   UNL     1     146.921 170.416 190.276  0.00  0.00    +0.027 HD
ATOM     57  H   UNL     1     147.628 169.412 189.016  0.00  0.00    +0.027 HD
ATOM     58  H   UNL     1     147.954 171.152 189.051  0.00  0.00    +0.027 HD
ENDBRANCH  22  55
BRANCH  20  59
ATOM     59  C   UNL     1     142.623 172.137 189.465  0.00  0.00    -0.054 C 
ATOM     60  H   UNL     1     141.954 171.839 190.280  0.00  0.00    +0.024 HD
ATOM     61  H   UNL     1     141.998 172.394 188.601  0.00  0.00    +0.024 HD
ATOM     62  H   UNL     1     143.157 173.041 189.775  0.00  0.00    +0.024 HD
ENDBRANCH  20  59
BRANCH  16  63
ATOM     63  C   UNL     1     143.129 166.477 190.318  0.00  0.00    -0.038 C 
ATOM     64  H   UNL     1     143.661 165.544 190.109  0.00  0.00    +0.025 HD
ATOM     65  H   UNL     1     142.385 166.279 191.096  0.00  0.00    +0.025 HD
ATOM     66  H   UNL     1     142.589 166.753 189.405  0.00  0.00    +0.025 HD
ENDBRANCH  16  63
BRANCH  13  67
ATOM     67  C   UNL     1     145.376 165.965 192.925  0.00  0.00    +0.004 C 
ATOM     68  H   UNL     1     144.878 166.807 193.400  0.00  0.00    +0.043 HD
ATOM     69  H   UNL     1     144.621 165.213 192.677  0.00  0.00    +0.043 HD
ATOM     70  H   UNL     1     146.089 165.537 193.632  0.00  0.00    +0.043 HD
ENDBRANCH  13  67
BRANCH   3  71
ATOM     71  C   UNL     1     146.071 166.024 184.070  0.00  0.00    -0.028 C 
ATOM     72  H   UNL     1     146.757 166.246 183.246  0.00  0.00    +0.027 HD
ATOM     73  H   UNL     1     145.080 166.399 183.801  0.00  0.00    +0.027 HD
ATOM     74  H   UNL     1     146.025 164.933 184.154  0.00  0.00    +0.027 HD
ENDBRANCH   3  71
BRANCH  12  75
ATOM     75  C   UNL     1     148.431 167.290 191.803  0.00  0.00    +0.003 C 
ATOM     76  H   UNL     1     147.877 168.119 192.256  0.00  0.00    +0.034 HD
ATOM     77  H   UNL     1     148.739 167.661 190.818  0.00  0.00    +0.034 HD
BRANCH  75  78
ATOM     78  C   UNL     1     149.674 167.027 192.612  0.00  0.00    -0.006 A 
ATOM     79  C   UNL     1     150.983 167.162 192.199  0.00  0.00    +0.087 A 
ATOM     80  N   UNL     1     151.815 166.837 193.228  0.00  0.00    -0.349 N 
ATOM     81  C   UNL     1     151.082 166.455 194.324  0.00  0.00    +0.048 A 
ATOM     82  C   UNL     1     151.506 166.020 195.586  0.00  0.00    -0.038 A 
ATOM     83  C   UNL     1     150.523 165.686 196.522  0.00  0.00    -0.060 A 
ATOM     84  C   UNL     1     149.172 165.788 196.206  0.00  0.00    -0.061 A 
ATOM     85  C   UNL     1     148.768 166.232 194.943  0.00  0.00    -0.052 A 
ATOM     86  C   UNL     1     149.735 166.572 193.974  0.00  0.00    +0.004 A 
ATOM     87 BR   UNL     1     151.599 167.705 190.483  0.00  0.00    -0.031 Br
ATOM     88  H   UNL     1     152.824 166.864 193.185  0.00  0.00    +0.166 HD
ATOM     89  H   UNL     1     152.559 165.940 195.836  0.00  0.00    +0.064 HD
ATOM     90  H   UNL     1     150.818 165.341 197.511  0.00  0.00    +0.062 HD
ATOM     91  H   UNL     1     148.416 165.519 196.943  0.00  0.00    +0.062 HD
ATOM     92  H   UNL     1     147.709 166.302 194.721  0.00  0.00    +0.062 HD
ENDBRANCH  75  78
ENDBRANCH  12  75
TORSDOF 10
ENDMDL
MODEL 5
REMARK VINA RESULT:      -6.5      1.143      2.016
REMARK  Name = Jasplakinolide_conf3
REMARK  10 active torsions:
REMARK  status: ('A' for Active; 'I' for Inactive)
REMARK    1  A    between atoms: C_1  and  C_2
REMARK    2  A    between atoms: C_4  and  C_47
REMARK    3  A    between atoms: C_9  and  C_40
REMARK    4  A    between atoms: C_13  and  C_29
REMARK    5  A    between atoms: N_14  and  C_28
REMARK    6  A    between atoms: C_17  and  C_27
REMARK    7  A    between atoms: C_21  and  C_26
REMARK    8  A    between atoms: C_23  and  C_25
REMARK    9  A    between atoms: C_29  and  C_30
REMARK   10  A    between atoms: C_43  and  O_46
REMARK                            x       y       z     vdW  Elec       q    Type
REMARK                         _______ _______ _______ _____ _____    ______ ____
ROOT
ATOM      1  C   UNL     1     150.565 170.098 191.886  0.00  0.00    -0.022 C 
ATOM      2  C   UNL     1     149.696 170.981 192.812  0.00  0.00    -0.010 C 
ATOM      3  C   UNL     1     148.669 171.822 192.035  0.00  0.00    +0.101 C 
ATOM      4  O   UNL     1     147.492 171.005 191.845  0.00  0.00    -0.462 OA
ATOM      5  C   UNL     1     146.679 171.338 190.803  0.00  0.00    +0.309 C 
ATOM      6  O   UNL     1     146.916 172.198 189.969  0.00  0.00    -0.251 OA
ATOM      7  C   UNL     1     145.374 170.592 190.910  0.00  0.00    +0.067 C 
ATOM      8  C   UNL     1     144.971 169.941 189.583  0.00  0.00    +0.058 C 
ATOM      9  N   UNL     1     145.518 168.597 189.480  0.00  0.00    -0.306 N 
ATOM     10  C   UNL     1     146.500 168.231 188.583  0.00  0.00    +0.234 C 
ATOM     11  O   UNL     1     146.920 168.995 187.718  0.00  0.00    -0.274 OA
ATOM     12  C   UNL     1     146.862 166.724 188.641  0.00  0.00    +0.106 C 
ATOM     13  N   UNL     1     146.680 166.141 190.003  0.00  0.00    -0.291 N 
ATOM     14  C   UNL     1     147.471 166.645 191.032  0.00  0.00    +0.236 C 
ATOM     15  O   UNL     1     148.126 167.679 190.868  0.00  0.00    -0.274 OA
ATOM     16  C   UNL     1     147.462 165.960 192.414  0.00  0.00    +0.097 C 
ATOM     17  N   UNL     1     148.692 166.351 193.103  0.00  0.00    -0.304 N 
ATOM     18  C   UNL     1     149.683 165.468 193.454  0.00  0.00    +0.217 C 
ATOM     19  O   UNL     1     149.604 164.261 193.245  0.00  0.00    -0.275 OA
ATOM     20  C   UNL     1     150.883 166.126 194.138  0.00  0.00    +0.036 C 
ATOM     21  C   UNL     1     151.928 166.608 193.114  0.00  0.00    -0.021 C 
ATOM     22  C   UNL     1     151.452 167.716 192.191  0.00  0.00    -0.076 C 
ATOM     23  C   UNL     1     151.154 168.941 192.671  0.00  0.00    -0.082 C 
ATOM     24  H   UNL     1     149.919 169.706 191.091  0.00  0.00    +0.034 HD
ATOM     25  H   UNL     1     150.358 171.633 193.397  0.00  0.00    +0.031 HD
ATOM     26  H   UNL     1     149.158 170.344 193.528  0.00  0.00    +0.031 HD
ATOM     27  H   UNL     1     149.079 172.144 191.072  0.00  0.00    +0.073 HD
ATOM     28  H   UNL     1     145.439 169.843 191.709  0.00  0.00    +0.040 HD
ATOM     29  H   UNL     1     144.638 171.340 191.233  0.00  0.00    +0.040 HD
ATOM     30  H   UNL     1     145.356 170.544 188.751  0.00  0.00    +0.055 HD
ATOM     31  H   UNL     1     145.173 167.879 190.104  0.00  0.00    +0.149 HD
ATOM     32  H   UNL     1     146.096 166.258 188.005  0.00  0.00    +0.060 HD
ATOM     33  H   UNL     1     147.453 164.874 192.293  0.00  0.00    +0.059 HD
ATOM     34  H   UNL     1     148.914 167.343 193.087  0.00  0.00    +0.149 HD
ATOM     35  H   UNL     1     150.517 166.975 194.730  0.00  0.00    +0.039 HD
ATOM     36  H   UNL     1     152.267 165.753 192.513  0.00  0.00    +0.032 HD
ATOM     37  H   UNL     1     152.821 166.969 193.643  0.00  0.00    +0.032 HD
ATOM     38  H   UNL     1     151.320 169.134 193.731  0.00  0.00    +0.057 HD
ENDROOT
BRANCH   8  39
ATOM     39  C   UNL     1     143.458 169.830 189.437  0.00  0.00    -0.026 A 
ATOM     40  C   UNL     1     142.580 170.182 190.477  0.00  0.00    -0.053 A 
ATOM     41  C   UNL     1     141.200 170.043 190.320  0.00  0.00    -0.020 A 
ATOM     42  C   UNL     1     140.689 169.544 189.129  0.00  0.00    +0.117 A 
ATOM     43  C   UNL     1     141.536 169.176 188.090  0.00  0.00    -0.020 A 
ATOM     44  C   UNL     1     142.917 169.315 188.247  0.00  0.00    -0.053 A 
ATOM     45  H   UNL     1     142.960 170.567 191.421  0.00  0.00    +0.062 HD
ATOM     46  H   UNL     1     140.525 170.322 191.124  0.00  0.00    +0.065 HD
ATOM     47  H   UNL     1     141.147 168.780 187.157  0.00  0.00    +0.065 HD
ATOM     48  H   UNL     1     143.575 169.014 187.432  0.00  0.00    +0.062 HD
BRANCH  42  49
ATOM     49  O   UNL     1     139.336 169.426 189.019  0.00  0.00    -0.507 OA
ATOM     50  H   UNL     1     138.937 169.626 189.882  0.00  0.00    +0.292 HD
ENDBRANCH  42  49
ENDBRANCH   8  39
BRANCH   1  51
ATOM     51  C   UNL     1     151.691 170.919 191.249  0.00  0.00    -0.059 C 
ATOM     52  H   UNL     1     151.353 171.402 190.325  0.00  0.00    +0.024 HD
ATOM     53  H   UNL     1     152.554 170.290 190.999  0.00  0.00    +0.024 HD
ATOM     54  H   UNL     1     152.036 171.709 191.922  0.00  0.00    +0.024 HD
ENDBRANCH   1  51
BRANCH  22  55
ATOM     55  C   UNL     1     151.363 167.326 190.739  0.00  0.00    -0.044 C 
ATOM     56  H   UNL     1     150.812 168.042 190.125  0.00  0.00    +0.027 HD
ATOM     57  H   UNL     1     152.369 167.244 190.314  0.00  0.00    +0.027 HD
ATOM     58  H   UNL     1     150.871 166.357 190.642  0.00  0.00    +0.027 HD
ENDBRANCH  22  55
BRANCH  20  59
ATOM     59  C   UNL     1     151.527 165.134 195.109  0.00  0.00    -0.054 C 
ATOM     60  H   UNL     1     152.588 165.358 195.268  0.00  0.00    +0.024 HD
ATOM     61  H   UNL     1     151.458 164.111 194.722  0.00  0.00    +0.024 HD
ATOM     62  H   UNL     1     151.024 165.160 196.082  0.00  0.00    +0.024 HD
ENDBRANCH  20  59
BRANCH  16  63
ATOM     63  C   UNL     1     146.258 166.432 193.220  0.00  0.00    -0.038 C 
ATOM     64  H   UNL     1     146.540 167.156 193.990  0.00  0.00    +0.025 HD
ATOM     65  H   UNL     1     145.515 166.902 192.566  0.00  0.00    +0.025 HD
ATOM     66  H   UNL     1     145.768 165.593 193.728  0.00  0.00    +0.025 HD
ENDBRANCH  16  63
BRANCH  13  67
ATOM     67  C   UNL     1     145.828 164.962 190.096  0.00  0.00    +0.004 C 
ATOM     68  H   UNL     1     146.388 164.030 190.066  0.00  0.00    +0.043 HD
ATOM     69  H   UNL     1     145.281 165.005 191.042  0.00  0.00    +0.043 HD
ATOM     70  H   UNL     1     145.114 164.967 189.269  0.00  0.00    +0.043 HD
ENDBRANCH  13  67
BRANCH   3  71
ATOM     71  C   UNL     1     148.261 173.046 192.855  0.00  0.00    -0.028 C 
ATOM     72  H   UNL     1     148.661 172.986 193.872  0.00  0.00    +0.027 HD
ATOM     73  H   UNL     1     147.173 173.136 192.919  0.00  0.00    +0.027 HD
ATOM     74  H   UNL     1     148.665 173.964 192.413  0.00  0.00    +0.027 HD
ENDBRANCH   3  71
BRANCH  12  75
ATOM     75  C   UNL     1     148.248 166.443 188.022  0.00  0.00    +0.003 C 
ATOM     76  H   UNL     1     149.045 166.592 188.758  0.00  0.00    +0.034 HD
ATOM     77  H   UNL     1     148.464 167.160 187.222  0.00  0.00    +0.034 HD
BRANCH  75  78
ATOM     78  C   UNL     1     148.360 165.054 187.448  0.00  0.00    -0.006 A 
ATOM     79  C   UNL     1     148.969 163.960 188.026  0.00  0.00    +0.087 A 
ATOM     80  N   UNL     1     148.848 162.887 187.194  0.00  0.00    -0.349 N 
ATOM     81  C   UNL     1     148.190 163.253 186.045  0.00  0.00    +0.048 A 
ATOM     82  C   UNL     1     147.864 162.498 184.912  0.00  0.00    -0.038 A 
ATOM     83  C   UNL     1     147.186 163.143 183.875  0.00  0.00    -0.060 A 
ATOM     84  C   UNL     1     146.845 164.488 183.971  0.00  0.00    -0.061 A 
ATOM     85  C   UNL     1     147.172 165.225 185.115  0.00  0.00    -0.052 A 
ATOM     86  C   UNL     1     147.862 164.605 186.178  0.00  0.00    +0.004 A 
ATOM     87 BR   UNL     1     149.855 163.888 189.707  0.00  0.00    -0.031 Br
ATOM     88  H   UNL     1     149.202 161.962 187.390  0.00  0.00    +0.166 HD
ATOM     89  H   UNL     1     148.127 161.448 184.834  0.00  0.00    +0.064 HD
ATOM     90  H   UNL     1     146.919 162.586 182.978  0.00  0.00    +0.062 HD
ATOM     91  H   UNL     1     146.321 164.981 183.154  0.00  0.00    +0.062 HD
ATOM     92  H   UNL     1     146.897 166.273 185.165  0.00  0.00    +0.062 HD
ENDBRANCH  75  78
ENDBRANCH  12  75
TORSDOF 10
ENDMDL
MODEL 6
REMARK VINA RESULT:      -6.5      5.398      9.797
REMARK  Name = Jasplakinolide_conf3
REMARK  10 active torsions:
REMARK  status: ('A' for Active; 'I' for Inactive)
REMARK    1  A    between atoms: C_1  and  C_2
REMARK    2  A    between atoms: C_4  and  C_47
REMARK    3  A    between atoms: C_9  and  C_40
REMARK    4  A    between atoms: C_13  and  C_29
REMARK    5  A    between atoms: N_14  and  C_28
REMARK    6  A    between atoms: C_17  and  C_27
REMARK    7  A    between atoms: C_21  and  C_26
REMARK    8  A    between atoms: C_23  and  C_25
REMARK    9  A    between atoms: C_29  and  C_30
REMARK   10  A    between atoms: C_43  and  O_46
REMARK                            x       y       z     vdW  Elec       q    Type
REMARK                         _______ _______ _______ _____ _____    ______ ____
ROOT
ATOM      1  C   UNL     1     139.228 170.686 189.745  0.00  0.00    -0.022 C 
ATOM      2  C   UNL     1     138.261 171.655 189.026  0.00  0.00    -0.010 C 
ATOM      3  C   UNL     1     138.216 173.044 189.685  0.00  0.00    +0.101 C 
ATOM      4  O   UNL     1     139.292 173.828 189.121  0.00  0.00    -0.462 OA
ATOM      5  C   UNL     1     139.744 174.873 189.870  0.00  0.00    +0.309 C 
ATOM      6  O   UNL     1     139.385 175.133 191.009  0.00  0.00    -0.251 OA
ATOM      7  C   UNL     1     140.646 175.749 189.041  0.00  0.00    +0.067 C 
ATOM      8  C   UNL     1     141.949 176.091 189.770  0.00  0.00    +0.058 C 
ATOM      9  N   UNL     1     142.973 175.094 189.494  0.00  0.00    -0.306 N 
ATOM     10  C   UNL     1     143.467 174.217 190.437  0.00  0.00    +0.234 C 
ATOM     11  O   UNL     1     143.156 174.280 191.623  0.00  0.00    -0.274 OA
ATOM     12  C   UNL     1     144.593 173.297 189.896  0.00  0.00    +0.106 C 
ATOM     13  N   UNL     1     144.445 173.002 188.440  0.00  0.00    -0.291 N 
ATOM     14  C   UNL     1     143.313 172.304 188.034  0.00  0.00    +0.236 C 
ATOM     15  O   UNL     1     142.368 172.137 188.813  0.00  0.00    -0.274 OA
ATOM     16  C   UNL     1     143.195 171.810 186.577  0.00  0.00    +0.097 C 
ATOM     17  N   UNL     1     142.210 170.728 186.562  0.00  0.00    -0.304 N 
ATOM     18  C   UNL     1     142.511 169.428 186.236  0.00  0.00    +0.217 C 
ATOM     19  O   UNL     1     143.634 169.070 185.897  0.00  0.00    -0.275 OA
ATOM     20  C   UNL     1     141.316 168.477 186.323  0.00  0.00    +0.036 C 
ATOM     21  C   UNL     1     141.155 167.892 187.739  0.00  0.00    -0.021 C 
ATOM     22  C   UNL     1     140.820 168.909 188.814  0.00  0.00    -0.076 C 
ATOM     23  C   UNL     1     139.643 169.570 188.805  0.00  0.00    -0.082 C 
ATOM     24  H   UNL     1     140.114 171.256 190.046  0.00  0.00    +0.034 HD
ATOM     25  H   UNL     1     137.259 171.206 189.015  0.00  0.00    +0.031 HD
ATOM     26  H   UNL     1     138.571 171.774 187.979  0.00  0.00    +0.031 HD
ATOM     27  H   UNL     1     138.323 172.963 190.772  0.00  0.00    +0.073 HD
ATOM     28  H   UNL     1     140.852 175.263 188.078  0.00  0.00    +0.040 HD
ATOM     29  H   UNL     1     140.056 176.649 188.824  0.00  0.00    +0.040 HD
ATOM     30  H   UNL     1     141.764 176.118 190.851  0.00  0.00    +0.055 HD
ATOM     31  H   UNL     1     143.346 175.022 188.557  0.00  0.00    +0.149 HD
ATOM     32  H   UNL     1     145.493 173.921 189.992  0.00  0.00    +0.060 HD
ATOM     33  H   UNL     1     144.157 171.420 186.236  0.00  0.00    +0.059 HD
ATOM     34  H   UNL     1     141.339 170.911 187.052  0.00  0.00    +0.149 HD
ATOM     35  H   UNL     1     140.413 169.034 186.042  0.00  0.00    +0.039 HD
ATOM     36  H   UNL     1     142.074 167.358 188.016  0.00  0.00    +0.032 HD
ATOM     37  H   UNL     1     140.362 167.131 187.734  0.00  0.00    +0.032 HD
ATOM     38  H   UNL     1     138.914 169.312 188.037  0.00  0.00    +0.057 HD
ENDROOT
BRANCH   8  39
ATOM     39  C   UNL     1     142.505 177.444 189.344  0.00  0.00    -0.026 A 
ATOM     40  C   UNL     1     142.414 177.904 188.018  0.00  0.00    -0.053 A 
ATOM     41  C   UNL     1     142.957 179.137 187.654  0.00  0.00    -0.020 A 
ATOM     42  C   UNL     1     143.602 179.914 188.608  0.00  0.00    +0.117 A 
ATOM     43  C   UNL     1     143.717 179.477 189.923  0.00  0.00    -0.020 A 
ATOM     44  C   UNL     1     143.173 178.243 190.287  0.00  0.00    -0.053 A 
ATOM     45  H   UNL     1     141.921 177.307 187.254  0.00  0.00    +0.062 HD
ATOM     46  H   UNL     1     142.879 179.491 186.631  0.00  0.00    +0.065 HD
ATOM     47  H   UNL     1     144.224 180.074 190.675  0.00  0.00    +0.065 HD
ATOM     48  H   UNL     1     143.278 177.901 191.316  0.00  0.00    +0.062 HD
BRANCH  42  49
ATOM     49  O   UNL     1     144.116 181.112 188.209  0.00  0.00    -0.507 OA
ATOM     50  H   UNL     1     143.396 181.650 187.842  0.00  0.00    +0.292 HD
ENDBRANCH  42  49
ENDBRANCH   8  39
BRANCH   1  51
ATOM     51  C   UNL     1     138.573 170.091 190.997  0.00  0.00    -0.059 C 
ATOM     52  H   UNL     1     137.554 170.472 191.127  0.00  0.00    +0.024 HD
ATOM     53  H   UNL     1     139.139 170.340 191.902  0.00  0.00    +0.024 HD
ATOM     54  H   UNL     1     138.508 169.001 190.931  0.00  0.00    +0.024 HD
ENDBRANCH   1  51
BRANCH  22  55
ATOM     55  C   UNL     1     141.888 169.089 189.861  0.00  0.00    -0.044 C 
ATOM     56  H   UNL     1     141.626 168.666 190.834  0.00  0.00    +0.027 HD
ATOM     57  H   UNL     1     142.812 168.602 189.536  0.00  0.00    +0.027 HD
ATOM     58  H   UNL     1     142.094 170.151 190.006  0.00  0.00    +0.027 HD
ENDBRANCH  22  55
BRANCH  20  59
ATOM     59  C   UNL     1     141.487 167.343 185.309  0.00  0.00    -0.054 C 
ATOM     60  H   UNL     1     140.569 166.754 185.204  0.00  0.00    +0.024 HD
ATOM     61  H   UNL     1     142.285 166.660 185.622  0.00  0.00    +0.024 HD
ATOM     62  H   UNL     1     141.751 167.740 184.323  0.00  0.00    +0.024 HD
ENDBRANCH  20  59
BRANCH  16  63
ATOM     63  C   UNL     1     142.714 172.945 185.682  0.00  0.00    -0.038 C 
ATOM     64  H   UNL     1     143.461 173.217 184.930  0.00  0.00    +0.025 HD
ATOM     65  H   UNL     1     141.793 172.663 185.161  0.00  0.00    +0.025 HD
ATOM     66  H   UNL     1     142.500 173.847 186.267  0.00  0.00    +0.025 HD
ENDBRANCH  16  63
BRANCH  13  67
ATOM     67  C   UNL     1     145.596 173.304 187.597  0.00  0.00    +0.004 C 
ATOM     68  H   UNL     1     146.386 173.830 188.130  0.00  0.00    +0.043 HD
ATOM     69  H   UNL     1     146.005 172.362 187.221  0.00  0.00    +0.043 HD
ATOM     70  H   UNL     1     145.275 173.919 186.754  0.00  0.00    +0.043 HD
ENDBRANCH  13  67
BRANCH   3  71
ATOM     71  C   UNL     1     136.900 173.745 189.349  0.00  0.00    -0.028 C 
ATOM     72  H   UNL     1     136.421 173.282 188.480  0.00  0.00    +0.027 HD
ATOM     73  H   UNL     1     137.060 174.805 189.128  0.00  0.00    +0.027 HD
ATOM     74  H   UNL     1     136.190 173.662 190.179  0.00  0.00    +0.027 HD
ENDBRANCH   3  71
BRANCH  12  75
ATOM     75  C   UNL     1     144.776 172.038 190.771  0.00  0.00    +0.003 C 
ATOM     76  H   UNL     1     144.253 171.179 190.339  0.00  0.00    +0.034 HD
ATOM     77  H   UNL     1     144.314 172.184 191.755  0.00  0.00    +0.034 HD
BRANCH  75  78
ATOM     78  C   UNL     1     146.223 171.680 190.983  0.00  0.00    -0.006 A 
ATOM     79  C   UNL     1     146.963 170.749 190.284  0.00  0.00    +0.087 A 
ATOM     80  N   UNL     1     148.235 170.727 190.773  0.00  0.00    -0.349 N 
ATOM     81  C   UNL     1     148.355 171.612 191.816  0.00  0.00    +0.048 A 
ATOM     82  C   UNL     1     149.458 171.907 192.627  0.00  0.00    -0.038 A 
ATOM     83  C   UNL     1     149.287 172.862 193.632  0.00  0.00    -0.060 A 
ATOM     84  C   UNL     1     148.064 173.499 193.813  0.00  0.00    -0.061 A 
ATOM     85  C   UNL     1     146.975 173.197 192.988  0.00  0.00    -0.052 A 
ATOM     86  C   UNL     1     147.113 172.233 191.967  0.00  0.00    +0.004 A 
ATOM     87 BR   UNL     1     146.367 169.638 188.859  0.00  0.00    -0.031 Br
ATOM     88  H   UNL     1     148.977 170.137 190.425  0.00  0.00    +0.166 HD
ATOM     89  H   UNL     1     150.414 171.413 192.488  0.00  0.00    +0.064 HD
ATOM     90  H   UNL     1     150.123 173.113 194.283  0.00  0.00    +0.062 HD
ATOM     91  H   UNL     1     147.942 174.238 194.604  0.00  0.00    +0.062 HD
ATOM     92  H   UNL     1     146.032 173.706 193.150  0.00  0.00    +0.062 HD
ENDBRANCH  75  78
ENDBRANCH  12  75
TORSDOF 10
ENDMDL
MODEL 7
REMARK VINA RESULT:      -6.4      3.164      6.349
REMARK  Name = Jasplakinolide_conf3
REMARK  10 active torsions:
REMARK  status: ('A' for Active; 'I' for Inactive)
REMARK    1  A    between atoms: C_1  and  C_2
REMARK    2  A    between atoms: C_4  and  C_47
REMARK    3  A    between atoms: C_9  and  C_40
REMARK    4  A    between atoms: C_13  and  C_29
REMARK    5  A    between atoms: N_14  and  C_28
REMARK    6  A    between atoms: C_17  and  C_27
REMARK    7  A    between atoms: C_21  and  C_26
REMARK    8  A    between atoms: C_23  and  C_25
REMARK    9  A    between atoms: C_29  and  C_30
REMARK   10  A    between atoms: C_43  and  O_46
REMARK                            x       y       z     vdW  Elec       q    Type
REMARK                         _______ _______ _______ _____ _____    ______ ____
ROOT
ATOM      1  C   UNL     1     151.015 163.575 189.625  0.00  0.00    -0.022 C 
ATOM      2  C   UNL     1     152.103 164.304 188.802  0.00  0.00    -0.010 C 
ATOM      3  C   UNL     1     151.690 164.522 187.336  0.00  0.00    +0.101 C 
ATOM      4  O   UNL     1     150.934 165.752 187.276  0.00  0.00    -0.462 OA
ATOM      5  C   UNL     1     150.078 165.892 186.224  0.00  0.00    +0.309 C 
ATOM      6  O   UNL     1     149.829 165.029 185.396  0.00  0.00    -0.251 OA
ATOM      7  C   UNL     1     149.590 167.315 186.143  0.00  0.00    +0.067 C 
ATOM      8  C   UNL     1     148.070 167.395 185.971  0.00  0.00    +0.058 C 
ATOM      9  N   UNL     1     147.405 167.437 187.265  0.00  0.00    -0.306 N 
ATOM     10  C   UNL     1     146.617 166.419 187.759  0.00  0.00    +0.234 C 
ATOM     11  O   UNL     1     146.323 165.430 187.091  0.00  0.00    -0.274 OA
ATOM     12  C   UNL     1     145.979 166.741 189.136  0.00  0.00    +0.106 C 
ATOM     13  N   UNL     1     146.826 167.652 189.961  0.00  0.00    -0.291 N 
ATOM     14  C   UNL     1     148.080 167.193 190.350  0.00  0.00    +0.236 C 
ATOM     15  O   UNL     1     148.557 166.172 189.843  0.00  0.00    -0.274 OA
ATOM     16  C   UNL     1     148.921 168.009 191.354  0.00  0.00    +0.097 C 
ATOM     17  N   UNL     1     149.900 167.097 191.944  0.00  0.00    -0.304 N 
ATOM     18  C   UNL     1     149.923 166.761 193.276  0.00  0.00    +0.217 C 
ATOM     19  O   UNL     1     149.136 167.227 194.093  0.00  0.00    -0.275 OA
ATOM     20  C   UNL     1     151.026 165.766 193.644  0.00  0.00    +0.036 C 
ATOM     21  C   UNL     1     150.558 164.308 193.472  0.00  0.00    -0.021 C 
ATOM     22  C   UNL     1     150.241 163.905 192.043  0.00  0.00    -0.076 C 
ATOM     23  C   UNL     1     151.209 163.850 191.104  0.00  0.00    -0.082 C 
ATOM     24  H   UNL     1     150.039 163.960 189.308  0.00  0.00    +0.034 HD
ATOM     25  H   UNL     1     153.031 163.721 188.853  0.00  0.00    +0.031 HD
ATOM     26  H   UNL     1     152.313 165.282 189.256  0.00  0.00    +0.031 HD
ATOM     27  H   UNL     1     151.092 163.679 186.971  0.00  0.00    +0.073 HD
ATOM     28  H   UNL     1     149.913 167.869 187.034  0.00  0.00    +0.040 HD
ATOM     29  H   UNL     1     150.118 167.754 185.286  0.00  0.00    +0.040 HD
ATOM     30  H   UNL     1     147.720 166.513 185.422  0.00  0.00    +0.055 HD
ATOM     31  H   UNL     1     147.528 168.251 187.852  0.00  0.00    +0.149 HD
ATOM     32  H   UNL     1     145.082 167.317 188.867  0.00  0.00    +0.060 HD
ATOM     33  H   UNL     1     148.279 168.402 192.145  0.00  0.00    +0.059 HD
ATOM     34  H   UNL     1     150.413 166.511 191.292  0.00  0.00    +0.149 HD
ATOM     35  H   UNL     1     151.893 165.961 192.999  0.00  0.00    +0.039 HD
ATOM     36  H   UNL     1     149.677 164.135 194.104  0.00  0.00    +0.032 HD
ATOM     37  H   UNL     1     151.332 163.628 193.851  0.00  0.00    +0.032 HD
ATOM     38  H   UNL     1     152.236 164.046 191.412  0.00  0.00    +0.057 HD
ENDROOT
BRANCH   8  39
ATOM     39  C   UNL     1     147.647 168.640 185.201  0.00  0.00    -0.026 A 
ATOM     40  C   UNL     1     147.951 169.936 185.654  0.00  0.00    -0.053 A 
ATOM     41  C   UNL     1     147.525 171.057 184.939  0.00  0.00    -0.020 A 
ATOM     42  C   UNL     1     146.787 170.892 183.774  0.00  0.00    +0.117 A 
ATOM     43  C   UNL     1     146.462 169.622 183.312  0.00  0.00    -0.020 A 
ATOM     44  C   UNL     1     146.887 168.500 184.028  0.00  0.00    -0.053 A 
ATOM     45  H   UNL     1     148.521 170.089 186.568  0.00  0.00    +0.062 HD
ATOM     46  H   UNL     1     147.768 172.057 185.288  0.00  0.00    +0.065 HD
ATOM     47  H   UNL     1     145.880 169.482 182.406  0.00  0.00    +0.065 HD
ATOM     48  H   UNL     1     146.619 167.508 183.666  0.00  0.00    +0.062 HD
BRANCH  42  49
ATOM     49  O   UNL     1     146.393 172.014 183.107  0.00  0.00    -0.507 OA
ATOM     50  H   UNL     1     145.423 172.063 183.133  0.00  0.00    +0.292 HD
ENDBRANCH  42  49
ENDBRANCH   8  39
BRANCH   1  51
ATOM     51  C   UNL     1     151.058 162.065 189.369  0.00  0.00    -0.059 C 
ATOM     52  H   UNL     1     152.058 161.747 189.052  0.00  0.00    +0.024 HD
ATOM     53  H   UNL     1     150.352 161.770 188.585  0.00  0.00    +0.024 HD
ATOM     54  H   UNL     1     150.810 161.501 190.273  0.00  0.00    +0.024 HD
ENDBRANCH   1  51
BRANCH  22  55
ATOM     55  C   UNL     1     148.793 163.572 191.793  0.00  0.00    -0.044 C 
ATOM     56  H   UNL     1     148.188 163.531 192.702  0.00  0.00    +0.027 HD
ATOM     57  H   UNL     1     148.345 164.329 191.141  0.00  0.00    +0.027 HD
ATOM     58  H   UNL     1     148.713 162.603 191.297  0.00  0.00    +0.027 HD
ENDBRANCH  22  55
BRANCH  20  59
ATOM     59  C   UNL     1     151.469 166.003 195.089  0.00  0.00    -0.054 C 
ATOM     60  H   UNL     1     150.689 166.505 195.672  0.00  0.00    +0.024 HD
ATOM     61  H   UNL     1     152.365 166.633 195.122  0.00  0.00    +0.024 HD
ATOM     62  H   UNL     1     151.706 165.055 195.583  0.00  0.00    +0.024 HD
ENDBRANCH  20  59
BRANCH  16  63
ATOM     63  C   UNL     1     149.649 169.134 190.627  0.00  0.00    -0.038 C 
ATOM     64  H   UNL     1     148.992 169.986 190.432  0.00  0.00    +0.025 HD
ATOM     65  H   UNL     1     150.501 169.487 191.218  0.00  0.00    +0.025 HD
ATOM     66  H   UNL     1     150.035 168.794 189.659  0.00  0.00    +0.025 HD
ENDBRANCH  16  63
BRANCH  13  67
ATOM     67  C   UNL     1     146.184 168.867 190.451  0.00  0.00    +0.004 C 
ATOM     68  H   UNL     1     146.094 169.636 189.687  0.00  0.00    +0.043 HD
ATOM     69  H   UNL     1     145.180 168.610 190.800  0.00  0.00    +0.043 HD
ATOM     70  H   UNL     1     146.763 169.270 191.284  0.00  0.00    +0.043 HD
ENDBRANCH  13  67
BRANCH   3  71
ATOM     71  C   UNL     1     152.930 164.690 186.458  0.00  0.00    -0.028 C 
ATOM     72  H   UNL     1     153.252 165.736 186.433  0.00  0.00    +0.027 HD
ATOM     73  H   UNL     1     152.735 164.367 185.431  0.00  0.00    +0.027 HD
ATOM     74  H   UNL     1     153.771 164.112 186.856  0.00  0.00    +0.027 HD
ENDBRANCH   3  71
BRANCH  12  75
ATOM     75  C   UNL     1     145.534 165.461 189.875  0.00  0.00    +0.003 C 
ATOM     76  H   UNL     1     146.199 165.243 190.719  0.00  0.00    +0.034 HD
ATOM     77  H   UNL     1     145.618 164.588 189.218  0.00  0.00    +0.034 HD
BRANCH  75  78
ATOM     78  C   UNL     1     144.115 165.538 190.372  0.00  0.00    -0.006 A 
ATOM     79  C   UNL     1     142.975 165.137 189.706  0.00  0.00    +0.087 A 
ATOM     80  N   UNL     1     141.889 165.364 190.498  0.00  0.00    -0.349 N 
ATOM     81  C   UNL     1     142.280 165.943 191.680  0.00  0.00    +0.048 A 
ATOM     82  C   UNL     1     141.514 166.368 192.773  0.00  0.00    -0.038 A 
ATOM     83  C   UNL     1     142.190 166.936 193.857  0.00  0.00    -0.060 A 
ATOM     84  C   UNL     1     143.574 167.067 193.847  0.00  0.00    -0.061 A 
ATOM     85  C   UNL     1     144.323 166.629 192.750  0.00  0.00    -0.052 A 
ATOM     86  C   UNL     1     143.672 166.056 191.637  0.00  0.00    +0.004 A 
ATOM     87 BR   UNL     1     142.863 164.385 187.963  0.00  0.00    -0.031 Br
ATOM     88  H   UNL     1     140.935 165.148 190.245  0.00  0.00    +0.166 HD
ATOM     89  H   UNL     1     140.434 166.266 192.785  0.00  0.00    +0.064 HD
ATOM     90  H   UNL     1     141.625 167.279 194.722  0.00  0.00    +0.062 HD
ATOM     91  H   UNL     1     144.088 167.516 194.696  0.00  0.00    +0.062 HD
ATOM     92  H   UNL     1     145.401 166.744 192.765  0.00  0.00    +0.062 HD
ENDBRANCH  75  78
ENDBRANCH  12  75
TORSDOF 10
ENDMDL
MODEL 8
REMARK VINA RESULT:      -6.4      4.812      8.846
REMARK  Name = Jasplakinolide_conf3
REMARK  10 active torsions:
REMARK  status: ('A' for Active; 'I' for Inactive)
REMARK    1  A    between atoms: C_1  and  C_2
REMARK    2  A    between atoms: C_4  and  C_47
REMARK    3  A    between atoms: C_9  and  C_40
REMARK    4  A    between atoms: C_13  and  C_29
REMARK    5  A    between atoms: N_14  and  C_28
REMARK    6  A    between atoms: C_17  and  C_27
REMARK    7  A    between atoms: C_21  and  C_26
REMARK    8  A    between atoms: C_23  and  C_25
REMARK    9  A    between atoms: C_29  and  C_30
REMARK   10  A    between atoms: C_43  and  O_46
REMARK                            x       y       z     vdW  Elec       q    Type
REMARK                         _______ _______ _______ _____ _____    ______ ____
ROOT
ATOM      1  C   UNL     1     145.150 167.422 186.730  0.00  0.00    -0.022 C 
ATOM      2  C   UNL     1     143.801 166.845 186.241  0.00  0.00    -0.010 C 
ATOM      3  C   UNL     1     142.818 166.578 187.394  0.00  0.00    +0.101 C 
ATOM      4  O   UNL     1     142.106 167.809 187.652  0.00  0.00    -0.462 OA
ATOM      5  C   UNL     1     141.567 167.954 188.896  0.00  0.00    +0.309 C 
ATOM      6  O   UNL     1     141.723 167.179 189.828  0.00  0.00    -0.251 OA
ATOM      7  C   UNL     1     140.630 169.133 188.916  0.00  0.00    +0.067 C 
ATOM      8  C   UNL     1     140.880 170.048 190.120  0.00  0.00    +0.058 C 
ATOM      9  N   UNL     1     141.863 171.071 189.795  0.00  0.00    -0.306 N 
ATOM     10  C   UNL     1     143.126 171.128 190.347  0.00  0.00    +0.234 C 
ATOM     11  O   UNL     1     143.487 170.373 191.246  0.00  0.00    -0.274 OA
ATOM     12  C   UNL     1     143.953 172.352 189.875  0.00  0.00    +0.106 C 
ATOM     13  N   UNL     1     143.598 172.786 188.492  0.00  0.00    -0.291 N 
ATOM     14  C   UNL     1     143.831 171.890 187.453  0.00  0.00    +0.236 C 
ATOM     15  O   UNL     1     144.106 170.710 187.695  0.00  0.00    -0.274 OA
ATOM     16  C   UNL     1     143.660 172.348 185.990  0.00  0.00    +0.097 C 
ATOM     17  N   UNL     1     144.422 171.423 185.151  0.00  0.00    -0.304 N 
ATOM     18  C   UNL     1     145.511 171.794 184.401  0.00  0.00    +0.217 C 
ATOM     19  O   UNL     1     145.918 172.950 184.346  0.00  0.00    -0.275 OA
ATOM     20  C   UNL     1     146.156 170.639 183.633  0.00  0.00    +0.036 C 
ATOM     21  C   UNL     1     147.219 169.914 184.482  0.00  0.00    -0.021 C 
ATOM     22  C   UNL     1     146.678 169.206 185.711  0.00  0.00    -0.076 C 
ATOM     23  C   UNL     1     145.849 168.147 185.596  0.00  0.00    -0.082 C 
ATOM     24  H   UNL     1     144.940 168.131 187.540  0.00  0.00    +0.034 HD
ATOM     25  H   UNL     1     143.997 165.919 185.685  0.00  0.00    +0.031 HD
ATOM     26  H   UNL     1     143.334 167.549 185.539  0.00  0.00    +0.031 HD
ATOM     27  H   UNL     1     143.352 166.242 188.290  0.00  0.00    +0.073 HD
ATOM     28  H   UNL     1     140.716 169.692 187.976  0.00  0.00    +0.040 HD
ATOM     29  H   UNL     1     139.621 168.701 188.940  0.00  0.00    +0.040 HD
ATOM     30  H   UNL     1     141.256 169.450 190.959  0.00  0.00    +0.055 HD
ATOM     31  H   UNL     1     141.623 171.783 189.119  0.00  0.00    +0.149 HD
ATOM     32  H   UNL     1     143.615 173.156 190.544  0.00  0.00    +0.060 HD
ATOM     33  H   UNL     1     144.062 173.355 185.864  0.00  0.00    +0.059 HD
ATOM     34  H   UNL     1     144.283 170.433 185.339  0.00  0.00    +0.149 HD
ATOM     35  H   UNL     1     145.364 169.936 183.342  0.00  0.00    +0.039 HD
ATOM     36  H   UNL     1     147.991 170.634 184.786  0.00  0.00    +0.032 HD
ATOM     37  H   UNL     1     147.737 169.169 183.862  0.00  0.00    +0.032 HD
ATOM     38  H   UNL     1     145.623 167.776 184.596  0.00  0.00    +0.057 HD
ENDROOT
BRANCH   8  39
ATOM     39  C   UNL     1     139.611 170.762 190.568  0.00  0.00    -0.026 A 
ATOM     40  C   UNL     1     138.347 170.149 190.504  0.00  0.00    -0.053 A 
ATOM     41  C   UNL     1     137.201 170.841 190.898  0.00  0.00    -0.020 A 
ATOM     42  C   UNL     1     137.307 172.150 191.350  0.00  0.00    +0.117 A 
ATOM     43  C   UNL     1     138.542 172.783 191.411  0.00  0.00    -0.020 A 
ATOM     44  C   UNL     1     139.690 172.091 191.016  0.00  0.00    -0.053 A 
ATOM     45  H   UNL     1     138.241 169.127 190.146  0.00  0.00    +0.062 HD
ATOM     46  H   UNL     1     136.227 170.361 190.853  0.00  0.00    +0.065 HD
ATOM     47  H   UNL     1     138.635 173.808 191.757  0.00  0.00    +0.065 HD
ATOM     48  H   UNL     1     140.654 172.598 191.056  0.00  0.00    +0.062 HD
BRANCH  42  49
ATOM     49  O   UNL     1     136.162 172.786 191.725  0.00  0.00    -0.507 OA
ATOM     50  H   UNL     1     136.228 173.720 191.466  0.00  0.00    +0.292 HD
ENDBRANCH  42  49
ENDBRANCH   8  39
BRANCH   1  51
ATOM     51  C   UNL     1     146.056 166.309 187.269  0.00  0.00    -0.059 C 
ATOM     52  H   UNL     1     146.035 165.431 186.613  0.00  0.00    +0.024 HD
ATOM     53  H   UNL     1     145.742 165.985 188.268  0.00  0.00    +0.024 HD
ATOM     54  H   UNL     1     147.097 166.641 187.335  0.00  0.00    +0.024 HD
ENDBRANCH   1  51
BRANCH  22  55
ATOM     55  C   UNL     1     147.154 169.775 187.022  0.00  0.00    -0.044 C 
ATOM     56  H   UNL     1     148.227 169.980 187.048  0.00  0.00    +0.027 HD
ATOM     57  H   UNL     1     146.640 170.719 187.225  0.00  0.00    +0.027 HD
ATOM     58  H   UNL     1     146.929 169.081 187.834  0.00  0.00    +0.027 HD
ENDBRANCH  22  55
BRANCH  20  59
ATOM     59  C   UNL     1     146.792 171.170 182.347  0.00  0.00    -0.054 C 
ATOM     60  H   UNL     1     147.300 172.127 182.514  0.00  0.00    +0.024 HD
ATOM     61  H   UNL     1     146.031 171.328 181.574  0.00  0.00    +0.024 HD
ATOM     62  H   UNL     1     147.527 170.459 181.954  0.00  0.00    +0.024 HD
ENDBRANCH  20  59
BRANCH  16  63
ATOM     63  C   UNL     1     142.188 172.291 185.597  0.00  0.00    -0.038 C 
ATOM     64  H   UNL     1     142.057 172.054 184.537  0.00  0.00    +0.025 HD
ATOM     65  H   UNL     1     141.660 171.533 186.185  0.00  0.00    +0.025 HD
ATOM     66  H   UNL     1     141.694 173.253 185.777  0.00  0.00    +0.025 HD
ENDBRANCH  16  63
BRANCH  13  67
ATOM     67  C   UNL     1     143.218 174.185 188.329  0.00  0.00    +0.004 C 
ATOM     68  H   UNL     1     144.033 174.806 187.961  0.00  0.00    +0.043 HD
ATOM     69  H   UNL     1     142.395 174.237 187.611  0.00  0.00    +0.043 HD
ATOM     70  H   UNL     1     142.883 174.582 189.289  0.00  0.00    +0.043 HD
ENDBRANCH  13  67
BRANCH   3  71
ATOM     71  C   UNL     1     141.794 165.522 186.980  0.00  0.00    -0.028 C 
ATOM     72  H   UNL     1     140.810 165.743 187.408  0.00  0.00    +0.027 HD
ATOM     73  H   UNL     1     142.096 164.525 187.314  0.00  0.00    +0.027 HD
ATOM     74  H   UNL     1     141.667 165.506 185.892  0.00  0.00    +0.027 HD
ENDBRANCH   3  71
BRANCH  12  75
ATOM     75  C   UNL     1     145.467 172.139 190.092  0.00  0.00    +0.003 C 
ATOM     76  H   UNL     1     146.046 172.547 189.257  0.00  0.00    +0.034 HD
ATOM     77  H   UNL     1     145.707 171.070 190.107  0.00  0.00    +0.034 HD
BRANCH  75  78
ATOM     78  C   UNL     1     145.962 172.747 191.379  0.00  0.00    -0.006 A 
ATOM     79  C   UNL     1     145.278 173.606 192.213  0.00  0.00    +0.087 A 
ATOM     80  N   UNL     1     146.068 173.922 193.278  0.00  0.00    -0.349 N 
ATOM     81  C   UNL     1     147.291 173.308 193.157  0.00  0.00    +0.048 A 
ATOM     82  C   UNL     1     148.414 173.361 193.992  0.00  0.00    -0.038 A 
ATOM     83  C   UNL     1     149.541 172.628 193.611  0.00  0.00    -0.060 A 
ATOM     84  C   UNL     1     149.540 171.870 192.445  0.00  0.00    -0.061 A 
ATOM     85  C   UNL     1     148.405 171.822 191.628  0.00  0.00    -0.052 A 
ATOM     86  C   UNL     1     147.253 172.555 191.980  0.00  0.00    +0.004 A 
ATOM     87 BR   UNL     1     143.517 174.285 191.975  0.00  0.00    -0.031 Br
ATOM     88  H   UNL     1     145.796 174.528 194.039  0.00  0.00    +0.166 HD
ATOM     89  H   UNL     1     148.418 173.951 194.903  0.00  0.00    +0.064 HD
ATOM     90  H   UNL     1     150.432 172.650 194.235  0.00  0.00    +0.062 HD
ATOM     91  H   UNL     1     150.427 171.307 192.157  0.00  0.00    +0.062 HD
ATOM     92  H   UNL     1     148.430 171.225 190.723  0.00  0.00    +0.062 HD
ENDBRANCH  75  78
ENDBRANCH  12  75
TORSDOF 10
ENDMDL
MODEL 9
REMARK VINA RESULT:      -6.4      3.928      7.700
REMARK  Name = Jasplakinolide_conf3
REMARK  10 active torsions:
REMARK  status: ('A' for Active; 'I' for Inactive)
REMARK    1  A    between atoms: C_1  and  C_2
REMARK    2  A    between atoms: C_4  and  C_47
REMARK    3  A    between atoms: C_9  and  C_40
REMARK    4  A    between atoms: C_13  and  C_29
REMARK    5  A    between atoms: N_14  and  C_28
REMARK    6  A    between atoms: C_17  and  C_27
REMARK    7  A    between atoms: C_21  and  C_26
REMARK    8  A    between atoms: C_23  and  C_25
REMARK    9  A    between atoms: C_29  and  C_30
REMARK   10  A    between atoms: C_43  and  O_46
REMARK                            x       y       z     vdW  Elec       q    Type
REMARK                         _______ _______ _______ _____ _____    ______ ____
ROOT
ATOM      1  C   UNL     1     148.304 166.102 185.621  0.00  0.00    -0.022 C 
ATOM      2  C   UNL     1     148.402 167.549 186.159  0.00  0.00    -0.010 C 
ATOM      3  C   UNL     1     147.617 167.749 187.467  0.00  0.00    +0.101 C 
ATOM      4  O   UNL     1     148.487 167.370 188.558  0.00  0.00    -0.462 OA
ATOM      5  C   UNL     1     147.882 167.003 189.723  0.00  0.00    +0.309 C 
ATOM      6  O   UNL     1     146.678 166.873 189.883  0.00  0.00    -0.251 OA
ATOM      7  C   UNL     1     148.902 166.919 190.829  0.00  0.00    +0.067 C 
ATOM      8  C   UNL     1     148.773 165.623 191.635  0.00  0.00    +0.058 C 
ATOM      9  N   UNL     1     149.591 164.569 191.054  0.00  0.00    -0.306 N 
ATOM     10  C   UNL     1     149.077 163.444 190.443  0.00  0.00    +0.234 C 
ATOM     11  O   UNL     1     147.876 163.188 190.438  0.00  0.00    -0.274 OA
ATOM     12  C   UNL     1     150.166 162.450 189.960  0.00  0.00    +0.106 C 
ATOM     13  N   UNL     1     151.437 163.132 189.577  0.00  0.00    -0.291 N 
ATOM     14  C   UNL     1     151.397 164.023 188.509  0.00  0.00    +0.236 C 
ATOM     15  O   UNL     1     150.314 164.400 188.050  0.00  0.00    -0.274 OA
ATOM     16  C   UNL     1     152.708 164.614 187.951  0.00  0.00    +0.097 C 
ATOM     17  N   UNL     1     152.432 165.079 186.591  0.00  0.00    -0.304 N 
ATOM     18  C   UNL     1     153.019 164.548 185.470  0.00  0.00    +0.217 C 
ATOM     19  O   UNL     1     153.855 163.651 185.518  0.00  0.00    -0.275 OA
ATOM     20  C   UNL     1     152.544 165.184 184.162  0.00  0.00    +0.036 C 
ATOM     21  C   UNL     1     151.286 164.485 183.612  0.00  0.00    -0.021 C 
ATOM     22  C   UNL     1     150.052 164.615 184.486  0.00  0.00    -0.076 C 
ATOM     23  C   UNL     1     149.465 165.813 184.689  0.00  0.00    -0.082 C 
ATOM     24  H   UNL     1     148.348 165.420 186.479  0.00  0.00    +0.034 HD
ATOM     25  H   UNL     1     148.034 168.236 185.386  0.00  0.00    +0.031 HD
ATOM     26  H   UNL     1     149.455 167.803 186.340  0.00  0.00    +0.031 HD
ATOM     27  H   UNL     1     146.705 167.143 187.470  0.00  0.00    +0.073 HD
ATOM     28  H   UNL     1     149.911 167.022 190.411  0.00  0.00    +0.040 HD
ATOM     29  H   UNL     1     148.724 167.804 191.454  0.00  0.00    +0.040 HD
ATOM     30  H   UNL     1     147.726 165.298 191.636  0.00  0.00    +0.055 HD
ATOM     31  H   UNL     1     150.598 164.659 191.083  0.00  0.00    +0.149 HD
ATOM     32  H   UNL     1     150.392 161.867 190.864  0.00  0.00    +0.060 HD
ATOM     33  H   UNL     1     153.479 163.842 187.912  0.00  0.00    +0.059 HD
ATOM     34  H   UNL     1     151.593 165.641 186.474  0.00  0.00    +0.149 HD
ATOM     35  H   UNL     1     152.331 166.244 184.354  0.00  0.00    +0.039 HD
ATOM     36  H   UNL     1     151.507 163.422 183.447  0.00  0.00    +0.032 HD
ATOM     37  H   UNL     1     151.044 164.893 182.621  0.00  0.00    +0.032 HD
ATOM     38  H   UNL     1     149.866 166.678 184.161  0.00  0.00    +0.057 HD
ENDROOT
BRANCH   8  39
ATOM     39  C   UNL     1     149.222 165.803 193.080  0.00  0.00    -0.026 A 
ATOM     40  C   UNL     1     148.310 166.059 194.119  0.00  0.00    -0.053 A 
ATOM     41  C   UNL     1     148.757 166.245 195.428  0.00  0.00    -0.020 A 
ATOM     42  C   UNL     1     150.116 166.185 195.707  0.00  0.00    +0.117 A 
ATOM     43  C   UNL     1     151.040 165.945 194.697  0.00  0.00    -0.020 A 
ATOM     44  C   UNL     1     150.593 165.759 193.386  0.00  0.00    -0.053 A 
ATOM     45  H   UNL     1     147.242 166.119 193.921  0.00  0.00    +0.062 HD
ATOM     46  H   UNL     1     148.048 166.437 196.229  0.00  0.00    +0.065 HD
ATOM     47  H   UNL     1     152.105 165.902 194.903  0.00  0.00    +0.065 HD
ATOM     48  H   UNL     1     151.324 165.584 192.597  0.00  0.00    +0.062 HD
BRANCH  42  49
ATOM     49  O   UNL     1     150.508 166.371 196.999  0.00  0.00    -0.507 OA
ATOM     50  H   UNL     1     151.289 165.818 197.168  0.00  0.00    +0.292 HD
ENDBRANCH  42  49
ENDBRANCH   8  39
BRANCH   1  51
ATOM     51  C   UNL     1     146.979 165.883 184.882  0.00  0.00    -0.059 C 
ATOM     52  H   UNL     1     146.222 166.605 185.209  0.00  0.00    +0.024 HD
ATOM     53  H   UNL     1     146.581 164.879 185.062  0.00  0.00    +0.024 HD
ATOM     54  H   UNL     1     147.102 166.007 183.802  0.00  0.00    +0.024 HD
ENDBRANCH   1  51
BRANCH  22  55
ATOM     55  C   UNL     1     149.559 163.317 185.070  0.00  0.00    -0.044 C 
ATOM     56  H   UNL     1     150.340 162.561 185.184  0.00  0.00    +0.027 HD
ATOM     57  H   UNL     1     149.135 163.494 186.064  0.00  0.00    +0.027 HD
ATOM     58  H   UNL     1     148.778 162.894 184.436  0.00  0.00    +0.027 HD
ENDBRANCH  22  55
BRANCH  20  59
ATOM     59  C   UNL     1     153.668 165.124 183.125  0.00  0.00    -0.054 C 
ATOM     60  H   UNL     1     153.417 165.701 182.227  0.00  0.00    +0.024 HD
ATOM     61  H   UNL     1     153.853 164.090 182.813  0.00  0.00    +0.024 HD
ATOM     62  H   UNL     1     154.600 165.525 183.537  0.00  0.00    +0.024 HD
ENDBRANCH  20  59
BRANCH  16  63
ATOM     63  C   UNL     1     153.153 165.793 188.809  0.00  0.00    -0.038 C 
ATOM     64  H   UNL     1     152.321 166.222 189.375  0.00  0.00    +0.025 HD
ATOM     65  H   UNL     1     153.926 165.483 189.519  0.00  0.00    +0.025 HD
ATOM     66  H   UNL     1     153.573 166.595 188.191  0.00  0.00    +0.025 HD
ENDBRANCH  16  63
BRANCH  13  67
ATOM     67  C   UNL     1     152.650 162.658 190.233  0.00  0.00    +0.004 C 
ATOM     68  H   UNL     1     153.419 163.424 190.308  0.00  0.00    +0.043 HD
ATOM     69  H   UNL     1     152.390 162.331 191.244  0.00  0.00    +0.043 HD
ATOM     70  H   UNL     1     153.055 161.811 189.675  0.00  0.00    +0.043 HD
ENDBRANCH  13  67
BRANCH   3  71
ATOM     71  C   UNL     1     147.256 169.223 187.646  0.00  0.00    -0.028 C 
ATOM     72  H   UNL     1     147.206 169.733 186.679  0.00  0.00    +0.027 HD
ATOM     73  H   UNL     1     147.993 169.739 188.268  0.00  0.00    +0.027 HD
ATOM     74  H   UNL     1     146.268 169.330 188.108  0.00  0.00    +0.027 HD
ENDBRANCH   3  71
BRANCH  12  75
ATOM     75  C   UNL     1     149.625 161.488 188.881  0.00  0.00    +0.003 C 
ATOM     76  H   UNL     1     150.371 161.316 188.097  0.00  0.00    +0.034 HD
ATOM     77  H   UNL     1     148.769 161.934 188.362  0.00  0.00    +0.034 HD
BRANCH  75  78
ATOM     78  C   UNL     1     149.189 160.162 189.447  0.00  0.00    -0.006 A 
ATOM     79  C   UNL     1     149.999 159.121 189.851  0.00  0.00    +0.087 A 
ATOM     80  N   UNL     1     149.223 158.100 190.312  0.00  0.00    -0.349 N 
ATOM     81  C   UNL     1     147.894 158.429 190.196  0.00  0.00    +0.048 A 
ATOM     82  C   UNL     1     146.750 157.689 190.518  0.00  0.00    -0.038 A 
ATOM     83  C   UNL     1     145.506 158.282 190.285  0.00  0.00    -0.060 A 
ATOM     84  C   UNL     1     145.414 159.565 189.756  0.00  0.00    -0.061 A 
ATOM     85  C   UNL     1     146.569 160.292 189.447  0.00  0.00    -0.052 A 
ATOM     86  C   UNL     1     147.840 159.720 189.665  0.00  0.00    +0.004 A 
ATOM     87 BR   UNL     1     151.900 159.051 189.797  0.00  0.00    -0.031 Br
ATOM     88  H   UNL     1     149.574 157.226 190.675  0.00  0.00    +0.166 HD
ATOM     89  H   UNL     1     146.818 156.688 190.933  0.00  0.00    +0.064 HD
ATOM     90  H   UNL     1     144.597 157.733 190.521  0.00  0.00    +0.062 HD
ATOM     91  H   UNL     1     144.439 160.013 189.574  0.00  0.00    +0.062 HD
ATOM     92  H   UNL     1     146.470 161.290 189.034  0.00  0.00    +0.062 HD
ENDBRANCH  75  78
ENDBRANCH  12  75
TORSDOF 10
ENDMDL
MODEL 10
REMARK VINA RESULT:      -6.3      4.185      8.700
REMARK  Name = Jasplakinolide_conf3
REMARK  10 active torsions:
REMARK  status: ('A' for Active; 'I' for Inactive)
REMARK    1  A    between atoms: C_1  and  C_2
REMARK    2  A    between atoms: C_4  and  C_47
REMARK    3  A    between atoms: C_9  and  C_40
REMARK    4  A    between atoms: C_13  and  C_29
REMARK    5  A    between atoms: N_14  and  C_28
REMARK    6  A    between atoms: C_17  and  C_27
REMARK    7  A    between atoms: C_21  and  C_26
REMARK    8  A    between atoms: C_23  and  C_25
REMARK    9  A    between atoms: C_29  and  C_30
REMARK   10  A    between atoms: C_43  and  O_46
REMARK                            x       y       z     vdW  Elec       q    Type
REMARK                         _______ _______ _______ _____ _____    ______ ____
ROOT
ATOM      1  C   UNL     1     141.537 168.585 186.512  0.00  0.00    -0.022 C 
ATOM      2  C   UNL     1     140.257 169.449 186.435  0.00  0.00    -0.010 C 
ATOM      3  C   UNL     1     139.569 169.613 187.801  0.00  0.00    +0.101 C 
ATOM      4  O   UNL     1     140.190 170.735 188.468  0.00  0.00    -0.462 OA
ATOM      5  C   UNL     1     140.100 170.763 189.828  0.00  0.00    +0.309 C 
ATOM      6  O   UNL     1     139.630 169.876 190.524  0.00  0.00    -0.251 OA
ATOM      7  C   UNL     1     140.532 172.111 190.345  0.00  0.00    +0.067 C 
ATOM      8  C   UNL     1     141.518 171.993 191.512  0.00  0.00    +0.058 C 
ATOM      9  N   UNL     1     142.889 171.947 191.026  0.00  0.00    -0.306 N 
ATOM     10  C   UNL     1     143.700 170.835 191.113  0.00  0.00    +0.234 C 
ATOM     11  O   UNL     1     143.360 169.817 191.711  0.00  0.00    -0.274 OA
ATOM     12  C   UNL     1     145.135 171.070 190.573  0.00  0.00    +0.106 C 
ATOM     13  N   UNL     1     145.177 172.082 189.477  0.00  0.00    -0.291 N 
ATOM     14  C   UNL     1     144.495 171.790 188.300  0.00  0.00    +0.236 C 
ATOM     15  O   UNL     1     143.706 170.840 188.255  0.00  0.00    -0.274 OA
ATOM     16  C   UNL     1     144.655 172.707 187.070  0.00  0.00    +0.097 C 
ATOM     17  N   UNL     1     144.267 171.930 185.893  0.00  0.00    -0.304 N 
ATOM     18  C   UNL     1     145.131 171.598 184.879  0.00  0.00    +0.217 C 
ATOM     19  O   UNL     1     146.305 171.957 184.861  0.00  0.00    -0.275 OA
ATOM     20  C   UNL     1     144.494 170.755 183.774  0.00  0.00    +0.036 C 
ATOM     21  C   UNL     1     144.575 169.248 184.088  0.00  0.00    -0.021 C 
ATOM     22  C   UNL     1     143.785 168.809 185.308  0.00  0.00    -0.076 C 
ATOM     23  C   UNL     1     142.437 168.881 185.328  0.00  0.00    -0.082 C 
ATOM     24  H   UNL     1     142.060 168.840 187.440  0.00  0.00    +0.034 HD
ATOM     25  H   UNL     1     139.566 168.992 185.714  0.00  0.00    +0.031 HD
ATOM     26  H   UNL     1     140.509 170.446 186.048  0.00  0.00    +0.031 HD
ATOM     27  H   UNL     1     139.670 168.701 188.399  0.00  0.00    +0.073 HD
ATOM     28  H   UNL     1     140.962 172.702 189.526  0.00  0.00    +0.040 HD
ATOM     29  H   UNL     1     139.605 172.615 190.649  0.00  0.00    +0.040 HD
ATOM     30  H   UNL     1     141.310 171.074 192.071  0.00  0.00    +0.055 HD
ATOM     31  H   UNL     1     143.281 172.770 190.587  0.00  0.00    +0.149 HD
ATOM     32  H   UNL     1     145.653 171.525 191.430  0.00  0.00    +0.060 HD
ATOM     33  H   UNL     1     145.699 173.013 186.966  0.00  0.00    +0.059 HD
ATOM     34  H   UNL     1     143.393 171.416 185.968  0.00  0.00    +0.149 HD
ATOM     35  H   UNL     1     143.445 171.061 183.671  0.00  0.00    +0.039 HD
ATOM     36  H   UNL     1     145.628 168.961 184.212  0.00  0.00    +0.032 HD
ATOM     37  H   UNL     1     144.212 168.674 183.225  0.00  0.00    +0.032 HD
ATOM     38  H   UNL     1     141.926 169.209 184.423  0.00  0.00    +0.057 HD
ENDROOT
BRANCH   8  39
ATOM     39  C   UNL     1     141.414 173.174 192.469  0.00  0.00    -0.026 A 
ATOM     40  C   UNL     1     142.438 174.130 192.590  0.00  0.00    -0.053 A 
ATOM     41  C   UNL     1     142.323 175.185 193.497  0.00  0.00    -0.020 A 
ATOM     42  C   UNL     1     141.190 175.287 194.294  0.00  0.00    +0.117 A 
ATOM     43  C   UNL     1     140.169 174.348 194.205  0.00  0.00    -0.020 A 
ATOM     44  C   UNL     1     140.285 173.292 193.297  0.00  0.00    -0.053 A 
ATOM     45  H   UNL     1     143.337 174.064 191.980  0.00  0.00    +0.062 HD
ATOM     46  H   UNL     1     143.113 175.925 193.581  0.00  0.00    +0.065 HD
ATOM     47  H   UNL     1     139.283 174.415 194.828  0.00  0.00    +0.065 HD
ATOM     48  H   UNL     1     139.486 172.553 193.241  0.00  0.00    +0.062 HD
BRANCH  42  49
ATOM     49  O   UNL     1     141.120 176.333 195.165  0.00  0.00    -0.507 OA
ATOM     50  H   UNL     1     140.830 175.997 196.029  0.00  0.00    +0.292 HD
ENDBRANCH  42  49
ENDBRANCH   8  39
BRANCH   1  51
ATOM     51  C   UNL     1     141.186 167.093 186.534  0.00  0.00    -0.059 C 
ATOM     52  H   UNL     1     141.611 166.575 185.667  0.00  0.00    +0.024 HD
ATOM     53  H   UNL     1     140.101 166.936 186.517  0.00  0.00    +0.024 HD
ATOM     54  H   UNL     1     141.581 166.605 187.430  0.00  0.00    +0.024 HD
ENDBRANCH   1  51
BRANCH  22  55
ATOM     55  C   UNL     1     144.626 168.291 186.445  0.00  0.00    -0.044 C 
ATOM     56  H   UNL     1     144.512 168.859 187.371  0.00  0.00    +0.027 HD
ATOM     57  H   UNL     1     144.352 167.254 186.667  0.00  0.00    +0.027 HD
ATOM     58  H   UNL     1     145.682 168.314 186.170  0.00  0.00    +0.027 HD
ENDBRANCH  22  55
BRANCH  20  59
ATOM     59  C   UNL     1     145.188 171.045 182.441  0.00  0.00    -0.054 C 
ATOM     60  H   UNL     1     146.137 171.574 182.589  0.00  0.00    +0.024 HD
ATOM     61  H   UNL     1     144.555 171.672 181.802  0.00  0.00    +0.024 HD
ATOM     62  H   UNL     1     145.397 170.116 181.901  0.00  0.00    +0.024 HD
ENDBRANCH  20  59
BRANCH  16  63
ATOM     63  C   UNL     1     143.739 173.917 187.203  0.00  0.00    -0.038 C 
ATOM     64  H   UNL     1     142.777 173.654 187.653  0.00  0.00    +0.025 HD
ATOM     65  H   UNL     1     144.206 174.690 187.822  0.00  0.00    +0.025 HD
ATOM     66  H   UNL     1     143.527 174.362 186.223  0.00  0.00    +0.025 HD
ENDBRANCH  16  63
BRANCH  13  67
ATOM     67  C   UNL     1     146.091 173.203 189.665  0.00  0.00    +0.004 C 
ATOM     68  H   UNL     1     145.620 174.060 190.142  0.00  0.00    +0.043 HD
ATOM     69  H   UNL     1     146.920 172.870 190.297  0.00  0.00    +0.043 HD
ATOM     70  H   UNL     1     146.483 173.516 188.695  0.00  0.00    +0.043 HD
ENDBRANCH  13  67
BRANCH   3  71
ATOM     71  C   UNL     1     138.089 169.942 187.612  0.00  0.00    -0.028 C 
ATOM     72  H   UNL     1     137.872 170.177 186.565  0.00  0.00    +0.027 HD
ATOM     73  H   UNL     1     137.791 170.798 188.224  0.00  0.00    +0.027 HD
ATOM     74  H   UNL     1     137.461 169.084 187.877  0.00  0.00    +0.027 HD
ENDBRANCH   3  71
BRANCH  12  75
ATOM     75  C   UNL     1     145.841 169.743 190.224  0.00  0.00    +0.003 C 
ATOM     76  H   UNL     1     145.746 169.515 189.157  0.00  0.00    +0.034 HD
ATOM     77  H   UNL     1     145.357 168.903 190.736  0.00  0.00    +0.034 HD
BRANCH  75  78
ATOM     78  C   UNL     1     147.300 169.741 190.601  0.00  0.00    -0.006 A 
ATOM     79  C   UNL     1     148.272 168.863 190.168  0.00  0.00    +0.087 A 
ATOM     80  N   UNL     1     149.466 169.203 190.730  0.00  0.00    -0.349 N 
ATOM     81  C   UNL     1     149.305 170.283 191.562  0.00  0.00    +0.048 A 
ATOM     82  C   UNL     1     150.241 170.956 192.359  0.00  0.00    -0.038 A 
ATOM     83  C   UNL     1     149.787 172.036 193.120  0.00  0.00    -0.060 A 
ATOM     84  C   UNL     1     148.453 172.429 193.081  0.00  0.00    -0.061 A 
ATOM     85  C   UNL     1     147.535 171.750 192.273  0.00  0.00    -0.052 A 
ATOM     86  C   UNL     1     147.959 170.651 191.496  0.00  0.00    +0.004 A 
ATOM     87 BR   UNL     1     148.051 167.392 188.982  0.00  0.00    -0.031 Br
ATOM     88  H   UNL     1     150.339 168.722 190.566  0.00  0.00    +0.166 HD
ATOM     89  H   UNL     1     151.282 170.654 192.391  0.00  0.00    +0.064 HD
ATOM     90  H   UNL     1     150.486 172.580 193.753  0.00  0.00    +0.062 HD
ATOM     91  H   UNL     1     148.111 173.269 193.683  0.00  0.00    +0.062 HD
ATOM     92  H   UNL     1     146.500 172.074 192.260  0.00  0.00    +0.062 HD
ENDBRANCH  75  78
ENDBRANCH  12  75
TORSDOF 10
ENDMDL
