MODEL 1
REMARK VINA RESULT:      -7.2      0.000      0.000
REMARK  Name = Jasplakinolide_conf1
REMARK  10 active torsions:
REMARK  status: ('A' for Active; 'I' for Inactive)
REMARK    1  A    between atoms: C_1  and  C_2
REMARK    2  A    between atoms: C_4  and  C_47
REMARK    3  A    between atoms: C_9  and  C_40
REMARK    4  A    between atoms: C_13  and  C_29
REMARK    5  A    between atoms: N_14  and  C_28
REMARK    6  A    between atoms: C_17  and  C_27
REMARK    7  A    between atoms: C_21  and  C_26
REMARK    8  A    between atoms: C_23  and  C_25
REMARK    9  A    between atoms: C_29  and  C_30
REMARK   10  A    between atoms: C_43  and  O_46
REMARK                            x       y       z     vdW  Elec       q    Type
REMARK                         _______ _______ _______ _____ _____    ______ ____
ROOT
ATOM      1  C   UNL     1     143.687 164.605 187.796  0.00  0.00    -0.022 C 
ATOM      2  C   UNL     1     142.994 164.211 189.123  0.00  0.00    -0.010 C 
ATOM      3  C   UNL     1     142.828 165.342 190.158  0.00  0.00    +0.101 C 
ATOM      4  O   UNL     1     144.146 165.756 190.567  0.00  0.00    -0.462 OA
ATOM      5  C   UNL     1     144.240 166.362 191.778  0.00  0.00    +0.309 C 
ATOM      6  O   UNL     1     143.309 166.537 192.554  0.00  0.00    -0.251 OA
ATOM      7  C   UNL     1     145.663 166.719 192.111  0.00  0.00    +0.067 C 
ATOM      8  C   UNL     1     146.352 167.527 191.005  0.00  0.00    +0.058 C 
ATOM      9  N   UNL     1     145.744 168.837 190.836  0.00  0.00    -0.306 N 
ATOM     10  C   UNL     1     145.561 169.413 189.592  0.00  0.00    +0.234 C 
ATOM     11  O   UNL     1     145.886 168.852 188.547  0.00  0.00    -0.274 OA
ATOM     12  C   UNL     1     144.928 170.826 189.631  0.00  0.00    +0.106 C 
ATOM     13  N   UNL     1     143.929 170.966 188.543  0.00  0.00    -0.291 N 
ATOM     14  C   UNL     1     142.598 170.696 188.838  0.00  0.00    +0.236 C 
ATOM     15  O   UNL     1     142.264 170.238 189.938  0.00  0.00    -0.274 OA
ATOM     16  C   UNL     1     141.525 170.941 187.752  0.00  0.00    +0.097 C 
ATOM     17  N   UNL     1     141.012 169.635 187.351  0.00  0.00    -0.304 N 
ATOM     18  C   UNL     1     141.217 169.113 186.097  0.00  0.00    +0.217 C 
ATOM     19  O   UNL     1     141.771 169.734 185.195  0.00  0.00    -0.275 OA
ATOM     20  C   UNL     1     140.649 167.712 185.909  0.00  0.00    +0.036 C 
ATOM     21  C   UNL     1     141.661 166.789 185.213  0.00  0.00    -0.021 C 
ATOM     22  C   UNL     1     142.790 166.350 186.133  0.00  0.00    -0.076 C 
ATOM     23  C   UNL     1     142.695 165.188 186.809  0.00  0.00    -0.082 C 
ATOM     24  H   UNL     1     144.491 165.312 188.021  0.00  0.00    +0.034 HD
ATOM     25  H   UNL     1     142.013 163.762 188.922  0.00  0.00    +0.031 HD
ATOM     26  H   UNL     1     143.598 163.430 189.605  0.00  0.00    +0.031 HD
ATOM     27  H   UNL     1     142.303 164.904 191.018  0.00  0.00    +0.073 HD
ATOM     28  H   UNL     1     146.197 165.783 192.311  0.00  0.00    +0.040 HD
ATOM     29  H   UNL     1     145.637 167.286 193.049  0.00  0.00    +0.040 HD
ATOM     30  H   UNL     1     146.246 166.975 190.062  0.00  0.00    +0.055 HD
ATOM     31  H   UNL     1     145.584 169.401 191.663  0.00  0.00    +0.149 HD
ATOM     32  H   UNL     1     144.383 170.898 190.581  0.00  0.00    +0.060 HD
ATOM     33  H   UNL     1     141.934 171.473 186.891  0.00  0.00    +0.059 HD
ATOM     34  H   UNL     1     140.639 169.047 188.088  0.00  0.00    +0.149 HD
ATOM     35  H   UNL     1     140.380 167.288 186.884  0.00  0.00    +0.039 HD
ATOM     36  H   UNL     1     141.136 165.896 184.849  0.00  0.00    +0.032 HD
ATOM     37  H   UNL     1     142.080 167.262 184.315  0.00  0.00    +0.032 HD
ATOM     38  H   UNL     1     141.800 164.583 186.659  0.00  0.00    +0.057 HD
ENDROOT
BRANCH   8  39
ATOM     39  C   UNL     1     147.842 167.705 191.275  0.00  0.00    -0.026 A 
ATOM     40  C   UNL     1     148.805 167.602 190.256  0.00  0.00    -0.053 A 
ATOM     41  C   UNL     1     150.165 167.743 190.544  0.00  0.00    -0.020 A 
ATOM     42  C   UNL     1     150.574 167.967 191.852  0.00  0.00    +0.117 A 
ATOM     43  C   UNL     1     149.644 168.064 192.881  0.00  0.00    -0.020 A 
ATOM     44  C   UNL     1     148.283 167.928 192.590  0.00  0.00    -0.053 A 
ATOM     45  H   UNL     1     148.515 167.392 189.229  0.00  0.00    +0.062 HD
ATOM     46  H   UNL     1     150.901 167.664 189.749  0.00  0.00    +0.065 HD
ATOM     47  H   UNL     1     149.952 168.225 193.909  0.00  0.00    +0.065 HD
ATOM     48  H   UNL     1     147.561 167.975 193.405  0.00  0.00    +0.062 HD
BRANCH  42  49
ATOM     49  O   UNL     1     151.913 168.066 192.091  0.00  0.00    -0.507 OA
ATOM     50  H   UNL     1     152.388 167.743 191.307  0.00  0.00    +0.292 HD
ENDBRANCH  42  49
ENDBRANCH   8  39
BRANCH   1  51
ATOM     51  C   UNL     1     144.327 163.368 187.154  0.00  0.00    -0.059 C 
ATOM     52  H   UNL     1     144.262 163.420 186.061  0.00  0.00    +0.024 HD
ATOM     53  H   UNL     1     143.818 162.451 187.470  0.00  0.00    +0.024 HD
ATOM     54  H   UNL     1     145.387 163.277 187.424  0.00  0.00    +0.024 HD
ENDBRANCH   1  51
BRANCH  22  55
ATOM     55  C   UNL     1     143.982 167.270 186.189  0.00  0.00    -0.044 C 
ATOM     56  H   UNL     1     143.785 168.114 186.860  0.00  0.00    +0.027 HD
ATOM     57  H   UNL     1     144.859 166.732 186.557  0.00  0.00    +0.027 HD
ATOM     58  H   UNL     1     144.231 167.705 185.217  0.00  0.00    +0.027 HD
ENDBRANCH  22  55
BRANCH  20  59
ATOM     59  C   UNL     1     139.368 167.835 185.082  0.00  0.00    -0.054 C 
ATOM     60  H   UNL     1     139.506 167.433 184.071  0.00  0.00    +0.024 HD
ATOM     61  H   UNL     1     138.545 167.293 185.557  0.00  0.00    +0.024 HD
ATOM     62  H   UNL     1     139.069 168.885 184.982  0.00  0.00    +0.024 HD
ENDBRANCH  20  59
BRANCH  16  63
ATOM     63  C   UNL     1     140.395 171.788 188.327  0.00  0.00    -0.038 C 
ATOM     64  H   UNL     1     140.163 172.627 187.663  0.00  0.00    +0.025 HD
ATOM     65  H   UNL     1     139.475 171.206 188.454  0.00  0.00    +0.025 HD
ATOM     66  H   UNL     1     140.671 172.191 189.306  0.00  0.00    +0.025 HD
ENDBRANCH  16  63
BRANCH  13  67
ATOM     67  C   UNL     1     144.408 171.211 187.187  0.00  0.00    +0.004 C 
ATOM     68  H   UNL     1     145.494 171.318 187.168  0.00  0.00    +0.043 HD
ATOM     69  H   UNL     1     143.982 172.131 186.777  0.00  0.00    +0.043 HD
ATOM     70  H   UNL     1     144.111 170.361 186.561  0.00  0.00    +0.043 HD
ENDBRANCH  13  67
BRANCH   3  71
ATOM     71  C   UNL     1     142.040 166.547 189.655  0.00  0.00    -0.028 C 
ATOM     72  H   UNL     1     141.429 166.271 188.790  0.00  0.00    +0.027 HD
ATOM     73  H   UNL     1     141.338 166.909 190.409  0.00  0.00    +0.027 HD
ATOM     74  H   UNL     1     142.704 167.357 189.345  0.00  0.00    +0.027 HD
ENDBRANCH   3  71
BRANCH  12  75
ATOM     75  C   UNL     1     145.990 171.944 189.629  0.00  0.00    +0.003 C 
ATOM     76  H   UNL     1     146.924 171.582 189.190  0.00  0.00    +0.034 HD
ATOM     77  H   UNL     1     145.652 172.751 188.965  0.00  0.00    +0.034 HD
BRANCH  75  78
ATOM     78  C   UNL     1     146.272 172.531 190.980  0.00  0.00    -0.006 A 
ATOM     79  C   UNL     1     145.435 173.323 191.740  0.00  0.00    +0.087 A 
ATOM     80  N   UNL     1     146.082 173.691 192.881  0.00  0.00    -0.349 N 
ATOM     81  C   UNL     1     147.341 173.139 192.907  0.00  0.00    +0.048 A 
ATOM     82  C   UNL     1     148.351 173.251 193.870  0.00  0.00    -0.038 A 
ATOM     83  C   UNL     1     149.549 172.573 193.631  0.00  0.00    -0.060 A 
ATOM     84  C   UNL     1     149.724 171.810 192.479  0.00  0.00    -0.061 A 
ATOM     85  C   UNL     1     148.702 171.709 191.528  0.00  0.00    -0.052 A 
ATOM     86  C   UNL     1     147.484 172.389 191.738  0.00  0.00    +0.004 A 
ATOM     87 BR   UNL     1     143.664 173.880 191.318  0.00  0.00    -0.031 Br
ATOM     88  H   UNL     1     145.698 174.307 193.583  0.00  0.00    +0.166 HD
ATOM     89  H   UNL     1     148.214 173.838 194.773  0.00  0.00    +0.064 HD
ATOM     90  H   UNL     1     150.354 172.637 194.360  0.00  0.00    +0.062 HD
ATOM     91  H   UNL     1     150.662 171.285 192.317  0.00  0.00    +0.062 HD
ATOM     92  H   UNL     1     148.857 171.104 190.640  0.00  0.00    +0.062 HD
ENDBRANCH  75  78
ENDBRANCH  12  75
TORSDOF 10
ENDMDL
MODEL 2
REMARK VINA RESULT:      -6.7      3.365      6.320
REMARK  Name = Jasplakinolide_conf1
REMARK  10 active torsions:
REMARK  status: ('A' for Active; 'I' for Inactive)
REMARK    1  A    between atoms: C_1  and  C_2
REMARK    2  A    between atoms: C_4  and  C_47
REMARK    3  A    between atoms: C_9  and  C_40
REMARK    4  A    between atoms: C_13  and  C_29
REMARK    5  A    between atoms: N_14  and  C_28
REMARK    6  A    between atoms: C_17  and  C_27
REMARK    7  A    between atoms: C_21  and  C_26
REMARK    8  A    between atoms: C_23  and  C_25
REMARK    9  A    between atoms: C_29  and  C_30
REMARK   10  A    between atoms: C_43  and  O_46
REMARK                            x       y       z     vdW  Elec       q    Type
REMARK                         _______ _______ _______ _____ _____    ______ ____
ROOT
ATOM      1  C   UNL     1     143.468 170.715 190.887  0.00  0.00    -0.022 C 
ATOM      2  C   UNL     1     144.376 171.969 190.922  0.00  0.00    -0.010 C 
ATOM      3  C   UNL     1     145.807 171.779 190.383  0.00  0.00    +0.101 C 
ATOM      4  O   UNL     1     146.479 170.843 191.250  0.00  0.00    -0.462 OA
ATOM      5  C   UNL     1     147.836 170.900 191.265  0.00  0.00    +0.309 C 
ATOM      6  O   UNL     1     148.515 171.707 190.642  0.00  0.00    -0.251 OA
ATOM      7  C   UNL     1     148.421 169.903 192.226  0.00  0.00    +0.067 C 
ATOM      8  C   UNL     1     147.906 168.478 191.998  0.00  0.00    +0.058 C 
ATOM      9  N   UNL     1     148.335 167.947 190.713  0.00  0.00    -0.306 N 
ATOM     10  C   UNL     1     147.512 167.170 189.921  0.00  0.00    +0.234 C 
ATOM     11  O   UNL     1     146.359 166.886 190.241  0.00  0.00    -0.274 OA
ATOM     12  C   UNL     1     148.170 166.677 188.608  0.00  0.00    +0.106 C 
ATOM     13  N   UNL     1     147.201 166.766 187.489  0.00  0.00    -0.291 N 
ATOM     14  C   UNL     1     147.212 167.913 186.704  0.00  0.00    +0.236 C 
ATOM     15  O   UNL     1     147.921 168.884 186.994  0.00  0.00    -0.274 OA
ATOM     16  C   UNL     1     146.288 167.982 185.466  0.00  0.00    +0.097 C 
ATOM     17  N   UNL     1     145.266 168.984 185.746  0.00  0.00    -0.304 N 
ATOM     18  C   UNL     1     143.938 168.664 185.899  0.00  0.00    +0.217 C 
ATOM     19  O   UNL     1     143.499 167.531 185.730  0.00  0.00    -0.275 OA
ATOM     20  C   UNL     1     143.050 169.851 186.247  0.00  0.00    +0.036 C 
ATOM     21  C   UNL     1     142.088 169.510 187.396  0.00  0.00    -0.021 C 
ATOM     22  C   UNL     1     142.778 169.461 188.750  0.00  0.00    -0.076 C 
ATOM     23  C   UNL     1     142.801 170.556 189.536  0.00  0.00    -0.082 C 
ATOM     24  H   UNL     1     144.075 169.840 191.139  0.00  0.00    +0.034 HD
ATOM     25  H   UNL     1     143.899 172.800 190.387  0.00  0.00    +0.031 HD
ATOM     26  H   UNL     1     144.473 172.291 191.968  0.00  0.00    +0.031 HD
ATOM     27  H   UNL     1     146.301 172.758 190.456  0.00  0.00    +0.073 HD
ATOM     28  H   UNL     1     148.193 170.252 193.240  0.00  0.00    +0.040 HD
ATOM     29  H   UNL     1     149.511 169.947 192.104  0.00  0.00    +0.040 HD
ATOM     30  H   UNL     1     146.809 168.505 192.007  0.00  0.00    +0.055 HD
ATOM     31  H   UNL     1     149.314 168.032 190.463  0.00  0.00    +0.149 HD
ATOM     32  H   UNL     1     148.985 167.377 188.386  0.00  0.00    +0.060 HD
ATOM     33  H   UNL     1     145.828 167.016 185.248  0.00  0.00    +0.059 HD
ATOM     34  H   UNL     1     145.592 169.912 185.994  0.00  0.00    +0.149 HD
ATOM     35  H   UNL     1     143.673 170.707 186.537  0.00  0.00    +0.039 HD
ATOM     36  H   UNL     1     141.295 170.269 187.433  0.00  0.00    +0.032 HD
ATOM     37  H   UNL     1     141.569 168.561 187.212  0.00  0.00    +0.032 HD
ATOM     38  H   UNL     1     142.300 171.454 189.171  0.00  0.00    +0.057 HD
ENDROOT
BRANCH   8  39
ATOM     39  C   UNL     1     148.357 167.526 193.100  0.00  0.00    -0.026 A 
ATOM     40  C   UNL     1     147.453 166.954 194.013  0.00  0.00    -0.053 A 
ATOM     41  C   UNL     1     147.906 166.108 195.028  0.00  0.00    -0.020 A 
ATOM     42  C   UNL     1     149.263 165.843 195.153  0.00  0.00    +0.117 A 
ATOM     43  C   UNL     1     150.180 166.402 194.271  0.00  0.00    -0.020 A 
ATOM     44  C   UNL     1     149.726 167.245 193.251  0.00  0.00    -0.053 A 
ATOM     45  H   UNL     1     146.389 167.172 193.960  0.00  0.00    +0.062 HD
ATOM     46  H   UNL     1     147.199 165.669 195.727  0.00  0.00    +0.065 HD
ATOM     47  H   UNL     1     151.245 166.215 194.366  0.00  0.00    +0.065 HD
ATOM     48  H   UNL     1     150.453 167.704 192.582  0.00  0.00    +0.062 HD
BRANCH  42  49
ATOM     49  O   UNL     1     149.662 165.038 196.179  0.00  0.00    -0.507 OA
ATOM     50  H   UNL     1     150.415 164.503 195.872  0.00  0.00    +0.292 HD
ENDBRANCH  42  49
ENDBRANCH   8  39
BRANCH   1  51
ATOM     51  C   UNL     1     142.369 170.836 191.950  0.00  0.00    -0.059 C 
ATOM     52  H   UNL     1     142.575 170.174 192.798  0.00  0.00    +0.024 HD
ATOM     53  H   UNL     1     141.392 170.553 191.541  0.00  0.00    +0.024 HD
ATOM     54  H   UNL     1     142.290 171.861 192.334  0.00  0.00    +0.024 HD
ENDBRANCH   1  51
BRANCH  22  55
ATOM     55  C   UNL     1     143.374 168.130 189.131  0.00  0.00    -0.044 C 
ATOM     56  H   UNL     1     143.109 167.365 188.393  0.00  0.00    +0.027 HD
ATOM     57  H   UNL     1     144.464 168.202 189.179  0.00  0.00    +0.027 HD
ATOM     58  H   UNL     1     143.013 167.763 190.095  0.00  0.00    +0.027 HD
ENDBRANCH  22  55
BRANCH  20  59
ATOM     59  C   UNL     1     142.276 170.241 184.987  0.00  0.00    -0.054 C 
ATOM     60  H   UNL     1     142.764 169.854 184.084  0.00  0.00    +0.024 HD
ATOM     61  H   UNL     1     141.256 169.848 185.020  0.00  0.00    +0.024 HD
ATOM     62  H   UNL     1     142.216 171.330 184.890  0.00  0.00    +0.024 HD
ENDBRANCH  20  59
BRANCH  16  63
ATOM     63  C   UNL     1     147.098 168.397 184.241  0.00  0.00    -0.038 C 
ATOM     64  H   UNL     1     146.562 169.154 183.660  0.00  0.00    +0.025 HD
ATOM     65  H   UNL     1     148.068 168.823 184.521  0.00  0.00    +0.025 HD
ATOM     66  H   UNL     1     147.288 167.536 183.592  0.00  0.00    +0.025 HD
ENDBRANCH  16  63
BRANCH  13  67
ATOM     67  C   UNL     1     146.177 165.732 187.371  0.00  0.00    +0.004 C 
ATOM     68  H   UNL     1     145.944 165.299 188.345  0.00  0.00    +0.043 HD
ATOM     69  H   UNL     1     146.510 164.918 186.722  0.00  0.00    +0.043 HD
ATOM     70  H   UNL     1     145.276 166.191 186.947  0.00  0.00    +0.043 HD
ENDBRANCH  13  67
BRANCH   3  71
ATOM     71  C   UNL     1     145.880 171.291 188.941  0.00  0.00    -0.028 C 
ATOM     72  H   UNL     1     144.918 170.871 188.630  0.00  0.00    +0.027 HD
ATOM     73  H   UNL     1     146.079 172.113 188.249  0.00  0.00    +0.027 HD
ATOM     74  H   UNL     1     146.635 170.512 188.820  0.00  0.00    +0.027 HD
ENDBRANCH   3  71
BRANCH  12  75
ATOM     75  C   UNL     1     148.798 165.277 188.758  0.00  0.00    +0.003 C 
ATOM     76  H   UNL     1     148.127 164.614 189.311  0.00  0.00    +0.034 HD
ATOM     77  H   UNL     1     148.896 164.824 187.761  0.00  0.00    +0.034 HD
BRANCH  75  78
ATOM     78  C   UNL     1     150.148 165.273 189.412  0.00  0.00    -0.006 A 
ATOM     79  C   UNL     1     150.491 164.706 190.622  0.00  0.00    +0.087 A 
ATOM     80  N   UNL     1     151.802 164.965 190.883  0.00  0.00    -0.349 N 
ATOM     81  C   UNL     1     152.354 165.685 189.850  0.00  0.00    +0.048 A 
ATOM     82  C   UNL     1     153.655 166.176 189.692  0.00  0.00    -0.038 A 
ATOM     83  C   UNL     1     153.939 166.889 188.524  0.00  0.00    -0.060 A 
ATOM     84  C   UNL     1     152.962 167.095 187.554  0.00  0.00    -0.061 A 
ATOM     85  C   UNL     1     151.666 166.596 187.729  0.00  0.00    -0.052 A 
ATOM     86  C   UNL     1     151.347 165.879 188.902  0.00  0.00    +0.004 A 
ATOM     87 BR   UNL     1     149.364 163.730 191.807  0.00  0.00    -0.031 Br
ATOM     88  H   UNL     1     152.283 164.692 191.729  0.00  0.00    +0.166 HD
ATOM     89  H   UNL     1     154.421 166.009 190.442  0.00  0.00    +0.064 HD
ATOM     90  H   UNL     1     154.941 167.282 188.368  0.00  0.00    +0.062 HD
ATOM     91  H   UNL     1     153.207 167.646 186.650  0.00  0.00    +0.062 HD
ATOM     92  H   UNL     1     150.920 166.763 186.958  0.00  0.00    +0.062 HD
ENDBRANCH  75  78
ENDBRANCH  12  75
TORSDOF 10
ENDMDL
MODEL 3
REMARK VINA RESULT:      -6.6      3.247      5.323
REMARK  Name = Jasplakinolide_conf1
REMARK  10 active torsions:
REMARK  status: ('A' for Active; 'I' for Inactive)
REMARK    1  A    between atoms: C_1  and  C_2
REMARK    2  A    between atoms: C_4  and  C_47
REMARK    3  A    between atoms: C_9  and  C_40
REMARK    4  A    between atoms: C_13  and  C_29
REMARK    5  A    between atoms: N_14  and  C_28
REMARK    6  A    between atoms: C_17  and  C_27
REMARK    7  A    between atoms: C_21  and  C_26
REMARK    8  A    between atoms: C_23  and  C_25
REMARK    9  A    between atoms: C_29  and  C_30
REMARK   10  A    between atoms: C_43  and  O_46
REMARK                            x       y       z     vdW  Elec       q    Type
REMARK                         _______ _______ _______ _____ _____    ______ ____
ROOT
ATOM      1  C   UNL     1     145.988 165.126 185.339  0.00  0.00    -0.022 C 
ATOM      2  C   UNL     1     145.993 163.636 185.761  0.00  0.00    -0.010 C 
ATOM      3  C   UNL     1     146.270 163.359 187.252  0.00  0.00    +0.101 C 
ATOM      4  O   UNL     1     147.611 163.803 187.537  0.00  0.00    -0.462 OA
ATOM      5  C   UNL     1     148.221 163.233 188.608  0.00  0.00    +0.309 C 
ATOM      6  O   UNL     1     147.739 162.352 189.309  0.00  0.00    -0.251 OA
ATOM      7  C   UNL     1     149.622 163.748 188.787  0.00  0.00    +0.067 C 
ATOM      8  C   UNL     1     149.697 165.278 188.826  0.00  0.00    +0.058 C 
ATOM      9  N   UNL     1     149.025 165.822 189.995  0.00  0.00    -0.306 N 
ATOM     10  C   UNL     1     148.271 166.980 189.944  0.00  0.00    +0.234 C 
ATOM     11  O   UNL     1     148.108 167.620 188.907  0.00  0.00    -0.274 OA
ATOM     12  C   UNL     1     147.667 167.408 191.305  0.00  0.00    +0.106 C 
ATOM     13  N   UNL     1     146.277 167.891 191.114  0.00  0.00    -0.291 N 
ATOM     14  C   UNL     1     145.239 166.983 191.286  0.00  0.00    +0.236 C 
ATOM     15  O   UNL     1     145.462 165.780 191.474  0.00  0.00    -0.274 OA
ATOM     16  C   UNL     1     143.780 167.487 191.201  0.00  0.00    +0.097 C 
ATOM     17  N   UNL     1     143.196 166.916 189.993  0.00  0.00    -0.304 N 
ATOM     18  C   UNL     1     142.829 167.684 188.914  0.00  0.00    +0.217 C 
ATOM     19  O   UNL     1     142.885 168.910 188.914  0.00  0.00    -0.275 OA
ATOM     20  C   UNL     1     142.297 166.882 187.734  0.00  0.00    +0.036 C 
ATOM     21  C   UNL     1     142.919 167.356 186.411  0.00  0.00    -0.021 C 
ATOM     22  C   UNL     1     144.360 166.901 186.240  0.00  0.00    -0.076 C 
ATOM     23  C   UNL     1     144.633 165.760 185.576  0.00  0.00    -0.082 C 
ATOM     24  H   UNL     1     146.776 165.646 185.893  0.00  0.00    +0.034 HD
ATOM     25  H   UNL     1     145.048 163.157 185.477  0.00  0.00    +0.031 HD
ATOM     26  H   UNL     1     146.783 163.124 185.194  0.00  0.00    +0.031 HD
ATOM     27  H   UNL     1     146.213 162.270 187.384  0.00  0.00    +0.073 HD
ATOM     28  H   UNL     1     150.228 163.341 187.969  0.00  0.00    +0.040 HD
ATOM     29  H   UNL     1     150.003 163.316 189.721  0.00  0.00    +0.040 HD
ATOM     30  H   UNL     1     149.196 165.669 187.931  0.00  0.00    +0.055 HD
ATOM     31  H   UNL     1     149.236 165.417 190.900  0.00  0.00    +0.149 HD
ATOM     32  H   UNL     1     147.612 166.501 191.921  0.00  0.00    +0.060 HD
ATOM     33  H   UNL     1     143.729 168.578 191.173  0.00  0.00    +0.059 HD
ATOM     34  H   UNL     1     143.225 165.906 189.906  0.00  0.00    +0.149 HD
ATOM     35  H   UNL     1     142.520 165.818 187.879  0.00  0.00    +0.039 HD
ATOM     36  H   UNL     1     142.324 166.961 185.577  0.00  0.00    +0.032 HD
ATOM     37  H   UNL     1     142.862 168.447 186.313  0.00  0.00    +0.032 HD
ATOM     38  H   UNL     1     143.794 165.198 185.164  0.00  0.00    +0.057 HD
ENDROOT
BRANCH   8  39
ATOM     39  C   UNL     1     151.138 165.778 188.808  0.00  0.00    -0.026 A 
ATOM     40  C   UNL     1     151.622 166.634 187.803  0.00  0.00    -0.053 A 
ATOM     41  C   UNL     1     152.955 167.050 187.802  0.00  0.00    -0.020 A 
ATOM     42  C   UNL     1     153.819 166.600 188.792  0.00  0.00    +0.117 A 
ATOM     43  C   UNL     1     153.370 165.747 189.793  0.00  0.00    -0.020 A 
ATOM     44  C   UNL     1     152.034 165.335 189.796  0.00  0.00    -0.053 A 
ATOM     45  H   UNL     1     150.976 166.973 186.996  0.00  0.00    +0.062 HD
ATOM     46  H   UNL     1     153.319 167.713 187.022  0.00  0.00    +0.065 HD
ATOM     47  H   UNL     1     154.039 165.377 190.564  0.00  0.00    +0.065 HD
ATOM     48  H   UNL     1     151.696 164.642 190.566  0.00  0.00    +0.062 HD
BRANCH  42  49
ATOM     49  O   UNL     1     155.120 167.006 188.733  0.00  0.00    -0.507 OA
ATOM     50  H   UNL     1     155.181 167.744 188.103  0.00  0.00    +0.292 HD
ENDBRANCH  42  49
ENDBRANCH   8  39
BRANCH   1  51
ATOM     51  C   UNL     1     146.317 165.247 183.846  0.00  0.00    -0.059 C 
ATOM     52  H   UNL     1     145.600 165.905 183.343  0.00  0.00    +0.024 HD
ATOM     53  H   UNL     1     146.272 164.270 183.351  0.00  0.00    +0.024 HD
ATOM     54  H   UNL     1     147.322 165.660 183.687  0.00  0.00    +0.024 HD
ENDBRANCH   1  51
BRANCH  22  55
ATOM     55  C   UNL     1     145.407 167.817 186.820  0.00  0.00    -0.044 C 
ATOM     56  H   UNL     1     146.400 167.357 186.753  0.00  0.00    +0.027 HD
ATOM     57  H   UNL     1     145.427 168.764 186.274  0.00  0.00    +0.027 HD
ATOM     58  H   UNL     1     145.242 168.036 187.878  0.00  0.00    +0.027 HD
ENDBRANCH  22  55
BRANCH  20  59
ATOM     59  C   UNL     1     140.776 167.043 187.708  0.00  0.00    -0.054 C 
ATOM     60  H   UNL     1     140.430 167.403 186.732  0.00  0.00    +0.024 HD
ATOM     61  H   UNL     1     140.280 166.089 187.916  0.00  0.00    +0.024 HD
ATOM     62  H   UNL     1     140.449 167.766 188.463  0.00  0.00    +0.024 HD
ENDBRANCH  20  59
BRANCH  16  63
ATOM     63  C   UNL     1     143.001 167.018 192.425  0.00  0.00    -0.038 C 
ATOM     64  H   UNL     1     143.338 167.542 193.325  0.00  0.00    +0.025 HD
ATOM     65  H   UNL     1     141.926 167.205 192.319  0.00  0.00    +0.025 HD
ATOM     66  H   UNL     1     143.137 165.943 192.583  0.00  0.00    +0.025 HD
ENDBRANCH  16  63
BRANCH  13  67
ATOM     67  C   UNL     1     146.075 169.239 190.593  0.00  0.00    +0.004 C 
ATOM     68  H   UNL     1     146.781 169.460 189.791  0.00  0.00    +0.043 HD
ATOM     69  H   UNL     1     146.222 169.991 191.373  0.00  0.00    +0.043 HD
ATOM     70  H   UNL     1     145.050 169.307 190.211  0.00  0.00    +0.043 HD
ENDBRANCH  13  67
BRANCH   3  71
ATOM     71  C   UNL     1     145.290 164.028 188.210  0.00  0.00    -0.028 C 
ATOM     72  H   UNL     1     144.258 163.852 187.887  0.00  0.00    +0.027 HD
ATOM     73  H   UNL     1     145.360 163.604 189.215  0.00  0.00    +0.027 HD
ATOM     74  H   UNL     1     145.444 165.108 188.250  0.00  0.00    +0.027 HD
ENDBRANCH   3  71
BRANCH  12  75
ATOM     75  C   UNL     1     148.563 168.415 192.053  0.00  0.00    +0.003 C 
ATOM     76  H   UNL     1     148.865 169.227 191.386  0.00  0.00    +0.034 HD
ATOM     77  H   UNL     1     147.971 168.895 192.845  0.00  0.00    +0.034 HD
BRANCH  75  78
ATOM     78  C   UNL     1     149.784 167.808 192.679  0.00  0.00    -0.006 A 
ATOM     79  C   UNL     1     151.094 167.956 192.273  0.00  0.00    +0.087 A 
ATOM     80  N   UNL     1     151.899 167.204 193.074  0.00  0.00    -0.349 N 
ATOM     81  C   UNL     1     151.145 166.564 194.030  0.00  0.00    +0.048 A 
ATOM     82  C   UNL     1     151.542 165.691 195.049  0.00  0.00    -0.038 A 
ATOM     83  C   UNL     1     150.545 165.180 195.886  0.00  0.00    -0.060 A 
ATOM     84  C   UNL     1     149.211 165.536 195.711  0.00  0.00    -0.061 A 
ATOM     85  C   UNL     1     148.833 166.412 194.687  0.00  0.00    -0.052 A 
ATOM     86  C   UNL     1     149.817 166.938 193.821  0.00  0.00    +0.004 A 
ATOM     87 BR   UNL     1     151.749 168.999 190.821  0.00  0.00    -0.031 Br
ATOM     88  H   UNL     1     152.898 167.109 192.956  0.00  0.00    +0.166 HD
ATOM     89  H   UNL     1     152.582 165.418 195.193  0.00  0.00    +0.064 HD
ATOM     90  H   UNL     1     150.819 164.500 196.689  0.00  0.00    +0.062 HD
ATOM     91  H   UNL     1     148.453 165.133 196.379  0.00  0.00    +0.062 HD
ATOM     92  H   UNL     1     147.788 166.682 194.572  0.00  0.00    +0.062 HD
ENDBRANCH  75  78
ENDBRANCH  12  75
TORSDOF 10
ENDMDL
MODEL 4
REMARK VINA RESULT:      -6.5      4.062      9.517
REMARK  Name = Jasplakinolide_conf1
REMARK  10 active torsions:
REMARK  status: ('A' for Active; 'I' for Inactive)
REMARK    1  A    between atoms: C_1  and  C_2
REMARK    2  A    between atoms: C_4  and  C_47
REMARK    3  A    between atoms: C_9  and  C_40
REMARK    4  A    between atoms: C_13  and  C_29
REMARK    5  A    between atoms: N_14  and  C_28
REMARK    6  A    between atoms: C_17  and  C_27
REMARK    7  A    between atoms: C_21  and  C_26
REMARK    8  A    between atoms: C_23  and  C_25
REMARK    9  A    between atoms: C_29  and  C_30
REMARK   10  A    between atoms: C_43  and  O_46
REMARK                            x       y       z     vdW  Elec       q    Type
REMARK                         _______ _______ _______ _____ _____    ______ ____
ROOT
ATOM      1  C   UNL     1     151.406 168.179 191.839  0.00  0.00    -0.022 C 
ATOM      2  C   UNL     1     151.173 167.461 193.191  0.00  0.00    -0.010 C 
ATOM      3  C   UNL     1     150.269 166.214 193.145  0.00  0.00    +0.101 C 
ATOM      4  O   UNL     1     148.951 166.644 192.753  0.00  0.00    -0.462 OA
ATOM      5  C   UNL     1     147.920 165.837 193.111  0.00  0.00    +0.309 C 
ATOM      6  O   UNL     1     148.023 164.811 193.773  0.00  0.00    -0.251 OA
ATOM      7  C   UNL     1     146.596 166.403 192.678  0.00  0.00    +0.067 C 
ATOM      8  C   UNL     1     146.557 166.762 191.188  0.00  0.00    +0.058 C 
ATOM      9  N   UNL     1     146.672 165.582 190.345  0.00  0.00    -0.306 N 
ATOM     10  C   UNL     1     147.407 165.577 189.174  0.00  0.00    +0.234 C 
ATOM     11  O   UNL     1     148.024 166.563 188.774  0.00  0.00    -0.274 OA
ATOM     12  C   UNL     1     147.374 164.232 188.406  0.00  0.00    +0.106 C 
ATOM     13  N   UNL     1     148.722 163.917 187.874  0.00  0.00    -0.291 N 
ATOM     14  C   UNL     1     149.555 163.109 188.638  0.00  0.00    +0.236 C 
ATOM     15  O   UNL     1     149.237 162.757 189.781  0.00  0.00    -0.274 OA
ATOM     16  C   UNL     1     150.920 162.677 188.056  0.00  0.00    +0.097 C 
ATOM     17  N   UNL     1     151.954 163.346 188.838  0.00  0.00    -0.304 N 
ATOM     18  C   UNL     1     152.776 164.311 188.308  0.00  0.00    +0.217 C 
ATOM     19  O   UNL     1     152.762 164.624 187.121  0.00  0.00    -0.275 OA
ATOM     20  C   UNL     1     153.743 164.923 189.312  0.00  0.00    +0.036 C 
ATOM     21  C   UNL     1     153.771 166.455 189.197  0.00  0.00    -0.021 C 
ATOM     22  C   UNL     1     152.534 167.115 189.787  0.00  0.00    -0.076 C 
ATOM     23  C   UNL     1     152.543 167.542 191.066  0.00  0.00    -0.082 C 
ATOM     24  H   UNL     1     150.472 168.156 191.269  0.00  0.00    +0.034 HD
ATOM     25  H   UNL     1     152.133 167.192 193.649  0.00  0.00    +0.031 HD
ATOM     26  H   UNL     1     150.693 168.173 193.877  0.00  0.00    +0.031 HD
ATOM     27  H   UNL     1     150.230 165.818 194.169  0.00  0.00    +0.073 HD
ATOM     28  H   UNL     1     146.394 167.279 193.304  0.00  0.00    +0.040 HD
ATOM     29  H   UNL     1     145.835 165.649 192.916  0.00  0.00    +0.040 HD
ATOM     30  H   UNL     1     147.409 167.420 190.973  0.00  0.00    +0.055 HD
ATOM     31  H   UNL     1     146.077 164.787 190.551  0.00  0.00    +0.149 HD
ATOM     32  H   UNL     1     147.129 163.458 189.144  0.00  0.00    +0.060 HD
ATOM     33  H   UNL     1     151.011 162.937 186.999  0.00  0.00    +0.059 HD
ATOM     34  H   UNL     1     151.936 163.196 189.841  0.00  0.00    +0.149 HD
ATOM     35  H   UNL     1     153.447 164.641 190.330  0.00  0.00    +0.039 HD
ATOM     36  H   UNL     1     154.657 166.835 189.723  0.00  0.00    +0.032 HD
ATOM     37  H   UNL     1     153.897 166.774 188.155  0.00  0.00    +0.032 HD
ATOM     38  H   UNL     1     153.460 167.409 191.641  0.00  0.00    +0.057 HD
ENDROOT
BRANCH   8  39
ATOM     39  C   UNL     1     145.283 167.512 190.816  0.00  0.00    -0.026 A 
ATOM     40  C   UNL     1     145.305 168.701 190.066  0.00  0.00    -0.053 A 
ATOM     41  C   UNL     1     144.120 169.378 189.768  0.00  0.00    -0.020 A 
ATOM     42  C   UNL     1     142.908 168.885 190.232  0.00  0.00    +0.117 A 
ATOM     43  C   UNL     1     142.857 167.716 190.983  0.00  0.00    -0.020 A 
ATOM     44  C   UNL     1     144.043 167.037 191.277  0.00  0.00    -0.053 A 
ATOM     45  H   UNL     1     146.243 169.128 189.720  0.00  0.00    +0.062 HD
ATOM     46  H   UNL     1     144.148 170.294 189.185  0.00  0.00    +0.065 HD
ATOM     47  H   UNL     1     141.918 167.328 191.364  0.00  0.00    +0.065 HD
ATOM     48  H   UNL     1     144.000 166.139 191.892  0.00  0.00    +0.062 HD
BRANCH  42  49
ATOM     49  O   UNL     1     141.780 169.595 189.944  0.00  0.00    -0.507 OA
ATOM     50  H   UNL     1     141.641 169.570 188.982  0.00  0.00    +0.292 HD
ENDBRANCH  42  49
ENDBRANCH   8  39
BRANCH   1  51
ATOM     51  C   UNL     1     151.761 169.650 192.082  0.00  0.00    -0.059 C 
ATOM     52  H   UNL     1     152.789 169.859 191.766  0.00  0.00    +0.024 HD
ATOM     53  H   UNL     1     151.687 169.904 193.147  0.00  0.00    +0.024 HD
ATOM     54  H   UNL     1     151.095 170.323 191.528  0.00  0.00    +0.024 HD
ENDBRANCH   1  51
BRANCH  22  55
ATOM     55  C   UNL     1     151.367 167.273 188.847  0.00  0.00    -0.044 C 
ATOM     56  H   UNL     1     151.329 168.294 188.451  0.00  0.00    +0.027 HD
ATOM     57  H   UNL     1     151.460 166.580 188.007  0.00  0.00    +0.027 HD
ATOM     58  H   UNL     1     150.403 167.097 189.331  0.00  0.00    +0.027 HD
ENDBRANCH  22  55
BRANCH  20  59
ATOM     59  C   UNL     1     155.128 164.333 189.046  0.00  0.00    -0.054 C 
ATOM     60  H   UNL     1     155.783 164.442 189.919  0.00  0.00    +0.024 HD
ATOM     61  H   UNL     1     155.057 163.268 188.803  0.00  0.00    +0.024 HD
ATOM     62  H   UNL     1     155.611 164.840 188.204  0.00  0.00    +0.024 HD
ENDBRANCH  20  59
BRANCH  16  63
ATOM     63  C   UNL     1     151.077 161.164 188.177  0.00  0.00    -0.038 C 
ATOM     64  H   UNL     1     150.513 160.783 189.034  0.00  0.00    +0.025 HD
ATOM     65  H   UNL     1     150.708 160.645 187.284  0.00  0.00    +0.025 HD
ATOM     66  H   UNL     1     152.129 160.892 188.309  0.00  0.00    +0.025 HD
ENDBRANCH  16  63
BRANCH  13  67
ATOM     67  C   UNL     1     149.171 164.604 186.667  0.00  0.00    +0.004 C 
ATOM     68  H   UNL     1     150.110 165.131 186.841  0.00  0.00    +0.043 HD
ATOM     69  H   UNL     1     148.437 165.344 186.337  0.00  0.00    +0.043 HD
ATOM     70  H   UNL     1     149.310 163.853 185.880  0.00  0.00    +0.043 HD
ENDBRANCH  13  67
BRANCH   3  71
ATOM     71  C   UNL     1     150.756 165.116 192.205  0.00  0.00    -0.028 C 
ATOM     72  H   UNL     1     150.969 164.199 192.765  0.00  0.00    +0.027 HD
ATOM     73  H   UNL     1     149.989 164.845 191.476  0.00  0.00    +0.027 HD
ATOM     74  H   UNL     1     151.673 165.409 191.690  0.00  0.00    +0.027 HD
ENDBRANCH   3  71
BRANCH  12  75
ATOM     75  C   UNL     1     146.272 164.201 187.328  0.00  0.00    +0.003 C 
ATOM     76  H   UNL     1     146.341 165.083 186.685  0.00  0.00    +0.034 HD
ATOM     77  H   UNL     1     146.451 163.344 186.664  0.00  0.00    +0.034 HD
BRANCH  75  78
ATOM     78  C   UNL     1     144.879 164.093 187.873  0.00  0.00    -0.006 A 
ATOM     79  C   UNL     1     144.327 163.028 188.556  0.00  0.00    +0.087 A 
ATOM     80  N   UNL     1     143.022 163.303 188.835  0.00  0.00    -0.349 N 
ATOM     81  C   UNL     1     142.693 164.552 188.362  0.00  0.00    +0.048 A 
ATOM     82  C   UNL     1     141.475 165.239 188.413  0.00  0.00    -0.038 A 
ATOM     83  C   UNL     1     141.427 166.513 187.840  0.00  0.00    -0.060 A 
ATOM     84  C   UNL     1     142.554 167.075 187.248  0.00  0.00    -0.061 A 
ATOM     85  C   UNL     1     143.765 166.373 187.207  0.00  0.00    -0.052 A 
ATOM     86  C   UNL     1     143.841 165.081 187.770  0.00  0.00    +0.004 A 
ATOM     87 BR   UNL     1     145.176 161.396 189.043  0.00  0.00    -0.031 Br
ATOM     88  H   UNL     1     142.387 162.664 189.292  0.00  0.00    +0.166 HD
ATOM     89  H   UNL     1     140.597 164.806 188.882  0.00  0.00    +0.064 HD
ATOM     90  H   UNL     1     140.496 167.075 187.865  0.00  0.00    +0.062 HD
ATOM     91  H   UNL     1     142.497 168.071 186.815  0.00  0.00    +0.062 HD
ATOM     92  H   UNL     1     144.633 166.833 186.745  0.00  0.00    +0.062 HD
ENDBRANCH  75  78
ENDBRANCH  12  75
TORSDOF 10
ENDMDL
MODEL 5
REMARK VINA RESULT:      -6.5      3.624      7.475
REMARK  Name = Jasplakinolide_conf1
REMARK  10 active torsions:
REMARK  status: ('A' for Active; 'I' for Inactive)
REMARK    1  A    between atoms: C_1  and  C_2
REMARK    2  A    between atoms: C_4  and  C_47
REMARK    3  A    between atoms: C_9  and  C_40
REMARK    4  A    between atoms: C_13  and  C_29
REMARK    5  A    between atoms: N_14  and  C_28
REMARK    6  A    between atoms: C_17  and  C_27
REMARK    7  A    between atoms: C_21  and  C_26
REMARK    8  A    between atoms: C_23  and  C_25
REMARK    9  A    between atoms: C_29  and  C_30
REMARK   10  A    between atoms: C_43  and  O_46
REMARK                            x       y       z     vdW  Elec       q    Type
REMARK                         _______ _______ _______ _____ _____    ______ ____
ROOT
ATOM      1  C   UNL     1     147.218 161.432 189.027  0.00  0.00    -0.022 C 
ATOM      2  C   UNL     1     146.528 161.834 187.700  0.00  0.00    -0.010 C 
ATOM      3  C   UNL     1     146.528 163.340 187.370  0.00  0.00    +0.101 C 
ATOM      4  O   UNL     1     145.747 164.008 188.381  0.00  0.00    -0.462 OA
ATOM      5  C   UNL     1     145.217 165.210 188.038  0.00  0.00    +0.309 C 
ATOM      6  O   UNL     1     145.314 165.736 186.937  0.00  0.00    -0.251 OA
ATOM      7  C   UNL     1     144.399 165.794 189.157  0.00  0.00    +0.067 C 
ATOM      8  C   UNL     1     145.160 165.857 190.486  0.00  0.00    +0.058 C 
ATOM      9  N   UNL     1     146.285 166.777 190.422  0.00  0.00    -0.306 N 
ATOM     10  C   UNL     1     147.497 166.508 191.029  0.00  0.00    +0.234 C 
ATOM     11  O   UNL     1     147.711 165.470 191.652  0.00  0.00    -0.274 OA
ATOM     12  C   UNL     1     148.552 167.632 190.871  0.00  0.00    +0.106 C 
ATOM     13  N   UNL     1     149.887 167.041 190.606  0.00  0.00    -0.291 N 
ATOM     14  C   UNL     1     150.288 166.898 189.284  0.00  0.00    +0.236 C 
ATOM     15  O   UNL     1     149.517 167.141 188.348  0.00  0.00    -0.274 OA
ATOM     16  C   UNL     1     151.718 166.388 188.986  0.00  0.00    +0.097 C 
ATOM     17  N   UNL     1     151.587 165.060 188.396  0.00  0.00    -0.304 N 
ATOM     18  C   UNL     1     152.024 163.923 189.031  0.00  0.00    +0.217 C 
ATOM     19  O   UNL     1     152.630 163.942 190.098  0.00  0.00    -0.275 OA
ATOM     20  C   UNL     1     151.736 162.637 188.267  0.00  0.00    +0.036 C 
ATOM     21  C   UNL     1     151.155 161.557 189.193  0.00  0.00    -0.021 C 
ATOM     22  C   UNL     1     149.703 161.817 189.565  0.00  0.00    -0.076 C 
ATOM     23  C   UNL     1     148.712 161.260 188.840  0.00  0.00    -0.082 C 
ATOM     24  H   UNL     1     146.993 162.194 189.779  0.00  0.00    +0.034 HD
ATOM     25  H   UNL     1     146.969 161.283 186.860  0.00  0.00    +0.031 HD
ATOM     26  H   UNL     1     145.476 161.524 187.755  0.00  0.00    +0.031 HD
ATOM     27  H   UNL     1     146.029 163.447 186.398  0.00  0.00    +0.073 HD
ATOM     28  H   UNL     1     143.489 165.190 189.247  0.00  0.00    +0.040 HD
ATOM     29  H   UNL     1     144.093 166.798 188.836  0.00  0.00    +0.040 HD
ATOM     30  H   UNL     1     145.551 164.854 190.704  0.00  0.00    +0.055 HD
ATOM     31  H   UNL     1     146.124 167.703 190.042  0.00  0.00    +0.149 HD
ATOM     32  H   UNL     1     148.268 168.202 189.978  0.00  0.00    +0.060 HD
ATOM     33  H   UNL     1     152.331 166.348 189.888  0.00  0.00    +0.059 HD
ATOM     34  H   UNL     1     151.007 164.984 187.568  0.00  0.00    +0.149 HD
ATOM     35  H   UNL     1     151.027 162.840 187.455  0.00  0.00    +0.039 HD
ATOM     36  H   UNL     1     151.220 160.584 188.688  0.00  0.00    +0.032 HD
ATOM     37  H   UNL     1     151.755 161.449 190.105  0.00  0.00    +0.032 HD
ATOM     38  H   UNL     1     148.991 160.618 188.004  0.00  0.00    +0.057 HD
ENDROOT
BRANCH   8  39
ATOM     39  C   UNL     1     144.254 166.264 191.642  0.00  0.00    -0.026 A 
ATOM     40  C   UNL     1     144.679 166.214 192.981  0.00  0.00    -0.053 A 
ATOM     41  C   UNL     1     143.812 166.568 194.018  0.00  0.00    -0.020 A 
ATOM     42  C   UNL     1     142.511 166.956 193.727  0.00  0.00    +0.117 A 
ATOM     43  C   UNL     1     142.061 167.007 192.413  0.00  0.00    -0.020 A 
ATOM     44  C   UNL     1     142.931 166.657 191.376  0.00  0.00    -0.053 A 
ATOM     45  H   UNL     1     145.681 165.880 193.239  0.00  0.00    +0.062 HD
ATOM     46  H   UNL     1     144.151 166.528 195.049  0.00  0.00    +0.065 HD
ATOM     47  H   UNL     1     141.042 167.294 192.174  0.00  0.00    +0.065 HD
ATOM     48  H   UNL     1     142.563 166.669 190.351  0.00  0.00    +0.062 HD
BRANCH  42  49
ATOM     49  O   UNL     1     141.690 167.262 194.773  0.00  0.00    -0.507 OA
ATOM     50  H   UNL     1     141.831 168.195 195.009  0.00  0.00    +0.292 HD
ENDBRANCH  42  49
ENDBRANCH   8  39
BRANCH   1  51
ATOM     51  C   UNL     1     146.645 160.102 189.532  0.00  0.00    -0.059 C 
ATOM     52  H   UNL     1     145.956 160.269 190.368  0.00  0.00    +0.024 HD
ATOM     53  H   UNL     1     147.441 159.439 189.888  0.00  0.00    +0.024 HD
ATOM     54  H   UNL     1     146.094 159.575 188.742  0.00  0.00    +0.024 HD
ENDBRANCH   1  51
BRANCH  22  55
ATOM     55  C   UNL     1     149.485 162.681 190.780  0.00  0.00    -0.044 C 
ATOM     56  H   UNL     1     148.503 163.165 190.736  0.00  0.00    +0.027 HD
ATOM     57  H   UNL     1     149.532 162.075 191.689  0.00  0.00    +0.027 HD
ATOM     58  H   UNL     1     150.219 163.486 190.867  0.00  0.00    +0.027 HD
ENDBRANCH  22  55
BRANCH  20  59
ATOM     59  C   UNL     1     153.047 162.165 187.637  0.00  0.00    -0.054 C 
ATOM     60  H   UNL     1     152.865 161.591 186.720  0.00  0.00    +0.024 HD
ATOM     61  H   UNL     1     153.688 163.016 187.387  0.00  0.00    +0.024 HD
ATOM     62  H   UNL     1     153.599 161.518 188.328  0.00  0.00    +0.024 HD
ENDBRANCH  20  59
BRANCH  16  63
ATOM     63  C   UNL     1     152.404 167.328 188.000  0.00  0.00    -0.038 C 
ATOM     64  H   UNL     1     152.186 168.373 188.243  0.00  0.00    +0.025 HD
ATOM     65  H   UNL     1     153.494 167.208 188.015  0.00  0.00    +0.025 HD
ATOM     66  H   UNL     1     152.064 167.135 186.978  0.00  0.00    +0.025 HD
ENDBRANCH  16  63
BRANCH  13  67
ATOM     67  C   UNL     1     150.637 166.486 191.729  0.00  0.00    +0.004 C 
ATOM     68  H   UNL     1     150.844 167.251 192.479  0.00  0.00    +0.043 HD
ATOM     69  H   UNL     1     151.598 166.082 191.401  0.00  0.00    +0.043 HD
ATOM     70  H   UNL     1     150.038 165.683 192.176  0.00  0.00    +0.043 HD
ENDBRANCH  13  67
BRANCH   3  71
ATOM     71  C   UNL     1     147.915 163.968 187.289  0.00  0.00    -0.028 C 
ATOM     72  H   UNL     1     148.467 163.570 186.432  0.00  0.00    +0.027 HD
ATOM     73  H   UNL     1     147.857 165.047 187.127  0.00  0.00    +0.027 HD
ATOM     74  H   UNL     1     148.502 163.758 188.186  0.00  0.00    +0.027 HD
ENDBRANCH   3  71
BRANCH  12  75
ATOM     75  C   UNL     1     148.546 168.612 192.060  0.00  0.00    +0.003 C 
ATOM     76  H   UNL     1     147.653 168.464 192.674  0.00  0.00    +0.034 HD
ATOM     77  H   UNL     1     149.393 168.374 192.719  0.00  0.00    +0.034 HD
BRANCH  75  78
ATOM     78  C   UNL     1     148.645 170.057 191.670  0.00  0.00    -0.006 A 
ATOM     79  C   UNL     1     149.779 170.843 191.648  0.00  0.00    +0.087 A 
ATOM     80  N   UNL     1     149.437 172.110 191.284  0.00  0.00    -0.349 N 
ATOM     81  C   UNL     1     148.086 172.183 191.040  0.00  0.00    +0.048 A 
ATOM     82  C   UNL     1     147.300 173.275 190.653  0.00  0.00    -0.038 A 
ATOM     83  C   UNL     1     145.931 173.055 190.478  0.00  0.00    -0.060 A 
ATOM     84  C   UNL     1     145.376 171.794 190.676  0.00  0.00    -0.061 A 
ATOM     85  C   UNL     1     146.178 170.713 191.063  0.00  0.00    -0.052 A 
ATOM     86  C   UNL     1     147.563 170.906 191.255  0.00  0.00    +0.004 A 
ATOM     87 BR   UNL     1     151.560 170.324 192.074  0.00  0.00    -0.031 Br
ATOM     88  H   UNL     1     150.083 172.886 191.234  0.00  0.00    +0.166 HD
ATOM     89  H   UNL     1     147.732 174.257 190.489  0.00  0.00    +0.064 HD
ATOM     90  H   UNL     1     145.293 173.882 190.176  0.00  0.00    +0.062 HD
ATOM     91  H   UNL     1     144.310 171.644 190.527  0.00  0.00    +0.062 HD
ATOM     92  H   UNL     1     145.726 169.737 191.206  0.00  0.00    +0.062 HD
ENDBRANCH  75  78
ENDBRANCH  12  75
TORSDOF 10
ENDMDL
MODEL 6
REMARK VINA RESULT:      -6.5      2.923      6.498
REMARK  Name = Jasplakinolide_conf1
REMARK  10 active torsions:
REMARK  status: ('A' for Active; 'I' for Inactive)
REMARK    1  A    between atoms: C_1  and  C_2
REMARK    2  A    between atoms: C_4  and  C_47
REMARK    3  A    between atoms: C_9  and  C_40
REMARK    4  A    between atoms: C_13  and  C_29
REMARK    5  A    between atoms: N_14  and  C_28
REMARK    6  A    between atoms: C_17  and  C_27
REMARK    7  A    between atoms: C_21  and  C_26
REMARK    8  A    between atoms: C_23  and  C_25
REMARK    9  A    between atoms: C_29  and  C_30
REMARK   10  A    between atoms: C_43  and  O_46
REMARK                            x       y       z     vdW  Elec       q    Type
REMARK                         _______ _______ _______ _____ _____    ______ ____
ROOT
ATOM      1  C   UNL     1     141.741 169.346 188.535  0.00  0.00    -0.022 C 
ATOM      2  C   UNL     1     142.174 170.118 187.265  0.00  0.00    -0.010 C 
ATOM      3  C   UNL     1     143.674 170.054 186.915  0.00  0.00    +0.101 C 
ATOM      4  O   UNL     1     144.398 170.706 187.978  0.00  0.00    -0.462 OA
ATOM      5  C   UNL     1     145.627 171.189 187.664  0.00  0.00    +0.309 C 
ATOM      6  O   UNL     1     146.137 171.152 186.551  0.00  0.00    -0.251 OA
ATOM      7  C   UNL     1     146.270 171.873 188.838  0.00  0.00    +0.067 C 
ATOM      8  C   UNL     1     146.297 171.002 190.099  0.00  0.00    +0.058 C 
ATOM      9  N   UNL     1     147.145 169.833 189.930  0.00  0.00    -0.306 N 
ATOM     10  C   UNL     1     146.808 168.593 190.439  0.00  0.00    +0.234 C 
ATOM     11  O   UNL     1     145.763 168.392 191.056  0.00  0.00    -0.274 OA
ATOM     12  C   UNL     1     147.862 167.489 190.179  0.00  0.00    +0.106 C 
ATOM     13  N   UNL     1     147.188 166.219 189.813  0.00  0.00    -0.291 N 
ATOM     14  C   UNL     1     147.009 165.938 188.464  0.00  0.00    +0.236 C 
ATOM     15  O   UNL     1     147.292 166.768 187.592  0.00  0.00    -0.274 OA
ATOM     16  C   UNL     1     146.410 164.572 188.056  0.00  0.00    +0.097 C 
ATOM     17  N   UNL     1     145.088 164.831 187.497  0.00  0.00    -0.304 N 
ATOM     18  C   UNL     1     143.930 164.413 188.109  0.00  0.00    +0.217 C 
ATOM     19  O   UNL     1     143.921 163.721 189.122  0.00  0.00    -0.275 OA
ATOM     20  C   UNL     1     142.659 164.842 187.389  0.00  0.00    +0.036 C 
ATOM     21  C   UNL     1     141.624 165.408 188.374  0.00  0.00    -0.021 C 
ATOM     22  C   UNL     1     141.976 166.806 188.861  0.00  0.00    -0.076 C 
ATOM     23  C   UNL     1     141.476 167.886 188.228  0.00  0.00    -0.082 C 
ATOM     24  H   UNL     1     142.522 169.461 189.293  0.00  0.00    +0.034 HD
ATOM     25  H   UNL     1     141.590 169.783 186.398  0.00  0.00    +0.031 HD
ATOM     26  H   UNL     1     141.930 171.179 187.410  0.00  0.00    +0.031 HD
ATOM     27  H   UNL     1     143.804 170.625 185.986  0.00  0.00    +0.073 HD
ATOM     28  H   UNL     1     145.724 172.808 189.011  0.00  0.00    +0.040 HD
ATOM     29  H   UNL     1     147.288 172.143 188.530  0.00  0.00    +0.040 HD
ATOM     30  H   UNL     1     145.274 170.657 190.297  0.00  0.00    +0.055 HD
ATOM     31  H   UNL     1     148.077 169.968 189.552  0.00  0.00    +0.149 HD
ATOM     32  H   UNL     1     148.441 167.810 189.305  0.00  0.00    +0.060 HD
ATOM     33  H   UNL     1     146.340 163.890 188.905  0.00  0.00    +0.059 HD
ATOM     34  H   UNL     1     145.040 165.482 186.721  0.00  0.00    +0.149 HD
ATOM     35  H   UNL     1     142.898 165.602 186.636  0.00  0.00    +0.039 HD
ATOM     36  H   UNL     1     140.645 165.445 187.879  0.00  0.00    +0.032 HD
ATOM     37  H   UNL     1     141.487 164.742 189.235  0.00  0.00    +0.032 HD
ATOM     38  H   UNL     1     140.811 167.717 187.380  0.00  0.00    +0.057 HD
ENDROOT
BRANCH   8  39
ATOM     39  C   UNL     1     146.769 171.783 191.320  0.00  0.00    -0.026 A 
ATOM     40  C   UNL     1     147.961 171.468 191.996  0.00  0.00    -0.053 A 
ATOM     41  C   UNL     1     148.349 172.187 193.129  0.00  0.00    -0.020 A 
ATOM     42  C   UNL     1     147.542 173.210 193.607  0.00  0.00    +0.117 A 
ATOM     43  C   UNL     1     146.354 173.538 192.964  0.00  0.00    -0.020 A 
ATOM     44  C   UNL     1     145.969 172.821 191.827  0.00  0.00    -0.053 A 
ATOM     45  H   UNL     1     148.595 170.649 191.664  0.00  0.00    +0.062 HD
ATOM     46  H   UNL     1     149.273 171.937 193.643  0.00  0.00    +0.065 HD
ATOM     47  H   UNL     1     145.707 174.326 193.336  0.00  0.00    +0.065 HD
ATOM     48  H   UNL     1     145.022 173.062 191.346  0.00  0.00    +0.062 HD
BRANCH  42  49
ATOM     49  O   UNL     1     147.945 173.863 194.735  0.00  0.00    -0.507 OA
ATOM     50  H   UNL     1     148.781 173.469 195.034  0.00  0.00    +0.292 HD
ENDBRANCH  42  49
ENDBRANCH   8  39
BRANCH   1  51
ATOM     51  C   UNL     1     140.454 169.955 189.103  0.00  0.00    -0.059 C 
ATOM     52  H   UNL     1     140.412 171.032 188.903  0.00  0.00    +0.024 HD
ATOM     53  H   UNL     1     140.400 169.821 190.190  0.00  0.00    +0.024 HD
ATOM     54  H   UNL     1     139.561 169.496 188.662  0.00  0.00    +0.024 HD
ENDBRANCH   1  51
BRANCH  22  55
ATOM     55  C   UNL     1     142.862 166.869 190.078  0.00  0.00    -0.044 C 
ATOM     56  H   UNL     1     143.381 165.915 190.226  0.00  0.00    +0.027 HD
ATOM     57  H   UNL     1     143.612 167.656 189.961  0.00  0.00    +0.027 HD
ATOM     58  H   UNL     1     142.307 167.062 191.000  0.00  0.00    +0.027 HD
ENDBRANCH  22  55
BRANCH  20  59
ATOM     59  C   UNL     1     142.101 163.619 186.660  0.00  0.00    -0.054 C 
ATOM     60  H   UNL     1     141.726 163.885 185.664  0.00  0.00    +0.024 HD
ATOM     61  H   UNL     1     142.872 162.851 186.541  0.00  0.00    +0.024 HD
ATOM     62  H   UNL     1     141.269 163.178 187.220  0.00  0.00    +0.024 HD
ENDBRANCH  20  59
BRANCH  16  63
ATOM     63  C   UNL     1     147.297 163.914 187.004  0.00  0.00    -0.038 C 
ATOM     64  H   UNL     1     147.802 164.670 186.394  0.00  0.00    +0.025 HD
ATOM     65  H   UNL     1     148.073 163.288 187.461  0.00  0.00    +0.025 HD
ATOM     66  H   UNL     1     146.704 163.276 186.341  0.00  0.00    +0.025 HD
ENDBRANCH  16  63
BRANCH  13  67
ATOM     67  C   UNL     1     146.597 165.413 190.877  0.00  0.00    +0.004 C 
ATOM     68  H   UNL     1     145.510 165.506 190.882  0.00  0.00    +0.043 HD
ATOM     69  H   UNL     1     146.956 165.732 191.860  0.00  0.00    +0.043 HD
ATOM     70  H   UNL     1     146.877 164.367 190.709  0.00  0.00    +0.043 HD
ENDBRANCH  13  67
BRANCH   3  71
ATOM     71  C   UNL     1     144.215 168.643 186.712  0.00  0.00    -0.028 C 
ATOM     72  H   UNL     1     143.393 167.923 186.643  0.00  0.00    +0.027 HD
ATOM     73  H   UNL     1     144.763 168.555 185.771  0.00  0.00    +0.027 HD
ATOM     74  H   UNL     1     144.853 168.336 187.544  0.00  0.00    +0.027 HD
ENDBRANCH   3  71
BRANCH  12  75
ATOM     75  C   UNL     1     148.851 167.336 191.351  0.00  0.00    +0.003 C 
ATOM     76  H   UNL     1     148.817 168.218 191.998  0.00  0.00    +0.034 HD
ATOM     77  H   UNL     1     148.523 166.500 191.984  0.00  0.00    +0.034 HD
BRANCH  75  78
ATOM     78  C   UNL     1     150.269 167.083 190.934  0.00  0.00    -0.006 A 
ATOM     79  C   UNL     1     151.330 167.963 190.994  0.00  0.00    +0.087 A 
ATOM     80  N   UNL     1     152.438 167.366 190.473  0.00  0.00    -0.349 N 
ATOM     81  C   UNL     1     152.140 166.083 190.079  0.00  0.00    +0.048 A 
ATOM     82  C   UNL     1     152.957 165.112 189.488  0.00  0.00    -0.038 A 
ATOM     83  C   UNL     1     152.376 163.877 189.187  0.00  0.00    -0.060 A 
ATOM     84  C   UNL     1     151.038 163.625 189.471  0.00  0.00    -0.061 A 
ATOM     85  C   UNL     1     150.236 164.608 190.063  0.00  0.00    -0.052 A 
ATOM     86  C   UNL     1     150.792 165.868 190.372  0.00  0.00    +0.004 A 
ATOM     87 BR   UNL     1     151.321 169.748 191.656  0.00  0.00    -0.031 Br
ATOM     88  H   UNL     1     153.335 167.818 190.365  0.00  0.00    +0.166 HD
ATOM     89  H   UNL     1     154.003 165.303 189.273  0.00  0.00    +0.064 HD
ATOM     90  H   UNL     1     152.984 163.099 188.729  0.00  0.00    +0.062 HD
ATOM     91  H   UNL     1     150.609 162.654 189.235  0.00  0.00    +0.062 HD
ATOM     92  H   UNL     1     149.195 164.388 190.282  0.00  0.00    +0.062 HD
ENDBRANCH  75  78
ENDBRANCH  12  75
TORSDOF 10
ENDMDL
MODEL 7
REMARK VINA RESULT:      -6.4      4.740     10.440
REMARK  Name = Jasplakinolide_conf1
REMARK  10 active torsions:
REMARK  status: ('A' for Active; 'I' for Inactive)
REMARK    1  A    between atoms: C_1  and  C_2
REMARK    2  A    between atoms: C_4  and  C_47
REMARK    3  A    between atoms: C_9  and  C_40
REMARK    4  A    between atoms: C_13  and  C_29
REMARK    5  A    between atoms: N_14  and  C_28
REMARK    6  A    between atoms: C_17  and  C_27
REMARK    7  A    between atoms: C_21  and  C_26
REMARK    8  A    between atoms: C_23  and  C_25
REMARK    9  A    between atoms: C_29  and  C_30
REMARK   10  A    between atoms: C_43  and  O_46
REMARK                            x       y       z     vdW  Elec       q    Type
REMARK                         _______ _______ _______ _____ _____    ______ ____
ROOT
ATOM      1  C   UNL     1     151.317 168.343 191.491  0.00  0.00    -0.022 C 
ATOM      2  C   UNL     1     151.395 167.917 192.978  0.00  0.00    -0.010 C 
ATOM      3  C   UNL     1     150.666 166.609 193.344  0.00  0.00    +0.101 C 
ATOM      4  O   UNL     1     149.257 166.817 193.119  0.00  0.00    -0.462 OA
ATOM      5  C   UNL     1     148.410 166.012 193.811  0.00  0.00    +0.309 C 
ATOM      6  O   UNL     1     148.750 165.170 194.632  0.00  0.00    -0.251 OA
ATOM      7  C   UNL     1     146.972 166.343 193.521  0.00  0.00    +0.067 C 
ATOM      8  C   UNL     1     146.653 166.364 192.022  0.00  0.00    +0.058 C 
ATOM      9  N   UNL     1     146.787 165.046 191.422  0.00  0.00    -0.306 N 
ATOM     10  C   UNL     1     147.324 164.857 190.162  0.00  0.00    +0.234 C 
ATOM     11  O   UNL     1     147.736 165.786 189.470  0.00  0.00    -0.274 OA
ATOM     12  C   UNL     1     147.346 163.380 189.694  0.00  0.00    +0.106 C 
ATOM     13  N   UNL     1     148.624 163.087 188.999  0.00  0.00    -0.291 N 
ATOM     14  C   UNL     1     149.664 162.547 189.745  0.00  0.00    +0.236 C 
ATOM     15  O   UNL     1     149.579 162.422 190.972  0.00  0.00    -0.274 OA
ATOM     16  C   UNL     1     150.966 162.130 189.022  0.00  0.00    +0.097 C 
ATOM     17  N   UNL     1     152.013 163.048 189.456  0.00  0.00    -0.304 N 
ATOM     18  C   UNL     1     152.608 163.948 188.606  0.00  0.00    +0.217 C 
ATOM     19  O   UNL     1     152.367 163.993 187.403  0.00  0.00    -0.275 OA
ATOM     20  C   UNL     1     153.633 164.853 189.277  0.00  0.00    +0.036 C 
ATOM     21  C   UNL     1     153.442 166.319 188.858  0.00  0.00    -0.021 C 
ATOM     22  C   UNL     1     152.237 166.970 189.521  0.00  0.00    -0.076 C 
ATOM     23  C   UNL     1     152.391 167.663 190.667  0.00  0.00    -0.082 C 
ATOM     24  H   UNL     1     150.316 168.108 191.116  0.00  0.00    +0.034 HD
ATOM     25  H   UNL     1     152.442 167.845 193.298  0.00  0.00    +0.031 HD
ATOM     26  H   UNL     1     150.940 168.712 193.585  0.00  0.00    +0.031 HD
ATOM     27  H   UNL     1     150.841 166.443 194.416  0.00  0.00    +0.073 HD
ATOM     28  H   UNL     1     146.758 167.311 193.988  0.00  0.00    +0.040 HD
ATOM     29  H   UNL     1     146.363 165.590 194.038  0.00  0.00    +0.040 HD
ATOM     30  H   UNL     1     147.367 167.038 191.530  0.00  0.00    +0.055 HD
ATOM     31  H   UNL     1     146.341 164.262 191.885  0.00  0.00    +0.149 HD
ATOM     32  H   UNL     1     147.323 162.765 190.602  0.00  0.00    +0.060 HD
ATOM     33  H   UNL     1     150.855 162.161 187.936  0.00  0.00    +0.059 HD
ATOM     34  H   UNL     1     152.173 163.118 190.455  0.00  0.00    +0.149 HD
ATOM     35  H   UNL     1     153.540 164.771 190.367  0.00  0.00    +0.039 HD
ATOM     36  H   UNL     1     154.342 166.886 189.130  0.00  0.00    +0.032 HD
ATOM     37  H   UNL     1     153.360 166.414 187.768  0.00  0.00    +0.032 HD
ATOM     38  H   UNL     1     153.397 167.746 191.080  0.00  0.00    +0.057 HD
ENDROOT
BRANCH   8  39
ATOM     39  C   UNL     1     145.250 166.892 191.746  0.00  0.00    -0.026 A 
ATOM     40  C   UNL     1     144.972 167.761 190.676  0.00  0.00    -0.053 A 
ATOM     41  C   UNL     1     143.679 168.247 190.470  0.00  0.00    -0.020 A 
ATOM     42  C   UNL     1     142.659 167.886 191.340  0.00  0.00    +0.117 A 
ATOM     43  C   UNL     1     142.906 167.036 192.412  0.00  0.00    -0.020 A 
ATOM     44  C   UNL     1     144.200 166.546 192.614  0.00  0.00    -0.053 A 
ATOM     45  H   UNL     1     145.759 168.087 190.000  0.00  0.00    +0.062 HD
ATOM     46  H   UNL     1     143.475 168.916 189.639  0.00  0.00    +0.065 HD
ATOM     47  H   UNL     1     142.121 166.758 193.108  0.00  0.00    +0.065 HD
ATOM     48  H   UNL     1     144.394 165.904 193.474  0.00  0.00    +0.062 HD
BRANCH  42  49
ATOM     49  O   UNL     1     141.420 168.411 191.119  0.00  0.00    -0.507 OA
ATOM     50  H   UNL     1     141.498 169.380 191.095  0.00  0.00    +0.292 HD
ENDBRANCH  42  49
ENDBRANCH   8  39
BRANCH   1  51
ATOM     51  C   UNL     1     151.510 169.859 191.371  0.00  0.00    -0.059 C 
ATOM     52  H   UNL     1     151.969 170.265 192.279  0.00  0.00    +0.024 HD
ATOM     53  H   UNL     1     150.550 170.369 191.230  0.00  0.00    +0.024 HD
ATOM     54  H   UNL     1     152.157 170.117 190.522  0.00  0.00    +0.024 HD
ENDBRANCH   1  51
BRANCH  22  55
ATOM     55  C   UNL     1     150.927 166.809 188.795  0.00  0.00    -0.044 C 
ATOM     56  H   UNL     1     150.331 167.726 188.869  0.00  0.00    +0.027 HD
ATOM     57  H   UNL     1     151.103 166.597 187.737  0.00  0.00    +0.027 HD
ATOM     58  H   UNL     1     150.308 166.008 189.206  0.00  0.00    +0.027 HD
ENDBRANCH  22  55
BRANCH  20  59
ATOM     59  C   UNL     1     155.024 164.353 188.886  0.00  0.00    -0.054 C 
ATOM     60  H   UNL     1     155.790 165.114 189.077  0.00  0.00    +0.024 HD
ATOM     61  H   UNL     1     155.288 163.454 189.452  0.00  0.00    +0.024 HD
ATOM     62  H   UNL     1     155.063 164.104 187.820  0.00  0.00    +0.024 HD
ENDBRANCH  20  59
BRANCH  16  63
ATOM     63  C   UNL     1     151.336 160.701 189.409  0.00  0.00    -0.038 C 
ATOM     64  H   UNL     1     152.122 160.697 190.171  0.00  0.00    +0.025 HD
ATOM     65  H   UNL     1     150.478 160.156 189.819  0.00  0.00    +0.025 HD
ATOM     66  H   UNL     1     151.698 160.145 188.538  0.00  0.00    +0.025 HD
ENDBRANCH  16  63
BRANCH  13  67
ATOM     67  C   UNL     1     148.783 163.534 187.619  0.00  0.00    +0.004 C 
ATOM     68  H   UNL     1     147.879 163.344 187.038  0.00  0.00    +0.043 HD
ATOM     69  H   UNL     1     149.605 163.008 187.126  0.00  0.00    +0.043 HD
ATOM     70  H   UNL     1     148.995 164.610 187.631  0.00  0.00    +0.043 HD
ENDBRANCH  13  67
BRANCH   3  71
ATOM     71  C   UNL     1     151.138 165.385 192.567  0.00  0.00    -0.028 C 
ATOM     72  H   UNL     1     150.296 164.718 192.355  0.00  0.00    +0.027 HD
ATOM     73  H   UNL     1     151.547 165.662 191.593  0.00  0.00    +0.027 HD
ATOM     74  H   UNL     1     151.877 164.813 193.133  0.00  0.00    +0.027 HD
ENDBRANCH   3  71
BRANCH  12  75
ATOM     75  C   UNL     1     146.103 163.012 188.861  0.00  0.00    +0.003 C 
ATOM     76  H   UNL     1     145.190 163.195 189.435  0.00  0.00    +0.034 HD
ATOM     77  H   UNL     1     146.042 163.688 187.997  0.00  0.00    +0.034 HD
BRANCH  75  78
ATOM     78  C   UNL     1     146.095 161.599 188.355  0.00  0.00    -0.006 A 
ATOM     79  C   UNL     1     145.958 161.178 187.048  0.00  0.00    +0.087 A 
ATOM     80  N   UNL     1     145.953 159.817 187.015  0.00  0.00    -0.349 N 
ATOM     81  C   UNL     1     146.104 159.314 188.285  0.00  0.00    +0.048 A 
ATOM     82  C   UNL     1     146.146 157.986 188.727  0.00  0.00    -0.038 A 
ATOM     83  C   UNL     1     146.309 157.767 190.097  0.00  0.00    -0.060 A 
ATOM     84  C   UNL     1     146.430 158.832 190.985  0.00  0.00    -0.061 A 
ATOM     85  C   UNL     1     146.387 160.153 190.525  0.00  0.00    -0.052 A 
ATOM     86  C   UNL     1     146.215 160.406 189.147  0.00  0.00    +0.004 A 
ATOM     87 BR   UNL     1     145.772 162.261 185.494  0.00  0.00    -0.031 Br
ATOM     88  H   UNL     1     145.822 159.265 186.178  0.00  0.00    +0.166 HD
ATOM     89  H   UNL     1     146.060 157.154 188.036  0.00  0.00    +0.064 HD
ATOM     90  H   UNL     1     146.348 156.747 190.473  0.00  0.00    +0.062 HD
ATOM     91  H   UNL     1     146.564 158.637 192.046  0.00  0.00    +0.062 HD
ATOM     92  H   UNL     1     146.490 160.969 191.234  0.00  0.00    +0.062 HD
ENDBRANCH  75  78
ENDBRANCH  12  75
TORSDOF 10
ENDMDL
MODEL 8
REMARK VINA RESULT:      -6.4      3.260      6.787
REMARK  Name = Jasplakinolide_conf1
REMARK  10 active torsions:
REMARK  status: ('A' for Active; 'I' for Inactive)
REMARK    1  A    between atoms: C_1  and  C_2
REMARK    2  A    between atoms: C_4  and  C_47
REMARK    3  A    between atoms: C_9  and  C_40
REMARK    4  A    between atoms: C_13  and  C_29
REMARK    5  A    between atoms: N_14  and  C_28
REMARK    6  A    between atoms: C_17  and  C_27
REMARK    7  A    between atoms: C_21  and  C_26
REMARK    8  A    between atoms: C_23  and  C_25
REMARK    9  A    between atoms: C_29  and  C_30
REMARK   10  A    between atoms: C_43  and  O_46
REMARK                            x       y       z     vdW  Elec       q    Type
REMARK                         _______ _______ _______ _____ _____    ______ ____
ROOT
ATOM      1  C   UNL     1     144.633 166.563 184.862  0.00  0.00    -0.022 C 
ATOM      2  C   UNL     1     145.361 167.524 183.891  0.00  0.00    -0.010 C 
ATOM      3  C   UNL     1     146.598 168.247 184.459  0.00  0.00    +0.101 C 
ATOM      4  O   UNL     1     146.149 169.109 185.525  0.00  0.00    -0.462 OA
ATOM      5  C   UNL     1     146.948 170.164 185.826  0.00  0.00    +0.309 C 
ATOM      6  O   UNL     1     147.981 170.458 185.237  0.00  0.00    -0.251 OA
ATOM      7  C   UNL     1     146.364 171.005 186.926  0.00  0.00    +0.067 C 
ATOM      8  C   UNL     1     145.991 170.191 188.170  0.00  0.00    +0.058 C 
ATOM      9  N   UNL     1     147.164 169.622 188.815  0.00  0.00    -0.306 N 
ATOM     10  C   UNL     1     147.166 168.352 189.362  0.00  0.00    +0.234 C 
ATOM     11  O   UNL     1     146.183 167.614 189.327  0.00  0.00    -0.274 OA
ATOM     12  C   UNL     1     148.503 167.949 190.032  0.00  0.00    +0.106 C 
ATOM     13  N   UNL     1     148.828 166.538 189.709  0.00  0.00    -0.291 N 
ATOM     14  C   UNL     1     149.652 166.290 188.618  0.00  0.00    +0.236 C 
ATOM     15  O   UNL     1     150.012 167.201 187.863  0.00  0.00    -0.274 OA
ATOM     16  C   UNL     1     150.094 164.836 188.329  0.00  0.00    +0.097 C 
ATOM     17  N   UNL     1     149.444 164.427 187.089  0.00  0.00    -0.304 N 
ATOM     18  C   UNL     1     148.483 163.445 187.046  0.00  0.00    +0.217 C 
ATOM     19  O   UNL     1     148.159 162.782 188.026  0.00  0.00    -0.275 OA
ATOM     20  C   UNL     1     147.891 163.217 185.662  0.00  0.00    +0.036 C 
ATOM     21  C   UNL     1     146.359 163.122 185.719  0.00  0.00    -0.021 C 
ATOM     22  C   UNL     1     145.691 164.474 185.926  0.00  0.00    -0.076 C 
ATOM     23  C   UNL     1     145.276 165.191 184.862  0.00  0.00    -0.082 C 
ATOM     24  H   UNL     1     144.641 167.008 185.862  0.00  0.00    +0.034 HD
ATOM     25  H   UNL     1     145.646 166.995 182.973  0.00  0.00    +0.031 HD
ATOM     26  H   UNL     1     144.650 168.306 183.589  0.00  0.00    +0.031 HD
ATOM     27  H   UNL     1     147.003 168.862 183.644  0.00  0.00    +0.073 HD
ATOM     28  H   UNL     1     145.491 171.524 186.513  0.00  0.00    +0.040 HD
ATOM     29  H   UNL     1     147.111 171.771 187.172  0.00  0.00    +0.040 HD
ATOM     30  H   UNL     1     145.339 169.365 187.855  0.00  0.00    +0.055 HD
ATOM     31  H   UNL     1     147.954 170.232 188.994  0.00  0.00    +0.149 HD
ATOM     32  H   UNL     1     149.281 168.573 189.574  0.00  0.00    +0.060 HD
ATOM     33  H   UNL     1     149.826 164.161 189.143  0.00  0.00    +0.059 HD
ATOM     34  H   UNL     1     149.604 165.012 186.276  0.00  0.00    +0.149 HD
ATOM     35  H   UNL     1     148.180 164.040 184.996  0.00  0.00    +0.039 HD
ATOM     36  H   UNL     1     145.994 162.690 184.778  0.00  0.00    +0.032 HD
ATOM     37  H   UNL     1     146.032 162.426 186.501  0.00  0.00    +0.032 HD
ATOM     38  H   UNL     1     145.424 164.762 183.870  0.00  0.00    +0.057 HD
ENDROOT
BRANCH   8  39
ATOM     39  C   UNL     1     145.222 171.025 189.188  0.00  0.00    -0.026 A 
ATOM     40  C   UNL     1     144.384 170.443 190.155  0.00  0.00    -0.053 A 
ATOM     41  C   UNL     1     143.673 171.241 191.055  0.00  0.00    -0.020 A 
ATOM     42  C   UNL     1     143.778 172.624 190.984  0.00  0.00    +0.117 A 
ATOM     43  C   UNL     1     144.593 173.227 190.033  0.00  0.00    -0.020 A 
ATOM     44  C   UNL     1     145.308 172.427 189.136  0.00  0.00    -0.053 A 
ATOM     45  H   UNL     1     144.255 169.365 190.210  0.00  0.00    +0.062 HD
ATOM     46  H   UNL     1     143.029 170.781 191.799  0.00  0.00    +0.065 HD
ATOM     47  H   UNL     1     144.673 174.307 189.958  0.00  0.00    +0.065 HD
ATOM     48  H   UNL     1     145.921 172.907 188.373  0.00  0.00    +0.062 HD
BRANCH  42  49
ATOM     49  O   UNL     1     143.041 173.363 191.861  0.00  0.00    -0.507 OA
ATOM     50  H   UNL     1     142.130 173.416 191.527  0.00  0.00    +0.292 HD
ENDBRANCH  42  49
ENDBRANCH   8  39
BRANCH   1  51
ATOM     51  C   UNL     1     143.168 166.403 184.440  0.00  0.00    -0.059 C 
ATOM     52  H   UNL     1     142.706 165.553 184.954  0.00  0.00    +0.024 HD
ATOM     53  H   UNL     1     143.086 166.219 183.362  0.00  0.00    +0.024 HD
ATOM     54  H   UNL     1     142.580 167.299 184.675  0.00  0.00    +0.024 HD
ENDBRANCH   1  51
BRANCH  22  55
ATOM     55  C   UNL     1     145.511 164.900 187.360  0.00  0.00    -0.044 C 
ATOM     56  H   UNL     1     144.786 164.251 187.865  0.00  0.00    +0.027 HD
ATOM     57  H   UNL     1     146.461 164.839 187.896  0.00  0.00    +0.027 HD
ATOM     58  H   UNL     1     145.128 165.919 187.456  0.00  0.00    +0.027 HD
ENDBRANCH  22  55
BRANCH  20  59
ATOM     59  C   UNL     1     148.495 161.928 185.103  0.00  0.00    -0.054 C 
ATOM     60  H   UNL     1     149.057 161.385 185.872  0.00  0.00    +0.024 HD
ATOM     61  H   UNL     1     147.712 161.265 184.720  0.00  0.00    +0.024 HD
ATOM     62  H   UNL     1     149.185 162.146 184.280  0.00  0.00    +0.024 HD
ENDBRANCH  20  59
BRANCH  16  63
ATOM     63  C   UNL     1     151.609 164.782 188.162  0.00  0.00    -0.038 C 
ATOM     64  H   UNL     1     151.950 163.749 188.040  0.00  0.00    +0.025 HD
ATOM     65  H   UNL     1     151.942 165.344 187.281  0.00  0.00    +0.025 HD
ATOM     66  H   UNL     1     152.112 165.208 189.036  0.00  0.00    +0.025 HD
ENDBRANCH  16  63
BRANCH  13  67
ATOM     67  C   UNL     1     148.135 165.480 190.439  0.00  0.00    +0.004 C 
ATOM     68  H   UNL     1     148.503 165.406 191.463  0.00  0.00    +0.043 HD
ATOM     69  H   UNL     1     148.289 164.507 189.965  0.00  0.00    +0.043 HD
ATOM     70  H   UNL     1     147.065 165.716 190.447  0.00  0.00    +0.043 HD
ENDBRANCH  13  67
BRANCH   3  71
ATOM     71  C   UNL     1     147.692 167.318 184.972  0.00  0.00    -0.028 C 
ATOM     72  H   UNL     1     147.499 166.287 184.657  0.00  0.00    +0.027 HD
ATOM     73  H   UNL     1     148.667 167.576 184.553  0.00  0.00    +0.027 HD
ATOM     74  H   UNL     1     147.743 167.325 186.063  0.00  0.00    +0.027 HD
ENDBRANCH   3  71
BRANCH  12  75
ATOM     75  C   UNL     1     148.512 168.244 191.545  0.00  0.00    +0.003 C 
ATOM     76  H   UNL     1     147.489 168.323 191.925  0.00  0.00    +0.034 HD
ATOM     77  H   UNL     1     148.951 167.385 192.070  0.00  0.00    +0.034 HD
BRANCH  75  78
ATOM     78  C   UNL     1     149.279 169.474 191.929  0.00  0.00    -0.006 A 
ATOM     79  C   UNL     1     150.640 169.584 192.129  0.00  0.00    +0.087 A 
ATOM     80  N   UNL     1     150.935 170.856 192.516  0.00  0.00    -0.349 N 
ATOM     81  C   UNL     1     149.787 171.612 192.560  0.00  0.00    +0.048 A 
ATOM     82  C   UNL     1     149.610 172.956 192.909  0.00  0.00    -0.038 A 
ATOM     83  C   UNL     1     148.310 173.468 192.867  0.00  0.00    -0.060 A 
ATOM     84  C   UNL     1     147.237 172.669 192.484  0.00  0.00    -0.061 A 
ATOM     85  C   UNL     1     147.433 171.327 192.138  0.00  0.00    -0.052 A 
ATOM     86  C   UNL     1     148.734 170.780 192.179  0.00  0.00    +0.004 A 
ATOM     87 BR   UNL     1     151.954 168.219 191.945  0.00  0.00    -0.031 Br
ATOM     88  H   UNL     1     151.859 171.180 192.764  0.00  0.00    +0.166 HD
ATOM     89  H   UNL     1     150.446 173.584 193.199  0.00  0.00    +0.064 HD
ATOM     90  H   UNL     1     148.138 174.509 193.130  0.00  0.00    +0.062 HD
ATOM     91  H   UNL     1     146.235 173.091 192.451  0.00  0.00    +0.062 HD
ATOM     92  H   UNL     1     146.583 170.723 191.836  0.00  0.00    +0.062 HD
ENDBRANCH  75  78
ENDBRANCH  12  75
TORSDOF 10
ENDMDL
MODEL 9
REMARK VINA RESULT:      -6.3      4.101      6.989
REMARK  Name = Jasplakinolide_conf1
REMARK  10 active torsions:
REMARK  status: ('A' for Active; 'I' for Inactive)
REMARK    1  A    between atoms: C_1  and  C_2
REMARK    2  A    between atoms: C_4  and  C_47
REMARK    3  A    between atoms: C_9  and  C_40
REMARK    4  A    between atoms: C_13  and  C_29
REMARK    5  A    between atoms: N_14  and  C_28
REMARK    6  A    between atoms: C_17  and  C_27
REMARK    7  A    between atoms: C_21  and  C_26
REMARK    8  A    between atoms: C_23  and  C_25
REMARK    9  A    between atoms: C_29  and  C_30
REMARK   10  A    between atoms: C_43  and  O_46
REMARK                            x       y       z     vdW  Elec       q    Type
REMARK                         _______ _______ _______ _____ _____    ______ ____
ROOT
ATOM      1  C   UNL     1     143.421 168.126 190.999  0.00  0.00    -0.022 C 
ATOM      2  C   UNL     1     143.928 169.566 190.745  0.00  0.00    -0.010 C 
ATOM      3  C   UNL     1     145.346 169.688 190.153  0.00  0.00    +0.101 C 
ATOM      4  O   UNL     1     146.272 169.164 191.126  0.00  0.00    -0.462 OA
ATOM      5  C   UNL     1     147.554 169.603 191.038  0.00  0.00    +0.309 C 
ATOM      6  O   UNL     1     147.963 170.432 190.235  0.00  0.00    -0.251 OA
ATOM      7  C   UNL     1     148.416 169.015 192.121  0.00  0.00    +0.067 C 
ATOM      8  C   UNL     1     148.332 167.487 192.191  0.00  0.00    +0.058 C 
ATOM      9  N   UNL     1     148.879 166.861 190.997  0.00  0.00    -0.306 N 
ATOM     10  C   UNL     1     148.306 165.745 190.417  0.00  0.00    +0.234 C 
ATOM     11  O   UNL     1     147.288 165.215 190.861  0.00  0.00    -0.274 OA
ATOM     12  C   UNL     1     149.061 165.214 189.173  0.00  0.00    +0.106 C 
ATOM     13  N   UNL     1     148.092 164.809 188.125  0.00  0.00    -0.291 N 
ATOM     14  C   UNL     1     147.761 165.739 187.147  0.00  0.00    +0.236 C 
ATOM     15  O   UNL     1     148.162 166.907 187.207  0.00  0.00    -0.274 OA
ATOM     16  C   UNL     1     146.840 165.305 185.982  0.00  0.00    +0.097 C 
ATOM     17  N   UNL     1     145.576 166.013 186.146  0.00  0.00    -0.304 N 
ATOM     18  C   UNL     1     144.399 165.368 186.444  0.00  0.00    +0.217 C 
ATOM     19  O   UNL     1     144.304 164.147 186.514  0.00  0.00    -0.275 OA
ATOM     20  C   UNL     1     143.211 166.301 186.632  0.00  0.00    +0.036 C 
ATOM     21  C   UNL     1     142.404 165.931 187.886  0.00  0.00    -0.021 C 
ATOM     22  C   UNL     1     143.097 166.341 189.177  0.00  0.00    -0.076 C 
ATOM     23  C   UNL     1     142.811 167.528 189.748  0.00  0.00    -0.082 C 
ATOM     24  H   UNL     1     144.259 167.523 191.363  0.00  0.00    +0.034 HD
ATOM     25  H   UNL     1     143.224 170.110 190.102  0.00  0.00    +0.031 HD
ATOM     26  H   UNL     1     143.942 170.098 191.706  0.00  0.00    +0.031 HD
ATOM     27  H   UNL     1     145.537 170.760 190.013  0.00  0.00    +0.073 HD
ATOM     28  H   UNL     1     148.109 169.474 193.069  0.00  0.00    +0.040 HD
ATOM     29  H   UNL     1     149.444 169.340 191.920  0.00  0.00    +0.040 HD
ATOM     30  H   UNL     1     147.274 167.205 192.270  0.00  0.00    +0.055 HD
ATOM     31  H   UNL     1     149.788 167.168 190.670  0.00  0.00    +0.149 HD
ATOM     32  H   UNL     1     149.636 166.059 188.773  0.00  0.00    +0.060 HD
ATOM     33  H   UNL     1     146.677 164.225 185.975  0.00  0.00    +0.059 HD
ATOM     34  H   UNL     1     145.623 167.025 186.199  0.00  0.00    +0.149 HD
ATOM     35  H   UNL     1     143.563 167.337 186.719  0.00  0.00    +0.039 HD
ATOM     36  H   UNL     1     141.426 166.429 187.839  0.00  0.00    +0.032 HD
ATOM     37  H   UNL     1     142.179 164.858 187.913  0.00  0.00    +0.032 HD
ATOM     38  H   UNL     1     142.068 168.161 189.262  0.00  0.00    +0.057 HD
ENDROOT
BRANCH   8  39
ATOM     39  C   UNL     1     149.054 166.932 193.414  0.00  0.00    -0.026 A 
ATOM     40  C   UNL     1     150.436 166.677 193.417  0.00  0.00    -0.053 A 
ATOM     41  C   UNL     1     151.060 166.141 194.547  0.00  0.00    -0.020 A 
ATOM     42  C   UNL     1     150.306 165.839 195.673  0.00  0.00    +0.117 A 
ATOM     43  C   UNL     1     148.936 166.072 195.695  0.00  0.00    -0.020 A 
ATOM     44  C   UNL     1     148.313 166.613 194.566  0.00  0.00    -0.053 A 
ATOM     45  H   UNL     1     151.044 166.871 192.537  0.00  0.00    +0.062 HD
ATOM     46  H   UNL     1     152.129 165.950 194.540  0.00  0.00    +0.065 HD
ATOM     47  H   UNL     1     148.333 165.827 196.564  0.00  0.00    +0.065 HD
ATOM     48  H   UNL     1     147.235 166.765 194.578  0.00  0.00    +0.062 HD
BRANCH  42  49
ATOM     49  O   UNL     1     150.951 165.288 196.741  0.00  0.00    -0.507 OA
ATOM     50  H   UNL     1     150.529 165.613 197.554  0.00  0.00    +0.292 HD
ENDBRANCH  42  49
ENDBRANCH   8  39
BRANCH   1  51
ATOM     51  C   UNL     1     142.349 168.135 192.095  0.00  0.00    -0.059 C 
ATOM     52  H   UNL     1     141.462 167.577 191.775  0.00  0.00    +0.024 HD
ATOM     53  H   UNL     1     142.029 169.158 192.325  0.00  0.00    +0.024 HD
ATOM     54  H   UNL     1     142.717 167.679 193.023  0.00  0.00    +0.024 HD
ENDBRANCH   1  51
BRANCH  22  55
ATOM     55  C   UNL     1     144.057 165.331 189.751  0.00  0.00    -0.044 C 
ATOM     56  H   UNL     1     144.147 164.465 189.086  0.00  0.00    +0.027 HD
ATOM     57  H   UNL     1     145.047 165.777 189.874  0.00  0.00    +0.027 HD
ATOM     58  H   UNL     1     143.735 164.940 190.720  0.00  0.00    +0.027 HD
ENDBRANCH  22  55
BRANCH  20  59
ATOM     59  C   UNL     1     142.341 166.206 185.378  0.00  0.00    -0.054 C 
ATOM     60  H   UNL     1     141.316 165.903 185.626  0.00  0.00    +0.024 HD
ATOM     61  H   UNL     1     142.296 167.170 184.861  0.00  0.00    +0.024 HD
ATOM     62  H   UNL     1     142.745 165.466 184.679  0.00  0.00    +0.024 HD
ENDBRANCH  20  59
BRANCH  16  63
ATOM     63  C   UNL     1     147.479 165.686 184.651  0.00  0.00    -0.038 C 
ATOM     64  H   UNL     1     147.582 164.809 184.004  0.00  0.00    +0.025 HD
ATOM     65  H   UNL     1     146.878 166.425 184.108  0.00  0.00    +0.025 HD
ATOM     66  H   UNL     1     148.474 166.117 184.806  0.00  0.00    +0.025 HD
ENDBRANCH  16  63
BRANCH  13  67
ATOM     67  C   UNL     1     147.410 163.527 188.266  0.00  0.00    +0.004 C 
ATOM     68  H   UNL     1     146.327 163.657 188.266  0.00  0.00    +0.043 HD
ATOM     69  H   UNL     1     147.680 163.037 189.206  0.00  0.00    +0.043 HD
ATOM     70  H   UNL     1     147.706 162.889 187.425  0.00  0.00    +0.043 HD
ENDBRANCH  13  67
BRANCH   3  71
ATOM     71  C   UNL     1     145.538 168.971 188.821  0.00  0.00    -0.028 C 
ATOM     72  H   UNL     1     146.457 168.377 188.834  0.00  0.00    +0.027 HD
ATOM     73  H   UNL     1     144.731 168.260 188.629  0.00  0.00    +0.027 HD
ATOM     74  H   UNL     1     145.614 169.680 187.993  0.00  0.00    +0.027 HD
ENDBRANCH   3  71
BRANCH  12  75
ATOM     75  C   UNL     1     150.069 164.104 189.531  0.00  0.00    +0.003 C 
ATOM     76  H   UNL     1     150.301 164.128 190.599  0.00  0.00    +0.034 HD
ATOM     77  H   UNL     1     149.595 163.127 189.359  0.00  0.00    +0.034 HD
BRANCH  75  78
ATOM     78  C   UNL     1     151.346 164.153 188.745  0.00  0.00    -0.006 A 
ATOM     79  C   UNL     1     151.682 163.391 187.644  0.00  0.00    +0.087 A 
ATOM     80  N   UNL     1     152.949 163.704 187.254  0.00  0.00    -0.349 N 
ATOM     81  C   UNL     1     153.465 164.684 188.068  0.00  0.00    +0.048 A 
ATOM     82  C   UNL     1     154.720 165.301 188.046  0.00  0.00    -0.038 A 
ATOM     83  C   UNL     1     154.977 166.279 189.012  0.00  0.00    -0.060 A 
ATOM     84  C   UNL     1     154.012 166.625 189.954  0.00  0.00    -0.061 A 
ATOM     85  C   UNL     1     152.761 165.998 189.960  0.00  0.00    -0.052 A 
ATOM     86  C   UNL     1     152.477 165.002 189.002  0.00  0.00    +0.004 A 
ATOM     87 BR   UNL     1     150.616 162.076 186.774  0.00  0.00    -0.031 Br
ATOM     88  H   UNL     1     153.442 163.253 186.496  0.00  0.00    +0.166 HD
ATOM     89  H   UNL     1     155.471 165.039 187.307  0.00  0.00    +0.064 HD
ATOM     90  H   UNL     1     155.942 166.779 189.022  0.00  0.00    +0.062 HD
ATOM     91  H   UNL     1     154.231 167.394 190.691  0.00  0.00    +0.062 HD
ATOM     92  H   UNL     1     152.022 166.288 190.700  0.00  0.00    +0.062 HD
ENDBRANCH  75  78
ENDBRANCH  12  75
TORSDOF 10
ENDMDL
MODEL 10
REMARK VINA RESULT:      -6.3      3.461      6.451
REMARK  Name = Jasplakinolide_conf1
REMARK  10 active torsions:
REMARK  status: ('A' for Active; 'I' for Inactive)
REMARK    1  A    between atoms: C_1  and  C_2
REMARK    2  A    between atoms: C_4  and  C_47
REMARK    3  A    between atoms: C_9  and  C_40
REMARK    4  A    between atoms: C_13  and  C_29
REMARK    5  A    between atoms: N_14  and  C_28
REMARK    6  A    between atoms: C_17  and  C_27
REMARK    7  A    between atoms: C_21  and  C_26
REMARK    8  A    between atoms: C_23  and  C_25
REMARK    9  A    between atoms: C_29  and  C_30
REMARK   10  A    between atoms: C_43  and  O_46
REMARK                            x       y       z     vdW  Elec       q    Type
REMARK                         _______ _______ _______ _____ _____    ______ ____
ROOT
ATOM      1  C   UNL     1     151.648 164.194 190.029  0.00  0.00    -0.022 C 
ATOM      2  C   UNL     1     151.332 163.667 191.450  0.00  0.00    -0.010 C 
ATOM      3  C   UNL     1     149.904 163.933 191.966  0.00  0.00    +0.101 C 
ATOM      4  O   UNL     1     149.742 165.360 192.085  0.00  0.00    -0.462 OA
ATOM      5  C   UNL     1     148.788 165.790 192.950  0.00  0.00    +0.309 C 
ATOM      6  O   UNL     1     148.100 165.066 193.659  0.00  0.00    -0.251 OA
ATOM      7  C   UNL     1     148.734 167.291 193.014  0.00  0.00    +0.067 C 
ATOM      8  C   UNL     1     148.598 167.945 191.634  0.00  0.00    +0.058 C 
ATOM      9  N   UNL     1     147.326 167.623 191.007  0.00  0.00    -0.306 N 
ATOM     10  C   UNL     1     147.212 167.364 189.654  0.00  0.00    +0.234 C 
ATOM     11  O   UNL     1     148.178 167.375 188.893  0.00  0.00    -0.274 OA
ATOM     12  C   UNL     1     145.766 167.076 189.179  0.00  0.00    +0.106 C 
ATOM     13  N   UNL     1     145.766 165.963 188.198  0.00  0.00    -0.291 N 
ATOM     14  C   UNL     1     145.541 164.676 188.669  0.00  0.00    +0.236 C 
ATOM     15  O   UNL     1     145.462 164.439 189.881  0.00  0.00    -0.274 OA
ATOM     16  C   UNL     1     145.426 163.516 187.653  0.00  0.00    +0.097 C 
ATOM     17  N   UNL     1     146.597 162.666 187.835  0.00  0.00    -0.304 N 
ATOM     18  C   UNL     1     147.572 162.534 186.876  0.00  0.00    +0.217 C 
ATOM     19  O   UNL     1     147.494 163.051 185.766  0.00  0.00    -0.275 OA
ATOM     20  C   UNL     1     148.737 161.646 187.293  0.00  0.00    +0.036 C 
ATOM     21  C   UNL     1     150.086 162.296 186.946  0.00  0.00    -0.021 C 
ATOM     22  C   UNL     1     150.449 163.439 187.882  0.00  0.00    -0.076 C 
ATOM     23  C   UNL     1     151.217 163.204 188.966  0.00  0.00    -0.082 C 
ATOM     24  H   UNL     1     151.151 165.161 189.900  0.00  0.00    +0.034 HD
ATOM     25  H   UNL     1     151.541 162.591 191.511  0.00  0.00    +0.031 HD
ATOM     26  H   UNL     1     152.018 164.155 192.155  0.00  0.00    +0.031 HD
ATOM     27  H   UNL     1     149.842 163.477 192.964  0.00  0.00    +0.073 HD
ATOM     28  H   UNL     1     149.641 167.631 193.528  0.00  0.00    +0.040 HD
ATOM     29  H   UNL     1     147.881 167.552 193.653  0.00  0.00    +0.040 HD
ATOM     30  H   UNL     1     149.403 167.561 190.993  0.00  0.00    +0.055 HD
ATOM     31  H   UNL     1     146.480 167.734 191.555  0.00  0.00    +0.149 HD
ATOM     32  H   UNL     1     145.212 166.730 190.061  0.00  0.00    +0.060 HD
ATOM     33  H   UNL     1     145.373 163.880 186.625  0.00  0.00    +0.059 HD
ATOM     34  H   UNL     1     146.756 162.301 188.768  0.00  0.00    +0.149 HD
ATOM     35  H   UNL     1     148.691 161.459 188.373  0.00  0.00    +0.039 HD
ATOM     36  H   UNL     1     150.873 161.532 187.001  0.00  0.00    +0.032 HD
ATOM     37  H   UNL     1     150.101 162.651 185.908  0.00  0.00    +0.032 HD
ATOM     38  H   UNL     1     151.569 162.185 189.129  0.00  0.00    +0.057 HD
ENDROOT
BRANCH   8  39
ATOM     39  C   UNL     1     148.744 169.461 191.705  0.00  0.00    -0.026 A 
ATOM     40  C   UNL     1     150.000 170.092 191.756  0.00  0.00    -0.053 A 
ATOM     41  C   UNL     1     150.095 171.482 191.849  0.00  0.00    -0.020 A 
ATOM     42  C   UNL     1     148.941 172.251 191.913  0.00  0.00    +0.117 A 
ATOM     43  C   UNL     1     147.686 171.654 191.874  0.00  0.00    -0.020 A 
ATOM     44  C   UNL     1     147.591 170.262 191.776  0.00  0.00    -0.053 A 
ATOM     45  H   UNL     1     150.919 169.512 191.743  0.00  0.00    +0.062 HD
ATOM     46  H   UNL     1     151.070 171.960 191.885  0.00  0.00    +0.065 HD
ATOM     47  H   UNL     1     146.776 172.242 191.938  0.00  0.00    +0.065 HD
ATOM     48  H   UNL     1     146.605 169.798 191.777  0.00  0.00    +0.062 HD
BRANCH  42  49
ATOM     49  O   UNL     1     149.082 173.602 192.036  0.00  0.00    -0.507 OA
ATOM     50  H   UNL     1     148.870 173.849 192.952  0.00  0.00    +0.292 HD
ENDBRANCH  42  49
ENDBRANCH   8  39
BRANCH   1  51
ATOM     51  C   UNL     1     153.156 164.427 189.880  0.00  0.00    -0.059 C 
ATOM     52  H   UNL     1     153.622 164.587 190.859  0.00  0.00    +0.024 HD
ATOM     53  H   UNL     1     153.360 165.313 189.269  0.00  0.00    +0.024 HD
ATOM     54  H   UNL     1     153.652 163.569 189.408  0.00  0.00    +0.024 HD
ENDBRANCH   1  51
BRANCH  22  55
ATOM     55  C   UNL     1     149.929 164.796 187.488  0.00  0.00    -0.044 C 
ATOM     56  H   UNL     1     148.927 164.959 187.900  0.00  0.00    +0.027 HD
ATOM     57  H   UNL     1     150.591 165.580 187.866  0.00  0.00    +0.027 HD
ATOM     58  H   UNL     1     149.838 164.920 186.405  0.00  0.00    +0.027 HD
ENDBRANCH  22  55
BRANCH  20  59
ATOM     59  C   UNL     1     148.581 160.304 186.578  0.00  0.00    -0.054 C 
ATOM     60  H   UNL     1     149.303 159.567 186.950  0.00  0.00    +0.024 HD
ATOM     61  H   UNL     1     147.574 159.900 186.724  0.00  0.00    +0.024 HD
ATOM     62  H   UNL     1     148.747 160.415 185.501  0.00  0.00    +0.024 HD
ENDBRANCH  20  59
BRANCH  16  63
ATOM     63  C   UNL     1     144.157 162.715 187.927  0.00  0.00    -0.038 C 
ATOM     64  H   UNL     1     143.386 163.350 188.375  0.00  0.00    +0.025 HD
ATOM     65  H   UNL     1     143.738 162.289 187.007  0.00  0.00    +0.025 HD
ATOM     66  H   UNL     1     144.361 161.887 188.613  0.00  0.00    +0.025 HD
ENDBRANCH  16  63
BRANCH  13  67
ATOM     67  C   UNL     1     146.167 166.248 186.824  0.00  0.00    +0.004 C 
ATOM     68  H   UNL     1     145.911 165.420 186.161  0.00  0.00    +0.043 HD
ATOM     69  H   UNL     1     147.247 166.403 186.751  0.00  0.00    +0.043 HD
ATOM     70  H   UNL     1     145.646 167.156 186.497  0.00  0.00    +0.043 HD
ENDBRANCH  13  67
BRANCH   3  71
ATOM     71  C   UNL     1     148.798 163.359 191.087  0.00  0.00    -0.028 C 
ATOM     72  H   UNL     1     148.076 162.803 191.695  0.00  0.00    +0.027 HD
ATOM     73  H   UNL     1     148.225 164.149 190.598  0.00  0.00    +0.027 HD
ATOM     74  H   UNL     1     149.199 162.671 190.339  0.00  0.00    +0.027 HD
ENDBRANCH   3  71
BRANCH  12  75
ATOM     75  C   UNL     1     145.056 168.343 188.662  0.00  0.00    +0.003 C 
ATOM     76  H   UNL     1     145.742 168.946 188.060  0.00  0.00    +0.034 HD
ATOM     77  H   UNL     1     144.254 168.043 187.974  0.00  0.00    +0.034 HD
BRANCH  75  78
ATOM     78  C   UNL     1     144.459 169.199 189.740  0.00  0.00    -0.006 A 
ATOM     79  C   UNL     1     143.665 168.788 190.792  0.00  0.00    +0.087 A 
ATOM     80  N   UNL     1     143.286 169.876 191.517  0.00  0.00    -0.349 N 
ATOM     81  C   UNL     1     143.832 171.017 190.976  0.00  0.00    +0.048 A 
ATOM     82  C   UNL     1     143.708 172.351 191.380  0.00  0.00    -0.038 A 
ATOM     83  C   UNL     1     144.381 173.318 190.629  0.00  0.00    -0.060 A 
ATOM     84  C   UNL     1     145.150 172.962 189.526  0.00  0.00    -0.061 A 
ATOM     85  C   UNL     1     145.264 171.622 189.137  0.00  0.00    -0.052 A 
ATOM     86  C   UNL     1     144.589 170.623 189.871  0.00  0.00    +0.004 A 
ATOM     87 BR   UNL     1     143.121 167.013 191.211  0.00  0.00    -0.031 Br
ATOM     88  H   UNL     1     142.667 169.846 192.316  0.00  0.00    +0.166 HD
ATOM     89  H   UNL     1     143.116 172.631 192.246  0.00  0.00    +0.064 HD
ATOM     90  H   UNL     1     144.307 174.364 190.918  0.00  0.00    +0.062 HD
ATOM     91  H   UNL     1     145.672 173.730 188.961  0.00  0.00    +0.062 HD
ATOM     92  H   UNL     1     145.874 171.365 188.276  0.00  0.00    +0.062 HD
ENDBRANCH  75  78
ENDBRANCH  12  75
TORSDOF 10
ENDMDL
