MODEL 1
REMARK VINA RESULT:      -7.8      0.000      0.000
REMARK  Name = Jasplakinolide_conf2
REMARK  10 active torsions:
REMARK  status: ('A' for Active; 'I' for Inactive)
REMARK    1  A    between atoms: C_1  and  C_2
REMARK    2  A    between atoms: C_4  and  C_47
REMARK    3  A    between atoms: C_9  and  C_40
REMARK    4  A    between atoms: C_13  and  C_29
REMARK    5  A    between atoms: N_14  and  C_28
REMARK    6  A    between atoms: C_17  and  C_27
REMARK    7  A    between atoms: C_21  and  C_26
REMARK    8  A    between atoms: C_23  and  C_25
REMARK    9  A    between atoms: C_29  and  C_30
REMARK   10  A    between atoms: C_43  and  O_46
REMARK                            x       y       z     vdW  Elec       q    Type
REMARK                         _______ _______ _______ _____ _____    ______ ____
ROOT
ATOM      1  C   UNL     1     148.112 158.652 189.029  0.00  0.00    -0.022 C 
ATOM      2  C   UNL     1     148.545 159.507 190.234  0.00  0.00    -0.010 C 
ATOM      3  C   UNL     1     149.095 160.899 189.871  0.00  0.00    +0.101 C 
ATOM      4  O   UNL     1     149.180 161.635 191.113  0.00  0.00    -0.462 OA
ATOM      5  C   UNL     1     149.175 162.993 191.005  0.00  0.00    +0.309 C 
ATOM      6  O   UNL     1     149.184 163.611 189.950  0.00  0.00    -0.251 OA
ATOM      7  C   UNL     1     149.070 163.603 192.383  0.00  0.00    +0.067 C 
ATOM      8  C   UNL     1     149.510 165.071 192.401  0.00  0.00    +0.058 C 
ATOM      9  N   UNL     1     148.626 165.915 191.619  0.00  0.00    -0.306 N 
ATOM     10  C   UNL     1     149.080 167.028 190.936  0.00  0.00    +0.234 C 
ATOM     11  O   UNL     1     150.222 167.468 191.031  0.00  0.00    -0.274 OA
ATOM     12  C   UNL     1     148.042 167.580 189.945  0.00  0.00    +0.106 C 
ATOM     13  N   UNL     1     147.968 166.631 188.802  0.00  0.00    -0.291 N 
ATOM     14  C   UNL     1     146.955 165.672 188.823  0.00  0.00    +0.236 C 
ATOM     15  O   UNL     1     146.187 165.568 189.791  0.00  0.00    -0.274 OA
ATOM     16  C   UNL     1     146.778 164.747 187.595  0.00  0.00    +0.097 C 
ATOM     17  N   UNL     1     145.817 163.699 187.949  0.00  0.00    -0.304 N 
ATOM     18  C   UNL     1     145.728 162.512 187.261  0.00  0.00    +0.217 C 
ATOM     19  O   UNL     1     146.476 162.225 186.330  0.00  0.00    -0.275 OA
ATOM     20  C   UNL     1     144.554 161.639 187.695  0.00  0.00    +0.036 C 
ATOM     21  C   UNL     1     144.819 160.147 187.425  0.00  0.00    -0.021 C 
ATOM     22  C   UNL     1     145.719 159.499 188.471  0.00  0.00    -0.076 C 
ATOM     23  C   UNL     1     147.025 159.296 188.197  0.00  0.00    -0.082 C 
ATOM     24  H   UNL     1     148.979 158.555 188.364  0.00  0.00    +0.034 HD
ATOM     25  H   UNL     1     149.308 158.966 190.815  0.00  0.00    +0.031 HD
ATOM     26  H   UNL     1     147.706 159.634 190.929  0.00  0.00    +0.031 HD
ATOM     27  H   UNL     1     148.399 161.410 189.197  0.00  0.00    +0.073 HD
ATOM     28  H   UNL     1     149.712 163.024 193.061  0.00  0.00    +0.040 HD
ATOM     29  H   UNL     1     148.030 163.489 192.710  0.00  0.00    +0.040 HD
ATOM     30  H   UNL     1     150.504 165.123 191.936  0.00  0.00    +0.055 HD
ATOM     31  H   UNL     1     147.672 165.613 191.436  0.00  0.00    +0.149 HD
ATOM     32  H   UNL     1     147.080 167.569 190.471  0.00  0.00    +0.060 HD
ATOM     33  H   UNL     1     147.725 164.257 187.353  0.00  0.00    +0.059 HD
ATOM     34  H   UNL     1     145.257 163.867 188.776  0.00  0.00    +0.149 HD
ATOM     35  H   UNL     1     144.362 161.804 188.761  0.00  0.00    +0.039 HD
ATOM     36  H   UNL     1     143.871 159.594 187.411  0.00  0.00    +0.032 HD
ATOM     37  H   UNL     1     145.246 160.007 186.421  0.00  0.00    +0.032 HD
ATOM     38  H   UNL     1     147.388 159.646 187.226  0.00  0.00    +0.057 HD
ENDROOT
BRANCH   8  39
ATOM     39  C   UNL     1     149.609 165.611 193.819  0.00  0.00    -0.026 A 
ATOM     40  C   UNL     1     150.841 165.722 194.487  0.00  0.00    -0.053 A 
ATOM     41  C   UNL     1     150.902 166.222 195.788  0.00  0.00    -0.020 A 
ATOM     42  C   UNL     1     149.734 166.599 196.438  0.00  0.00    +0.117 A 
ATOM     43  C   UNL     1     148.501 166.480 195.809  0.00  0.00    -0.020 A 
ATOM     44  C   UNL     1     148.440 165.983 194.505  0.00  0.00    -0.053 A 
ATOM     45  H   UNL     1     151.765 165.411 194.006  0.00  0.00    +0.062 HD
ATOM     46  H   UNL     1     151.857 166.309 196.297  0.00  0.00    +0.065 HD
ATOM     47  H   UNL     1     147.581 166.757 196.314  0.00  0.00    +0.065 HD
ATOM     48  H   UNL     1     147.468 165.870 194.027  0.00  0.00    +0.062 HD
BRANCH  42  49
ATOM     49  O   UNL     1     149.842 167.077 197.710  0.00  0.00    -0.507 OA
ATOM     50  H   UNL     1     149.767 168.046 197.680  0.00  0.00    +0.292 HD
ENDBRANCH  42  49
ENDBRANCH   8  39
BRANCH   1  51
ATOM     51  C   UNL     1     147.773 157.219 189.450  0.00  0.00    -0.059 C 
ATOM     52  H   UNL     1     147.950 156.494 188.653  0.00  0.00    +0.024 HD
ATOM     53  H   UNL     1     146.715 157.143 189.722  0.00  0.00    +0.024 HD
ATOM     54  H   UNL     1     148.361 156.916 190.324  0.00  0.00    +0.024 HD
ENDBRANCH   1  51
BRANCH  22  55
ATOM     55  C   UNL     1     145.014 159.108 189.741  0.00  0.00    -0.044 C 
ATOM     56  H   UNL     1     144.813 158.031 189.756  0.00  0.00    +0.027 HD
ATOM     57  H   UNL     1     145.643 159.345 190.605  0.00  0.00    +0.027 HD
ATOM     58  H   UNL     1     144.052 159.601 189.874  0.00  0.00    +0.027 HD
ENDBRANCH  22  55
BRANCH  20  59
ATOM     59  C   UNL     1     143.321 162.107 186.916  0.00  0.00    -0.054 C 
ATOM     60  H   UNL     1     142.499 162.344 187.597  0.00  0.00    +0.024 HD
ATOM     61  H   UNL     1     142.978 161.337 186.215  0.00  0.00    +0.024 HD
ATOM     62  H   UNL     1     143.540 163.007 186.331  0.00  0.00    +0.024 HD
ENDBRANCH  20  59
BRANCH  16  63
ATOM     63  C   UNL     1     146.247 165.551 186.410  0.00  0.00    -0.038 C 
ATOM     64  H   UNL     1     146.475 166.618 186.498  0.00  0.00    +0.025 HD
ATOM     65  H   UNL     1     145.157 165.460 186.334  0.00  0.00    +0.025 HD
ATOM     66  H   UNL     1     146.674 165.192 185.468  0.00  0.00    +0.025 HD
ENDBRANCH  16  63
BRANCH  13  67
ATOM     67  C   UNL     1     149.164 166.468 187.976  0.00  0.00    +0.004 C 
ATOM     68  H   UNL     1     150.080 166.690 188.525  0.00  0.00    +0.043 HD
ATOM     69  H   UNL     1     149.104 167.160 187.132  0.00  0.00    +0.043 HD
ATOM     70  H   UNL     1     149.242 165.451 187.599  0.00  0.00    +0.043 HD
ENDBRANCH  13  67
BRANCH   3  71
ATOM     71  C   UNL     1     150.484 160.820 189.239  0.00  0.00    -0.028 C 
ATOM     72  H   UNL     1     151.197 161.479 189.743  0.00  0.00    +0.027 HD
ATOM     73  H   UNL     1     150.446 161.088 188.178  0.00  0.00    +0.027 HD
ATOM     74  H   UNL     1     150.880 159.801 189.286  0.00  0.00    +0.027 HD
ENDBRANCH   3  71
BRANCH  12  75
ATOM     75  C   UNL     1     148.334 169.042 189.561  0.00  0.00    +0.003 C 
ATOM     76  H   UNL     1     148.117 169.236 188.504  0.00  0.00    +0.034 HD
ATOM     77  H   UNL     1     149.408 169.236 189.665  0.00  0.00    +0.034 HD
BRANCH  75  78
ATOM     78  C   UNL     1     147.586 170.021 190.430  0.00  0.00    -0.006 A 
ATOM     79  C   UNL     1     146.222 170.231 190.468  0.00  0.00    +0.087 A 
ATOM     80  N   UNL     1     145.946 171.230 191.353  0.00  0.00    -0.349 N 
ATOM     81  C   UNL     1     147.108 171.688 191.924  0.00  0.00    +0.048 A 
ATOM     82  C   UNL     1     147.308 172.699 192.874  0.00  0.00    -0.038 A 
ATOM     83  C   UNL     1     148.615 172.945 193.294  0.00  0.00    -0.060 A 
ATOM     84  C   UNL     1     149.680 172.209 192.786  0.00  0.00    -0.061 A 
ATOM     85  C   UNL     1     149.464 171.203 191.836  0.00  0.00    -0.052 A 
ATOM     86  C   UNL     1     148.155 170.937 191.382  0.00  0.00    +0.004 A 
ATOM     87 BR   UNL     1     144.885 169.323 189.464  0.00  0.00    -0.031 Br
ATOM     88  H   UNL     1     145.021 171.579 191.555  0.00  0.00    +0.166 HD
ATOM     89  H   UNL     1     146.478 173.273 193.276  0.00  0.00    +0.064 HD
ATOM     90  H   UNL     1     148.803 173.722 194.033  0.00  0.00    +0.062 HD
ATOM     91  H   UNL     1     150.692 172.412 193.131  0.00  0.00    +0.062 HD
ATOM     92  H   UNL     1     150.306 170.631 191.462  0.00  0.00    +0.062 HD
ENDBRANCH  75  78
ENDBRANCH  12  75
TORSDOF 10
ENDMDL
MODEL 2
REMARK VINA RESULT:      -7.4      3.585      7.801
REMARK  Name = Jasplakinolide_conf2
REMARK  10 active torsions:
REMARK  status: ('A' for Active; 'I' for Inactive)
REMARK    1  A    between atoms: C_1  and  C_2
REMARK    2  A    between atoms: C_4  and  C_47
REMARK    3  A    between atoms: C_9  and  C_40
REMARK    4  A    between atoms: C_13  and  C_29
REMARK    5  A    between atoms: N_14  and  C_28
REMARK    6  A    between atoms: C_17  and  C_27
REMARK    7  A    between atoms: C_21  and  C_26
REMARK    8  A    between atoms: C_23  and  C_25
REMARK    9  A    between atoms: C_29  and  C_30
REMARK   10  A    between atoms: C_43  and  O_46
REMARK                            x       y       z     vdW  Elec       q    Type
REMARK                         _______ _______ _______ _____ _____    ______ ____
ROOT
ATOM      1  C   UNL     1     143.552 170.853 183.842  0.00  0.00    -0.022 C 
ATOM      2  C   UNL     1     144.161 171.403 185.144  0.00  0.00    -0.010 C 
ATOM      3  C   UNL     1     144.106 170.435 186.341  0.00  0.00    +0.101 C 
ATOM      4  O   UNL     1     144.955 171.008 187.362  0.00  0.00    -0.462 OA
ATOM      5  C   UNL     1     145.441 170.138 188.292  0.00  0.00    +0.309 C 
ATOM      6  O   UNL     1     145.149 168.953 188.362  0.00  0.00    -0.251 OA
ATOM      7  C   UNL     1     146.454 170.849 189.158  0.00  0.00    +0.067 C 
ATOM      8  C   UNL     1     146.705 170.113 190.479  0.00  0.00    +0.058 C 
ATOM      9  N   UNL     1     147.327 168.818 190.272  0.00  0.00    -0.306 N 
ATOM     10  C   UNL     1     147.074 167.738 191.097  0.00  0.00    +0.234 C 
ATOM     11  O   UNL     1     146.417 167.807 192.131  0.00  0.00    -0.274 OA
ATOM     12  C   UNL     1     147.594 166.413 190.513  0.00  0.00    +0.106 C 
ATOM     13  N   UNL     1     146.702 166.043 189.381  0.00  0.00    -0.291 N 
ATOM     14  C   UNL     1     147.113 166.392 188.095  0.00  0.00    +0.236 C 
ATOM     15  O   UNL     1     148.149 167.048 187.906  0.00  0.00    -0.274 OA
ATOM     16  C   UNL     1     146.268 165.920 186.888  0.00  0.00    +0.097 C 
ATOM     17  N   UNL     1     146.771 166.593 185.688  0.00  0.00    -0.304 N 
ATOM     18  C   UNL     1     146.025 166.717 184.539  0.00  0.00    +0.217 C 
ATOM     19  O   UNL     1     144.869 166.312 184.451  0.00  0.00    -0.275 OA
ATOM     20  C   UNL     1     146.801 167.306 183.366  0.00  0.00    +0.036 C 
ATOM     21  C   UNL     1     145.872 168.011 182.362  0.00  0.00    -0.021 C 
ATOM     22  C   UNL     1     145.448 169.404 182.812  0.00  0.00    -0.076 C 
ATOM     23  C   UNL     1     144.226 169.590 183.353  0.00  0.00    -0.082 C 
ATOM     24  H   UNL     1     142.513 170.574 184.056  0.00  0.00    +0.034 HD
ATOM     25  H   UNL     1     143.652 172.339 185.424  0.00  0.00    +0.031 HD
ATOM     26  H   UNL     1     145.206 171.695 184.981  0.00  0.00    +0.031 HD
ATOM     27  H   UNL     1     144.505 169.458 186.048  0.00  0.00    +0.073 HD
ATOM     28  H   UNL     1     146.072 171.856 189.372  0.00  0.00    +0.040 HD
ATOM     29  H   UNL     1     147.373 170.947 188.569  0.00  0.00    +0.040 HD
ATOM     30  H   UNL     1     145.727 169.933 190.947  0.00  0.00    +0.055 HD
ATOM     31  H   UNL     1     147.849 168.641 189.417  0.00  0.00    +0.149 HD
ATOM     32  H   UNL     1     148.594 166.625 190.116  0.00  0.00    +0.060 HD
ATOM     33  H   UNL     1     145.224 166.218 187.019  0.00  0.00    +0.059 HD
ATOM     34  H   UNL     1     147.683 167.027 185.768  0.00  0.00    +0.149 HD
ATOM     35  H   UNL     1     147.549 168.009 183.750  0.00  0.00    +0.039 HD
ATOM     36  H   UNL     1     146.375 168.113 181.391  0.00  0.00    +0.032 HD
ATOM     37  H   UNL     1     144.984 167.394 182.159  0.00  0.00    +0.032 HD
ATOM     38  H   UNL     1     143.597 168.703 183.474  0.00  0.00    +0.057 HD
ENDROOT
BRANCH   8  39
ATOM     39  C   UNL     1     147.554 170.940 191.432  0.00  0.00    -0.026 A 
ATOM     40  C   UNL     1     148.909 170.648 191.662  0.00  0.00    -0.053 A 
ATOM     41  C   UNL     1     149.664 171.425 192.542  0.00  0.00    -0.020 A 
ATOM     42  C   UNL     1     149.070 172.487 193.209  0.00  0.00    +0.117 A 
ATOM     43  C   UNL     1     147.726 172.785 193.016  0.00  0.00    -0.020 A 
ATOM     44  C   UNL     1     146.971 172.010 192.133  0.00  0.00    -0.053 A 
ATOM     45  H   UNL     1     149.389 169.807 191.169  0.00  0.00    +0.062 HD
ATOM     46  H   UNL     1     150.712 171.196 192.713  0.00  0.00    +0.065 HD
ATOM     47  H   UNL     1     147.248 173.604 193.545  0.00  0.00    +0.065 HD
ATOM     48  H   UNL     1     145.913 172.234 192.004  0.00  0.00    +0.062 HD
BRANCH  42  49
ATOM     49  O   UNL     1     149.845 173.215 194.063  0.00  0.00    -0.507 OA
ATOM     50  H   UNL     1     150.746 172.851 194.043  0.00  0.00    +0.292 HD
ENDBRANCH  42  49
ENDBRANCH   8  39
BRANCH   1  51
ATOM     51  C   UNL     1     143.457 171.937 182.764  0.00  0.00    -0.059 C 
ATOM     52  H   UNL     1     142.823 172.773 183.063  0.00  0.00    +0.024 HD
ATOM     53  H   UNL     1     143.028 171.521 181.847  0.00  0.00    +0.024 HD
ATOM     54  H   UNL     1     144.449 172.332 182.516  0.00  0.00    +0.024 HD
ENDBRANCH   1  51
BRANCH  22  55
ATOM     55  C   UNL     1     146.473 170.477 182.563  0.00  0.00    -0.044 C 
ATOM     56  H   UNL     1     146.334 170.922 181.571  0.00  0.00    +0.027 HD
ATOM     57  H   UNL     1     146.368 171.273 183.307  0.00  0.00    +0.027 HD
ATOM     58  H   UNL     1     147.499 170.114 182.594  0.00  0.00    +0.027 HD
ENDBRANCH  22  55
BRANCH  20  59
ATOM     59  C   UNL     1     147.543 166.155 182.681  0.00  0.00    -0.054 C 
ATOM     60  H   UNL     1     148.245 165.680 183.373  0.00  0.00    +0.024 HD
ATOM     61  H   UNL     1     148.106 166.506 181.808  0.00  0.00    +0.024 HD
ATOM     62  H   UNL     1     146.847 165.385 182.332  0.00  0.00    +0.024 HD
ENDBRANCH  20  59
BRANCH  16  63
ATOM     63  C   UNL     1     146.400 164.407 186.721  0.00  0.00    -0.038 C 
ATOM     64  H   UNL     1     146.767 164.131 185.727  0.00  0.00    +0.025 HD
ATOM     65  H   UNL     1     145.429 163.914 186.855  0.00  0.00    +0.025 HD
ATOM     66  H   UNL     1     147.088 163.988 187.462  0.00  0.00    +0.025 HD
ENDBRANCH  16  63
BRANCH  13  67
ATOM     67  C   UNL     1     145.303 165.748 189.688  0.00  0.00    +0.004 C 
ATOM     68  H   UNL     1     145.112 165.712 190.761  0.00  0.00    +0.043 HD
ATOM     69  H   UNL     1     145.052 164.768 189.272  0.00  0.00    +0.043 HD
ATOM     70  H   UNL     1     144.643 166.498 189.259  0.00  0.00    +0.043 HD
ENDBRANCH  13  67
BRANCH   3  71
ATOM     71  C   UNL     1     142.689 170.285 186.893  0.00  0.00    -0.028 C 
ATOM     72  H   UNL     1     141.968 170.058 186.102  0.00  0.00    +0.027 HD
ATOM     73  H   UNL     1     142.371 171.199 187.407  0.00  0.00    +0.027 HD
ATOM     74  H   UNL     1     142.638 169.481 187.633  0.00  0.00    +0.027 HD
ENDBRANCH   3  71
BRANCH  12  75
ATOM     75  C   UNL     1     147.755 165.332 191.597  0.00  0.00    +0.003 C 
ATOM     76  H   UNL     1     147.784 164.324 191.165  0.00  0.00    +0.034 HD
ATOM     77  H   UNL     1     146.868 165.331 192.243  0.00  0.00    +0.034 HD
BRANCH  75  78
ATOM     78  C   UNL     1     148.970 165.561 192.457  0.00  0.00    -0.006 A 
ATOM     79  C   UNL     1     150.292 165.545 192.056  0.00  0.00    +0.087 A 
ATOM     80  N   UNL     1     151.092 165.754 193.139  0.00  0.00    -0.349 N 
ATOM     81  C   UNL     1     150.326 165.925 194.266  0.00  0.00    +0.048 A 
ATOM     82  C   UNL     1     150.713 166.159 195.593  0.00  0.00    -0.038 A 
ATOM     83  C   UNL     1     149.705 166.312 196.545  0.00  0.00    -0.060 A 
ATOM     84  C   UNL     1     148.363 166.237 196.185  0.00  0.00    -0.061 A 
ATOM     85  C   UNL     1     147.993 166.000 194.856  0.00  0.00    -0.052 A 
ATOM     86  C   UNL     1     148.989 165.830 193.870  0.00  0.00    +0.004 A 
ATOM     87 BR   UNL     1     150.962 165.265 190.298  0.00  0.00    -0.031 Br
ATOM     88  H   UNL     1     152.101 165.778 193.113  0.00  0.00    +0.166 HD
ATOM     89  H   UNL     1     151.759 166.223 195.877  0.00  0.00    +0.064 HD
ATOM     90  H   UNL     1     149.973 166.498 197.583  0.00  0.00    +0.062 HD
ATOM     91  H   UNL     1     147.592 166.365 196.942  0.00  0.00    +0.062 HD
ATOM     92  H   UNL     1     146.942 165.959 194.593  0.00  0.00    +0.062 HD
ENDBRANCH  75  78
ENDBRANCH  12  75
TORSDOF 10
ENDMDL
MODEL 3
REMARK VINA RESULT:      -7.2      3.501      4.982
REMARK  Name = Jasplakinolide_conf2
REMARK  10 active torsions:
REMARK  status: ('A' for Active; 'I' for Inactive)
REMARK    1  A    between atoms: C_1  and  C_2
REMARK    2  A    between atoms: C_4  and  C_47
REMARK    3  A    between atoms: C_9  and  C_40
REMARK    4  A    between atoms: C_13  and  C_29
REMARK    5  A    between atoms: N_14  and  C_28
REMARK    6  A    between atoms: C_17  and  C_27
REMARK    7  A    between atoms: C_21  and  C_26
REMARK    8  A    between atoms: C_23  and  C_25
REMARK    9  A    between atoms: C_29  and  C_30
REMARK   10  A    between atoms: C_43  and  O_46
REMARK                            x       y       z     vdW  Elec       q    Type
REMARK                         _______ _______ _______ _____ _____    ______ ____
ROOT
ATOM      1  C   UNL     1     142.358 162.693 185.947  0.00  0.00    -0.022 C 
ATOM      2  C   UNL     1     143.261 162.882 187.179  0.00  0.00    -0.010 C 
ATOM      3  C   UNL     1     144.216 164.089 187.100  0.00  0.00    +0.101 C 
ATOM      4  O   UNL     1     144.761 164.258 188.428  0.00  0.00    -0.462 OA
ATOM      5  C   UNL     1     145.236 165.501 188.725  0.00  0.00    +0.309 C 
ATOM      6  O   UNL     1     145.300 166.432 187.936  0.00  0.00    -0.251 OA
ATOM      7  C   UNL     1     145.583 165.564 190.193  0.00  0.00    +0.067 C 
ATOM      8  C   UNL     1     146.526 166.729 190.515  0.00  0.00    +0.058 C 
ATOM      9  N   UNL     1     145.898 168.018 190.289  0.00  0.00    -0.306 N 
ATOM     10  C   UNL     1     146.611 169.122 189.861  0.00  0.00    +0.234 C 
ATOM     11  O   UNL     1     147.834 169.148 189.761  0.00  0.00    -0.274 OA
ATOM     12  C   UNL     1     145.701 170.273 189.400  0.00  0.00    +0.106 C 
ATOM     13  N   UNL     1     145.103 169.875 188.097  0.00  0.00    -0.291 N 
ATOM     14  C   UNL     1     143.828 169.311 188.118  0.00  0.00    +0.236 C 
ATOM     15  O   UNL     1     143.241 169.084 189.187  0.00  0.00    -0.274 OA
ATOM     16  C   UNL     1     143.131 168.995 186.773  0.00  0.00    +0.097 C 
ATOM     17  N   UNL     1     141.924 168.215 187.058  0.00  0.00    -0.304 N 
ATOM     18  C   UNL     1     141.298 167.443 186.107  0.00  0.00    +0.217 C 
ATOM     19  O   UNL     1     141.730 167.316 184.965  0.00  0.00    -0.275 OA
ATOM     20  C   UNL     1     139.973 166.850 186.575  0.00  0.00    +0.036 C 
ATOM     21  C   UNL     1     139.628 165.553 185.821  0.00  0.00    -0.021 C 
ATOM     22  C   UNL     1     140.384 164.337 186.342  0.00  0.00    -0.076 C 
ATOM     23  C   UNL     1     141.463 163.882 185.672  0.00  0.00    -0.082 C 
ATOM     24  H   UNL     1     143.011 162.602 185.069  0.00  0.00    +0.034 HD
ATOM     25  H   UNL     1     143.856 161.971 187.343  0.00  0.00    +0.031 HD
ATOM     26  H   UNL     1     142.650 162.981 188.085  0.00  0.00    +0.031 HD
ATOM     27  H   UNL     1     143.656 164.988 186.823  0.00  0.00    +0.073 HD
ATOM     28  H   UNL     1     146.069 164.619 190.469  0.00  0.00    +0.040 HD
ATOM     29  H   UNL     1     144.641 165.643 190.748  0.00  0.00    +0.040 HD
ATOM     30  H   UNL     1     147.382 166.660 189.830  0.00  0.00    +0.055 HD
ATOM     31  H   UNL     1     144.883 168.092 190.297  0.00  0.00    +0.149 HD
ATOM     32  H   UNL     1     144.900 170.347 190.144  0.00  0.00    +0.060 HD
ATOM     33  H   UNL     1     143.781 168.378 186.147  0.00  0.00    +0.059 HD
ATOM     34  H   UNL     1     141.604 168.221 188.019  0.00  0.00    +0.149 HD
ATOM     35  H   UNL     1     140.028 166.659 187.653  0.00  0.00    +0.039 HD
ATOM     36  H   UNL     1     138.554 165.342 185.909  0.00  0.00    +0.032 HD
ATOM     37  H   UNL     1     139.807 165.675 184.742  0.00  0.00    +0.032 HD
ATOM     38  H   UNL     1     141.768 164.443 184.784  0.00  0.00    +0.057 HD
ENDROOT
BRANCH   8  39
ATOM     39  C   UNL     1     147.042 166.657 191.944  0.00  0.00    -0.026 A 
ATOM     40  C   UNL     1     148.366 166.996 192.273  0.00  0.00    -0.053 A 
ATOM     41  C   UNL     1     148.811 166.921 193.593  0.00  0.00    -0.020 A 
ATOM     42  C   UNL     1     147.946 166.493 194.591  0.00  0.00    +0.117 A 
ATOM     43  C   UNL     1     146.638 166.132 194.290  0.00  0.00    -0.020 A 
ATOM     44  C   UNL     1     146.190 166.211 192.969  0.00  0.00    -0.053 A 
ATOM     45  H   UNL     1     149.067 167.312 191.505  0.00  0.00    +0.062 HD
ATOM     46  H   UNL     1     149.834 167.189 193.842  0.00  0.00    +0.065 HD
ATOM     47  H   UNL     1     145.958 165.781 195.060  0.00  0.00    +0.065 HD
ATOM     48  H   UNL     1     145.172 165.903 192.737  0.00  0.00    +0.062 HD
BRANCH  42  49
ATOM     49  O   UNL     1     148.427 166.432 195.866  0.00  0.00    -0.507 OA
ATOM     50  H   UNL     1     148.269 165.536 196.209  0.00  0.00    +0.292 HD
ENDBRANCH  42  49
ENDBRANCH   8  39
BRANCH   1  51
ATOM     51  C   UNL     1     141.592 161.369 186.009  0.00  0.00    -0.059 C 
ATOM     52  H   UNL     1     142.037 160.658 186.707  0.00  0.00    +0.024 HD
ATOM     53  H   UNL     1     141.584 160.889 185.025  0.00  0.00    +0.024 HD
ATOM     54  H   UNL     1     140.549 161.532 186.305  0.00  0.00    +0.024 HD
ENDBRANCH   1  51
BRANCH  22  55
ATOM     55  C   UNL     1     139.798 163.727 187.587  0.00  0.00    -0.044 C 
ATOM     56  H   UNL     1     140.493 163.001 188.026  0.00  0.00    +0.027 HD
ATOM     57  H   UNL     1     139.612 164.507 188.332  0.00  0.00    +0.027 HD
ATOM     58  H   UNL     1     138.866 163.192 187.412  0.00  0.00    +0.027 HD
ENDBRANCH  22  55
BRANCH  20  59
ATOM     59  C   UNL     1     138.888 167.905 186.338  0.00  0.00    -0.054 C 
ATOM     60  H   UNL     1     139.041 168.410 185.380  0.00  0.00    +0.024 HD
ATOM     61  H   UNL     1     138.889 168.662 187.131  0.00  0.00    +0.024 HD
ATOM     62  H   UNL     1     137.891 167.452 186.321  0.00  0.00    +0.024 HD
ENDBRANCH  20  59
BRANCH  16  63
ATOM     63  C   UNL     1     142.747 170.295 186.068  0.00  0.00    -0.038 C 
ATOM     64  H   UNL     1     143.406 171.124 186.341  0.00  0.00    +0.025 HD
ATOM     65  H   UNL     1     141.726 170.594 186.331  0.00  0.00    +0.025 HD
ATOM     66  H   UNL     1     142.787 170.178 184.979  0.00  0.00    +0.025 HD
ENDBRANCH  16  63
BRANCH  13  67
ATOM     67  C   UNL     1     146.009 169.690 186.963  0.00  0.00    +0.004 C 
ATOM     68  H   UNL     1     145.567 169.080 186.175  0.00  0.00    +0.043 HD
ATOM     69  H   UNL     1     146.910 169.180 187.315  0.00  0.00    +0.043 HD
ATOM     70  H   UNL     1     146.287 170.646 186.527  0.00  0.00    +0.043 HD
ENDBRANCH  13  67
BRANCH   3  71
ATOM     71  C   UNL     1     145.359 163.851 186.114  0.00  0.00    -0.028 C 
ATOM     72  H   UNL     1     145.328 164.556 185.279  0.00  0.00    +0.027 HD
ATOM     73  H   UNL     1     145.325 162.831 185.715  0.00  0.00    +0.027 HD
ATOM     74  H   UNL     1     146.331 163.957 186.606  0.00  0.00    +0.027 HD
ENDBRANCH   3  71
BRANCH  12  75
ATOM     75  C   UNL     1     146.441 171.623 189.393  0.00  0.00    +0.003 C 
ATOM     76  H   UNL     1     146.051 172.296 188.621  0.00  0.00    +0.034 HD
ATOM     77  H   UNL     1     147.490 171.460 189.115  0.00  0.00    +0.034 HD
BRANCH  75  78
ATOM     78  C   UNL     1     146.404 172.302 190.737  0.00  0.00    -0.006 A 
ATOM     79  C   UNL     1     145.334 172.961 191.311  0.00  0.00    +0.087 A 
ATOM     80  N   UNL     1     145.715 173.475 192.514  0.00  0.00    -0.349 N 
ATOM     81  C   UNL     1     147.028 173.158 192.767  0.00  0.00    +0.048 A 
ATOM     82  C   UNL     1     147.836 173.477 193.868  0.00  0.00    -0.038 A 
ATOM     83  C   UNL     1     149.148 173.003 193.867  0.00  0.00    -0.060 A 
ATOM     84  C   UNL     1     149.633 172.240 192.810  0.00  0.00    -0.061 A 
ATOM     85  C   UNL     1     148.813 171.933 191.717  0.00  0.00    -0.052 A 
ATOM     86  C   UNL     1     147.484 172.406 191.681  0.00  0.00    +0.004 A 
ATOM     87 BR   UNL     1     143.586 173.172 190.589  0.00  0.00    -0.031 Br
ATOM     88  H   UNL     1     145.117 174.009 193.126  0.00  0.00    +0.166 HD
ATOM     89  H   UNL     1     147.460 174.068 194.697  0.00  0.00    +0.064 HD
ATOM     90  H   UNL     1     149.799 173.230 194.709  0.00  0.00    +0.062 HD
ATOM     91  H   UNL     1     150.657 171.875 192.831  0.00  0.00    +0.062 HD
ATOM     92  H   UNL     1     149.206 171.325 190.909  0.00  0.00    +0.062 HD
ENDBRANCH  75  78
ENDBRANCH  12  75
TORSDOF 10
ENDMDL
MODEL 4
REMARK VINA RESULT:      -7.1      6.892     11.518
REMARK  Name = Jasplakinolide_conf2
REMARK  10 active torsions:
REMARK  status: ('A' for Active; 'I' for Inactive)
REMARK    1  A    between atoms: C_1  and  C_2
REMARK    2  A    between atoms: C_4  and  C_47
REMARK    3  A    between atoms: C_9  and  C_40
REMARK    4  A    between atoms: C_13  and  C_29
REMARK    5  A    between atoms: N_14  and  C_28
REMARK    6  A    between atoms: C_17  and  C_27
REMARK    7  A    between atoms: C_21  and  C_26
REMARK    8  A    between atoms: C_23  and  C_25
REMARK    9  A    between atoms: C_29  and  C_30
REMARK   10  A    between atoms: C_43  and  O_46
REMARK                            x       y       z     vdW  Elec       q    Type
REMARK                         _______ _______ _______ _____ _____    ______ ____
ROOT
ATOM      1  C   UNL     1     140.658 175.919 183.699  0.00  0.00    -0.022 C 
ATOM      2  C   UNL     1     140.509 175.967 185.231  0.00  0.00    -0.010 C 
ATOM      3  C   UNL     1     140.831 174.644 185.951  0.00  0.00    +0.101 C 
ATOM      4  O   UNL     1     140.906 174.960 187.360  0.00  0.00    -0.462 OA
ATOM      5  C   UNL     1     141.627 174.097 188.129  0.00  0.00    +0.309 C 
ATOM      6  O   UNL     1     142.133 173.059 187.728  0.00  0.00    -0.251 OA
ATOM      7  C   UNL     1     141.771 174.668 189.519  0.00  0.00    +0.067 C 
ATOM      8  C   UNL     1     142.152 173.598 190.548  0.00  0.00    +0.058 C 
ATOM      9  N   UNL     1     143.472 173.049 190.300  0.00  0.00    -0.306 N 
ATOM     10  C   UNL     1     143.790 171.734 190.584  0.00  0.00    +0.234 C 
ATOM     11  O   UNL     1     143.042 170.963 191.179  0.00  0.00    -0.274 OA
ATOM     12  C   UNL     1     145.128 171.299 189.962  0.00  0.00    +0.106 C 
ATOM     13  N   UNL     1     144.916 171.166 188.496  0.00  0.00    -0.291 N 
ATOM     14  C   UNL     1     145.269 172.249 187.691  0.00  0.00    +0.236 C 
ATOM     15  O   UNL     1     145.678 173.311 188.184  0.00  0.00    -0.274 OA
ATOM     16  C   UNL     1     145.171 172.100 186.154  0.00  0.00    +0.097 C 
ATOM     17  N   UNL     1     145.373 173.420 185.554  0.00  0.00    -0.304 N 
ATOM     18  C   UNL     1     144.966 173.725 184.276  0.00  0.00    +0.217 C 
ATOM     19  O   UNL     1     144.366 172.925 183.562  0.00  0.00    -0.275 OA
ATOM     20  C   UNL     1     145.420 175.101 183.799  0.00  0.00    +0.036 C 
ATOM     21  C   UNL     1     144.483 175.671 182.721  0.00  0.00    -0.021 C 
ATOM     22  C   UNL     1     143.202 176.266 183.293  0.00  0.00    -0.076 C 
ATOM     23  C   UNL     1     142.054 175.556 183.244  0.00  0.00    -0.082 C 
ATOM     24  H   UNL     1     140.006 175.118 183.329  0.00  0.00    +0.034 HD
ATOM     25  H   UNL     1     139.484 176.272 185.492  0.00  0.00    +0.031 HD
ATOM     26  H   UNL     1     141.148 176.755 185.649  0.00  0.00    +0.031 HD
ATOM     27  H   UNL     1     141.802 174.264 185.615  0.00  0.00    +0.073 HD
ATOM     28  H   UNL     1     140.810 175.117 189.804  0.00  0.00    +0.040 HD
ATOM     29  H   UNL     1     142.522 175.464 189.468  0.00  0.00    +0.040 HD
ATOM     30  H   UNL     1     141.433 172.773 190.448  0.00  0.00    +0.055 HD
ATOM     31  H   UNL     1     144.150 173.588 189.766  0.00  0.00    +0.149 HD
ATOM     32  H   UNL     1     145.830 172.123 190.140  0.00  0.00    +0.060 HD
ATOM     33  H   UNL     1     144.172 171.759 185.871  0.00  0.00    +0.059 HD
ATOM     34  H   UNL     1     145.773 174.129 186.157  0.00  0.00    +0.149 HD
ATOM     35  H   UNL     1     145.467 175.778 184.659  0.00  0.00    +0.039 HD
ATOM     36  H   UNL     1     144.996 176.462 182.157  0.00  0.00    +0.032 HD
ATOM     37  H   UNL     1     144.241 174.900 181.973  0.00  0.00    +0.032 HD
ATOM     38  H   UNL     1     142.110 174.552 182.815  0.00  0.00    +0.057 HD
ENDROOT
BRANCH   8  39
ATOM     39  C   UNL     1     142.082 174.134 191.970  0.00  0.00    -0.026 A 
ATOM     40  C   UNL     1     143.011 175.069 192.456  0.00  0.00    -0.053 A 
ATOM     41  C   UNL     1     142.922 175.544 193.766  0.00  0.00    -0.020 A 
ATOM     42  C   UNL     1     141.917 175.078 194.602  0.00  0.00    +0.117 A 
ATOM     43  C   UNL     1     140.998 174.137 194.153  0.00  0.00    -0.020 A 
ATOM     44  C   UNL     1     141.085 173.664 192.842  0.00  0.00    -0.053 A 
ATOM     45  H   UNL     1     143.820 175.431 191.827  0.00  0.00    +0.062 HD
ATOM     46  H   UNL     1     143.641 176.270 194.135  0.00  0.00    +0.065 HD
ATOM     47  H   UNL     1     140.218 173.754 194.804  0.00  0.00    +0.065 HD
ATOM     48  H   UNL     1     140.376 172.910 192.504  0.00  0.00    +0.062 HD
BRANCH  42  49
ATOM     49  O   UNL     1     141.872 175.566 195.875  0.00  0.00    -0.507 OA
ATOM     50  H   UNL     1     141.499 176.463 195.845  0.00  0.00    +0.292 HD
ENDBRANCH  42  49
ENDBRANCH   8  39
BRANCH   1  51
ATOM     51  C   UNL     1     140.128 177.197 183.043  0.00  0.00    -0.059 C 
ATOM     52  H   UNL     1     140.619 177.417 182.093  0.00  0.00    +0.024 HD
ATOM     53  H   UNL     1     140.297 178.058 183.698  0.00  0.00    +0.024 HD
ATOM     54  H   UNL     1     139.049 177.128 182.862  0.00  0.00    +0.024 HD
ENDBRANCH   1  51
BRANCH  22  55
ATOM     55  C   UNL     1     143.354 177.657 183.845  0.00  0.00    -0.044 C 
ATOM     56  H   UNL     1     144.405 177.870 184.073  0.00  0.00    +0.027 HD
ATOM     57  H   UNL     1     143.014 178.390 183.108  0.00  0.00    +0.027 HD
ATOM     58  H   UNL     1     142.802 177.821 184.770  0.00  0.00    +0.027 HD
ENDBRANCH  22  55
BRANCH  20  59
ATOM     59  C   UNL     1     146.839 174.948 183.241  0.00  0.00    -0.054 C 
ATOM     60  H   UNL     1     147.427 175.851 183.426  0.00  0.00    +0.024 HD
ATOM     61  H   UNL     1     146.824 174.762 182.161  0.00  0.00    +0.024 HD
ATOM     62  H   UNL     1     147.361 174.107 183.710  0.00  0.00    +0.024 HD
ENDBRANCH  20  59
BRANCH  16  63
ATOM     63  C   UNL     1     146.250 171.140 185.655  0.00  0.00    -0.038 C 
ATOM     64  H   UNL     1     146.523 171.330 184.613  0.00  0.00    +0.025 HD
ATOM     65  H   UNL     1     145.904 170.101 185.715  0.00  0.00    +0.025 HD
ATOM     66  H   UNL     1     147.159 171.220 186.261  0.00  0.00    +0.025 HD
ENDBRANCH  16  63
BRANCH  13  67
ATOM     67  C   UNL     1     143.984 170.137 188.036  0.00  0.00    +0.004 C 
ATOM     68  H   UNL     1     143.845 169.344 188.771  0.00  0.00    +0.043 HD
ATOM     69  H   UNL     1     144.385 169.682 187.126  0.00  0.00    +0.043 HD
ATOM     70  H   UNL     1     143.008 170.564 187.820  0.00  0.00    +0.043 HD
ENDBRANCH  13  67
BRANCH   3  71
ATOM     71  C   UNL     1     139.744 173.592 185.730  0.00  0.00    -0.028 C 
ATOM     72  H   UNL     1     139.380 173.596 184.698  0.00  0.00    +0.027 HD
ATOM     73  H   UNL     1     138.896 173.759 186.404  0.00  0.00    +0.027 HD
ATOM     74  H   UNL     1     140.119 172.588 185.948  0.00  0.00    +0.027 HD
ENDBRANCH   3  71
BRANCH  12  75
ATOM     75  C   UNL     1     145.706 170.052 190.654  0.00  0.00    +0.003 C 
ATOM     76  H   UNL     1     145.583 169.152 190.039  0.00  0.00    +0.034 HD
ATOM     77  H   UNL     1     145.132 169.845 191.567  0.00  0.00    +0.034 HD
BRANCH  75  78
ATOM     78  C   UNL     1     147.154 170.225 191.031  0.00  0.00    -0.006 A 
ATOM     79  C   UNL     1     148.213 169.417 190.670  0.00  0.00    +0.087 A 
ATOM     80  N   UNL     1     149.355 169.887 191.247  0.00  0.00    -0.349 N 
ATOM     81  C   UNL     1     149.081 171.015 191.983  0.00  0.00    +0.048 A 
ATOM     82  C   UNL     1     149.936 171.824 192.744  0.00  0.00    -0.038 A 
ATOM     83  C   UNL     1     149.380 172.932 193.384  0.00  0.00    -0.060 A 
ATOM     84  C   UNL     1     148.024 173.221 193.266  0.00  0.00    -0.061 A 
ATOM     85  C   UNL     1     147.184 172.401 192.503  0.00  0.00    -0.052 A 
ATOM     86  C   UNL     1     147.712 171.266 191.853  0.00  0.00    +0.004 A 
ATOM     87 BR   UNL     1     148.162 167.870 189.564  0.00  0.00    -0.031 Br
ATOM     88  H   UNL     1     150.266 169.466 191.146  0.00  0.00    +0.166 HD
ATOM     89  H   UNL     1     150.995 171.605 192.835  0.00  0.00    +0.064 HD
ATOM     90  H   UNL     1     150.018 173.582 193.979  0.00  0.00    +0.062 HD
ATOM     91  H   UNL     1     147.612 174.094 193.767  0.00  0.00    +0.062 HD
ATOM     92  H   UNL     1     146.132 172.651 192.412  0.00  0.00    +0.062 HD
ENDBRANCH  75  78
ENDBRANCH  12  75
TORSDOF 10
ENDMDL
MODEL 5
REMARK VINA RESULT:      -7.0      4.853      9.424
REMARK  Name = Jasplakinolide_conf2
REMARK  10 active torsions:
REMARK  status: ('A' for Active; 'I' for Inactive)
REMARK    1  A    between atoms: C_1  and  C_2
REMARK    2  A    between atoms: C_4  and  C_47
REMARK    3  A    between atoms: C_9  and  C_40
REMARK    4  A    between atoms: C_13  and  C_29
REMARK    5  A    between atoms: N_14  and  C_28
REMARK    6  A    between atoms: C_17  and  C_27
REMARK    7  A    between atoms: C_21  and  C_26
REMARK    8  A    between atoms: C_23  and  C_25
REMARK    9  A    between atoms: C_29  and  C_30
REMARK   10  A    between atoms: C_43  and  O_46
REMARK                            x       y       z     vdW  Elec       q    Type
REMARK                         _______ _______ _______ _____ _____    ______ ____
ROOT
ATOM      1  C   UNL     1     142.576 174.554 184.786  0.00  0.00    -0.022 C 
ATOM      2  C   UNL     1     143.309 174.620 186.137  0.00  0.00    -0.010 C 
ATOM      3  C   UNL     1     143.381 173.282 186.897  0.00  0.00    +0.101 C 
ATOM      4  O   UNL     1     144.325 173.480 187.974  0.00  0.00    -0.462 OA
ATOM      5  C   UNL     1     144.908 172.354 188.474  0.00  0.00    +0.309 C 
ATOM      6  O   UNL     1     144.632 171.213 188.132  0.00  0.00    -0.251 OA
ATOM      7  C   UNL     1     145.998 172.745 189.442  0.00  0.00    +0.067 C 
ATOM      8  C   UNL     1     146.386 171.591 190.374  0.00  0.00    +0.058 C 
ATOM      9  N   UNL     1     146.992 170.487 189.653  0.00  0.00    -0.306 N 
ATOM     10  C   UNL     1     146.830 169.171 190.045  0.00  0.00    +0.234 C 
ATOM     11  O   UNL     1     146.281 168.833 191.089  0.00  0.00    -0.274 OA
ATOM     12  C   UNL     1     147.297 168.172 188.973  0.00  0.00    +0.106 C 
ATOM     13  N   UNL     1     146.298 168.201 187.871  0.00  0.00    -0.291 N 
ATOM     14  C   UNL     1     146.575 169.010 186.769  0.00  0.00    +0.236 C 
ATOM     15  O   UNL     1     147.582 169.734 186.739  0.00  0.00    -0.274 OA
ATOM     16  C   UNL     1     145.615 168.972 185.556  0.00  0.00    +0.097 C 
ATOM     17  N   UNL     1     145.990 170.056 184.644  0.00  0.00    -0.304 N 
ATOM     18  C   UNL     1     145.131 170.556 183.694  0.00  0.00    +0.217 C 
ATOM     19  O   UNL     1     143.975 170.162 183.569  0.00  0.00    -0.275 OA
ATOM     20  C   UNL     1     145.781 171.564 182.750  0.00  0.00    +0.036 C 
ATOM     21  C   UNL     1     144.751 172.545 182.163  0.00  0.00    -0.021 C 
ATOM     22  C   UNL     1     144.367 173.660 183.128  0.00  0.00    -0.076 C 
ATOM     23  C   UNL     1     143.204 173.584 183.809  0.00  0.00    -0.082 C 
ATOM     24  H   UNL     1     141.564 174.172 184.976  0.00  0.00    +0.034 HD
ATOM     25  H   UNL     1     142.825 175.367 186.784  0.00  0.00    +0.031 HD
ATOM     26  H   UNL     1     144.330 174.995 185.996  0.00  0.00    +0.031 HD
ATOM     27  H   UNL     1     143.755 172.496 186.231  0.00  0.00    +0.073 HD
ATOM     28  H   UNL     1     145.633 173.589 190.044  0.00  0.00    +0.040 HD
ATOM     29  H   UNL     1     146.853 173.089 188.849  0.00  0.00    +0.040 HD
ATOM     30  H   UNL     1     145.461 171.212 190.831  0.00  0.00    +0.055 HD
ATOM     31  H   UNL     1     147.427 170.655 188.748  0.00  0.00    +0.149 HD
ATOM     32  H   UNL     1     148.250 168.556 188.590  0.00  0.00    +0.060 HD
ATOM     33  H   UNL     1     144.588 169.157 185.882  0.00  0.00    +0.059 HD
ATOM     34  H   UNL     1     146.903 170.469 184.793  0.00  0.00    +0.149 HD
ATOM     35  H   UNL     1     146.560 172.111 183.294  0.00  0.00    +0.039 HD
ATOM     36  H   UNL     1     145.154 173.013 181.255  0.00  0.00    +0.032 HD
ATOM     37  H   UNL     1     143.852 172.006 181.831  0.00  0.00    +0.032 HD
ATOM     38  H   UNL     1     142.596 172.688 183.655  0.00  0.00    +0.057 HD
ENDROOT
BRANCH   8  39
ATOM     39  C   UNL     1     147.321 172.052 191.481  0.00  0.00    -0.026 A 
ATOM     40  C   UNL     1     148.666 171.645 191.533  0.00  0.00    -0.053 A 
ATOM     41  C   UNL     1     149.502 172.084 192.561  0.00  0.00    -0.020 A 
ATOM     42  C   UNL     1     148.999 172.916 193.551  0.00  0.00    +0.117 A 
ATOM     43  C   UNL     1     147.668 173.316 193.536  0.00  0.00    -0.020 A 
ATOM     44  C   UNL     1     146.832 172.880 192.506  0.00  0.00    -0.053 A 
ATOM     45  H   UNL     1     149.075 170.976 190.781  0.00  0.00    +0.062 HD
ATOM     46  H   UNL     1     150.541 171.770 192.593  0.00  0.00    +0.065 HD
ATOM     47  H   UNL     1     147.261 173.954 194.315  0.00  0.00    +0.065 HD
ATOM     48  H   UNL     1     145.784 173.178 192.513  0.00  0.00    +0.062 HD
BRANCH  42  49
ATOM     49  O   UNL     1     149.851 173.316 194.538  0.00  0.00    -0.507 OA
ATOM     50  H   UNL     1     150.492 173.938 194.155  0.00  0.00    +0.292 HD
ENDBRANCH  42  49
ENDBRANCH   8  39
BRANCH   1  51
ATOM     51  C   UNL     1     142.366 175.950 184.191  0.00  0.00    -0.059 C 
ATOM     52  H   UNL     1     142.200 176.712 184.956  0.00  0.00    +0.024 HD
ATOM     53  H   UNL     1     141.486 175.956 183.539  0.00  0.00    +0.024 HD
ATOM     54  H   UNL     1     143.228 176.253 183.587  0.00  0.00    +0.024 HD
ENDBRANCH   1  51
BRANCH  22  55
ATOM     55  C   UNL     1     145.355 174.793 183.195  0.00  0.00    -0.044 C 
ATOM     56  H   UNL     1     145.081 175.499 183.988  0.00  0.00    +0.027 HD
ATOM     57  H   UNL     1     146.353 174.404 183.421  0.00  0.00    +0.027 HD
ATOM     58  H   UNL     1     145.414 175.373 182.276  0.00  0.00    +0.027 HD
ENDBRANCH  22  55
BRANCH  20  59
ATOM     59  C   UNL     1     146.458 170.772 181.628  0.00  0.00    -0.054 C 
ATOM     60  H   UNL     1     145.889 169.868 181.393  0.00  0.00    +0.024 HD
ATOM     61  H   UNL     1     147.476 170.476 181.907  0.00  0.00    +0.024 HD
ATOM     62  H   UNL     1     146.532 171.367 180.711  0.00  0.00    +0.024 HD
ENDBRANCH  20  59
BRANCH  16  63
ATOM     63  C   UNL     1     145.739 167.631 184.836  0.00  0.00    -0.038 C 
ATOM     64  H   UNL     1     146.779 167.375 184.612  0.00  0.00    +0.025 HD
ATOM     65  H   UNL     1     145.198 167.649 183.882  0.00  0.00    +0.025 HD
ATOM     66  H   UNL     1     145.315 166.820 185.439  0.00  0.00    +0.025 HD
ENDBRANCH  16  63
BRANCH  13  67
ATOM     67  C   UNL     1     144.939 167.755 188.175  0.00  0.00    +0.004 C 
ATOM     68  H   UNL     1     144.752 167.696 189.248  0.00  0.00    +0.043 HD
ATOM     69  H   UNL     1     144.796 166.755 187.756  0.00  0.00    +0.043 HD
ATOM     70  H   UNL     1     144.202 168.430 187.746  0.00  0.00    +0.043 HD
ENDBRANCH  13  67
BRANCH   3  71
ATOM     71  C   UNL     1     142.027 172.881 187.483  0.00  0.00    -0.028 C 
ATOM     72  H   UNL     1     141.497 172.177 186.835  0.00  0.00    +0.027 HD
ATOM     73  H   UNL     1     141.394 173.762 187.639  0.00  0.00    +0.027 HD
ATOM     74  H   UNL     1     142.147 172.409 188.463  0.00  0.00    +0.027 HD
ENDBRANCH   3  71
BRANCH  12  75
ATOM     75  C   UNL     1     147.573 166.779 189.567  0.00  0.00    +0.003 C 
ATOM     76  H   UNL     1     147.426 165.985 188.825  0.00  0.00    +0.034 HD
ATOM     77  H   UNL     1     146.835 166.567 190.351  0.00  0.00    +0.034 HD
BRANCH  75  78
ATOM     78  C   UNL     1     148.950 166.677 190.168  0.00  0.00    -0.006 A 
ATOM     79  C   UNL     1     150.153 166.607 189.493  0.00  0.00    +0.087 A 
ATOM     80  N   UNL     1     151.168 166.481 190.395  0.00  0.00    -0.349 N 
ATOM     81  C   UNL     1     150.665 166.479 191.673  0.00  0.00    +0.048 A 
ATOM     82  C   UNL     1     151.329 166.367 192.902  0.00  0.00    -0.038 A 
ATOM     83  C   UNL     1     150.556 166.413 194.063  0.00  0.00    -0.060 A 
ATOM     84  C   UNL     1     149.175 166.566 193.997  0.00  0.00    -0.061 A 
ATOM     85  C   UNL     1     148.527 166.674 192.761  0.00  0.00    -0.052 A 
ATOM     86  C   UNL     1     149.278 166.620 191.568  0.00  0.00    +0.004 A 
ATOM     87 BR   UNL     1     150.426 166.656 187.611  0.00  0.00    -0.031 Br
ATOM     88  H   UNL     1     152.144 166.400 190.153  0.00  0.00    +0.166 HD
ATOM     89  H   UNL     1     152.407 166.252 192.958  0.00  0.00    +0.064 HD
ATOM     90  H   UNL     1     151.042 166.332 195.033  0.00  0.00    +0.062 HD
ATOM     91  H   UNL     1     148.591 166.605 194.914  0.00  0.00    +0.062 HD
ATOM     92  H   UNL     1     147.451 166.807 192.731  0.00  0.00    +0.062 HD
ENDBRANCH  75  78
ENDBRANCH  12  75
TORSDOF 10
ENDMDL
MODEL 6
REMARK VINA RESULT:      -7.0      6.862     12.177
REMARK  Name = Jasplakinolide_conf2
REMARK  10 active torsions:
REMARK  status: ('A' for Active; 'I' for Inactive)
REMARK    1  A    between atoms: C_1  and  C_2
REMARK    2  A    between atoms: C_4  and  C_47
REMARK    3  A    between atoms: C_9  and  C_40
REMARK    4  A    between atoms: C_13  and  C_29
REMARK    5  A    between atoms: N_14  and  C_28
REMARK    6  A    between atoms: C_17  and  C_27
REMARK    7  A    between atoms: C_21  and  C_26
REMARK    8  A    between atoms: C_23  and  C_25
REMARK    9  A    between atoms: C_29  and  C_30
REMARK   10  A    between atoms: C_43  and  O_46
REMARK                            x       y       z     vdW  Elec       q    Type
REMARK                         _______ _______ _______ _____ _____    ______ ____
ROOT
ATOM      1  C   UNL     1     135.746 174.284 192.507  0.00  0.00    -0.022 C 
ATOM      2  C   UNL     1     136.365 172.961 192.022  0.00  0.00    -0.010 C 
ATOM      3  C   UNL     1     137.541 173.121 191.040  0.00  0.00    +0.101 C 
ATOM      4  O   UNL     1     138.150 171.815 190.924  0.00  0.00    -0.462 OA
ATOM      5  C   UNL     1     139.449 171.795 190.513  0.00  0.00    +0.309 C 
ATOM      6  O   UNL     1     140.089 172.779 190.170  0.00  0.00    -0.251 OA
ATOM      7  C   UNL     1     139.989 170.390 190.633  0.00  0.00    +0.067 C 
ATOM      8  C   UNL     1     141.251 170.180 189.788  0.00  0.00    +0.058 C 
ATOM      9  N   UNL     1     142.364 170.982 190.262  0.00  0.00    -0.306 N 
ATOM     10  C   UNL     1     143.320 171.497 189.406  0.00  0.00    +0.234 C 
ATOM     11  O   UNL     1     143.386 171.222 188.212  0.00  0.00    -0.274 OA
ATOM     12  C   UNL     1     144.212 172.552 190.081  0.00  0.00    +0.106 C 
ATOM     13  N   UNL     1     143.392 173.780 190.264  0.00  0.00    -0.291 N 
ATOM     14  C   UNL     1     142.787 173.973 191.506  0.00  0.00    +0.236 C 
ATOM     15  O   UNL     1     142.870 173.120 192.402  0.00  0.00    -0.274 OA
ATOM     16  C   UNL     1     142.025 175.294 191.767  0.00  0.00    +0.097 C 
ATOM     17  N   UNL     1     141.302 175.161 193.034  0.00  0.00    -0.304 N 
ATOM     18  C   UNL     1     140.235 175.962 193.367  0.00  0.00    +0.217 C 
ATOM     19  O   UNL     1     139.784 176.817 192.609  0.00  0.00    -0.275 OA
ATOM     20  C   UNL     1     139.740 175.759 194.796  0.00  0.00    +0.036 C 
ATOM     21  C   UNL     1     138.254 176.133 194.944  0.00  0.00    -0.021 C 
ATOM     22  C   UNL     1     137.310 175.050 194.437  0.00  0.00    -0.076 C 
ATOM     23  C   UNL     1     136.734 175.179 193.223  0.00  0.00    -0.082 C 
ATOM     24  H   UNL     1     135.425 174.844 191.619  0.00  0.00    +0.034 HD
ATOM     25  H   UNL     1     135.588 172.344 191.544  0.00  0.00    +0.031 HD
ATOM     26  H   UNL     1     136.705 172.365 192.877  0.00  0.00    +0.031 HD
ATOM     27  H   UNL     1     138.274 173.825 191.449  0.00  0.00    +0.073 HD
ATOM     28  H   UNL     1     139.208 169.695 190.295  0.00  0.00    +0.040 HD
ATOM     29  H   UNL     1     140.180 170.204 191.696  0.00  0.00    +0.040 HD
ATOM     30  H   UNL     1     141.022 170.513 188.766  0.00  0.00    +0.055 HD
ATOM     31  H   UNL     1     142.375 171.309 191.226  0.00  0.00    +0.149 HD
ATOM     32  H   UNL     1     144.467 172.152 191.069  0.00  0.00    +0.060 HD
ATOM     33  H   UNL     1     141.283 175.464 190.981  0.00  0.00    +0.059 HD
ATOM     34  H   UNL     1     141.589 174.397 193.634  0.00  0.00    +0.149 HD
ATOM     35  H   UNL     1     139.899 174.714 195.083  0.00  0.00    +0.039 HD
ATOM     36  H   UNL     1     138.017 176.316 196.001  0.00  0.00    +0.032 HD
ATOM     37  H   UNL     1     138.044 177.086 194.436  0.00  0.00    +0.032 HD
ATOM     38  H   UNL     1     137.006 176.061 192.636  0.00  0.00    +0.057 HD
ENDROOT
BRANCH   8  39
ATOM     39  C   UNL     1     141.660 168.716 189.742  0.00  0.00    -0.026 A 
ATOM     40  C   UNL     1     142.260 168.079 190.841  0.00  0.00    -0.053 A 
ATOM     41  C   UNL     1     142.625 166.734 190.771  0.00  0.00    -0.020 A 
ATOM     42  C   UNL     1     142.410 166.021 189.599  0.00  0.00    +0.117 A 
ATOM     43  C   UNL     1     141.838 166.633 188.490  0.00  0.00    -0.020 A 
ATOM     44  C   UNL     1     141.469 167.977 188.562  0.00  0.00    -0.053 A 
ATOM     45  H   UNL     1     142.459 168.623 191.760  0.00  0.00    +0.062 HD
ATOM     46  H   UNL     1     143.085 166.245 191.625  0.00  0.00    +0.065 HD
ATOM     47  H   UNL     1     141.680 166.088 187.564  0.00  0.00    +0.065 HD
ATOM     48  H   UNL     1     141.043 168.457 187.681  0.00  0.00    +0.062 HD
BRANCH  42  49
ATOM     49  O   UNL     1     142.787 164.710 189.574  0.00  0.00    -0.507 OA
ATOM     50  H   UNL     1     143.206 164.529 188.716  0.00  0.00    +0.292 HD
ENDBRANCH  42  49
ENDBRANCH   8  39
BRANCH   1  51
ATOM     51  C   UNL     1     134.464 174.044 193.309  0.00  0.00    -0.059 C 
ATOM     52  H   UNL     1     133.803 174.913 193.314  0.00  0.00    +0.024 HD
ATOM     53  H   UNL     1     134.707 173.822 194.354  0.00  0.00    +0.024 HD
ATOM     54  H   UNL     1     133.905 173.190 192.911  0.00  0.00    +0.024 HD
ENDBRANCH   1  51
BRANCH  22  55
ATOM     55  C   UNL     1     137.085 173.918 195.403  0.00  0.00    -0.044 C 
ATOM     56  H   UNL     1     136.081 173.498 195.279  0.00  0.00    +0.027 HD
ATOM     57  H   UNL     1     137.810 173.120 195.216  0.00  0.00    +0.027 HD
ATOM     58  H   UNL     1     137.166 174.215 196.447  0.00  0.00    +0.027 HD
ENDBRANCH  22  55
BRANCH  20  59
ATOM     59  C   UNL     1     140.600 176.637 195.710  0.00  0.00    -0.054 C 
ATOM     60  H   UNL     1     141.040 177.467 195.149  0.00  0.00    +0.024 HD
ATOM     61  H   UNL     1     141.414 176.060 196.165  0.00  0.00    +0.024 HD
ATOM     62  H   UNL     1     140.007 177.062 196.526  0.00  0.00    +0.024 HD
ENDBRANCH  20  59
BRANCH  16  63
ATOM     63  C   UNL     1     143.014 176.455 191.860  0.00  0.00    -0.038 C 
ATOM     64  H   UNL     1     143.797 176.273 192.602  0.00  0.00    +0.025 HD
ATOM     65  H   UNL     1     142.502 177.380 192.151  0.00  0.00    +0.025 HD
ATOM     66  H   UNL     1     143.499 176.637 190.895  0.00  0.00    +0.025 HD
ENDBRANCH  16  63
BRANCH  13  67
ATOM     67  C   UNL     1     142.916 174.463 189.061  0.00  0.00    +0.004 C 
ATOM     68  H   UNL     1     141.858 174.284 188.873  0.00  0.00    +0.043 HD
ATOM     69  H   UNL     1     143.477 174.089 188.201  0.00  0.00    +0.043 HD
ATOM     70  H   UNL     1     143.061 175.538 189.142  0.00  0.00    +0.043 HD
ENDBRANCH  13  67
BRANCH   3  71
ATOM     71  C   UNL     1     137.076 173.583 189.658  0.00  0.00    -0.028 C 
ATOM     72  H   UNL     1     136.150 174.162 189.715  0.00  0.00    +0.027 HD
ATOM     73  H   UNL     1     136.916 172.726 188.994  0.00  0.00    +0.027 HD
ATOM     74  H   UNL     1     137.834 174.208 189.177  0.00  0.00    +0.027 HD
ENDBRANCH   3  71
BRANCH  12  75
ATOM     75  C   UNL     1     145.534 172.759 189.320  0.00  0.00    +0.003 C 
ATOM     76  H   UNL     1     145.792 173.821 189.234  0.00  0.00    +0.034 HD
ATOM     77  H   UNL     1     145.413 172.418 188.284  0.00  0.00    +0.034 HD
BRANCH  75  78
ATOM     78  C   UNL     1     146.676 171.998 189.941  0.00  0.00    -0.006 A 
ATOM     79  C   UNL     1     147.128 170.740 189.595  0.00  0.00    +0.087 A 
ATOM     80  N   UNL     1     148.153 170.387 190.422  0.00  0.00    -0.349 N 
ATOM     81  C   UNL     1     148.408 171.400 191.315  0.00  0.00    +0.048 A 
ATOM     82  C   UNL     1     149.358 171.476 192.343  0.00  0.00    -0.038 A 
ATOM     83  C   UNL     1     149.405 172.650 193.095  0.00  0.00    -0.060 A 
ATOM     84  C   UNL     1     148.538 173.706 192.830  0.00  0.00    -0.061 A 
ATOM     85  C   UNL     1     147.593 173.611 191.801  0.00  0.00    -0.052 A 
ATOM     86  C   UNL     1     147.512 172.433 191.028  0.00  0.00    +0.004 A 
ATOM     87 BR   UNL     1     146.466 169.615 188.211  0.00  0.00    -0.031 Br
ATOM     88  H   UNL     1     148.649 169.509 190.381  0.00  0.00    +0.166 HD
ATOM     89  H   UNL     1     150.039 170.657 192.550  0.00  0.00    +0.064 HD
ATOM     90  H   UNL     1     150.133 172.743 193.898  0.00  0.00    +0.062 HD
ATOM     91  H   UNL     1     148.595 174.615 193.424  0.00  0.00    +0.062 HD
ATOM     92  H   UNL     1     146.936 174.451 191.600  0.00  0.00    +0.062 HD
ENDBRANCH  75  78
ENDBRANCH  12  75
TORSDOF 10
ENDMDL
MODEL 7
REMARK VINA RESULT:      -7.0      4.075      6.212
REMARK  Name = Jasplakinolide_conf2
REMARK  10 active torsions:
REMARK  status: ('A' for Active; 'I' for Inactive)
REMARK    1  A    between atoms: C_1  and  C_2
REMARK    2  A    between atoms: C_4  and  C_47
REMARK    3  A    between atoms: C_9  and  C_40
REMARK    4  A    between atoms: C_13  and  C_29
REMARK    5  A    between atoms: N_14  and  C_28
REMARK    6  A    between atoms: C_17  and  C_27
REMARK    7  A    between atoms: C_21  and  C_26
REMARK    8  A    between atoms: C_23  and  C_25
REMARK    9  A    between atoms: C_29  and  C_30
REMARK   10  A    between atoms: C_43  and  O_46
REMARK                            x       y       z     vdW  Elec       q    Type
REMARK                         _______ _______ _______ _____ _____    ______ ____
ROOT
ATOM      1  C   UNL     1     147.428 164.360 186.430  0.00  0.00    -0.022 C 
ATOM      2  C   UNL     1     148.006 165.451 187.349  0.00  0.00    -0.010 C 
ATOM      3  C   UNL     1     147.366 166.842 187.182  0.00  0.00    +0.101 C 
ATOM      4  O   UNL     1     147.833 167.637 188.295  0.00  0.00    -0.462 OA
ATOM      5  C   UNL     1     147.060 168.708 188.631  0.00  0.00    +0.309 C 
ATOM      6  O   UNL     1     146.068 169.074 188.017  0.00  0.00    -0.251 OA
ATOM      7  C   UNL     1     147.572 169.309 189.918  0.00  0.00    +0.067 C 
ATOM      8  C   UNL     1     147.075 170.744 190.125  0.00  0.00    +0.058 C 
ATOM      9  N   UNL     1     145.637 170.802 190.306  0.00  0.00    -0.306 N 
ATOM     10  C   UNL     1     144.880 171.873 189.866  0.00  0.00    +0.234 C 
ATOM     11  O   UNL     1     145.360 172.906 189.410  0.00  0.00    -0.274 OA
ATOM     12  C   UNL     1     143.370 171.580 189.888  0.00  0.00    +0.106 C 
ATOM     13  N   UNL     1     143.083 170.633 188.778  0.00  0.00    -0.291 N 
ATOM     14  C   UNL     1     143.018 169.275 189.088  0.00  0.00    +0.236 C 
ATOM     15  O   UNL     1     143.260 168.864 190.233  0.00  0.00    -0.274 OA
ATOM     16  C   UNL     1     142.606 168.275 187.981  0.00  0.00    +0.097 C 
ATOM     17  N   UNL     1     142.830 166.918 188.486  0.00  0.00    -0.304 N 
ATOM     18  C   UNL     1     142.950 165.829 187.655  0.00  0.00    +0.217 C 
ATOM     19  O   UNL     1     142.923 165.920 186.431  0.00  0.00    -0.275 OA
ATOM     20  C   UNL     1     143.016 164.497 188.397  0.00  0.00    +0.036 C 
ATOM     21  C   UNL     1     143.762 163.425 187.584  0.00  0.00    -0.021 C 
ATOM     22  C   UNL     1     145.278 163.566 187.654  0.00  0.00    -0.076 C 
ATOM     23  C   UNL     1     145.945 164.134 186.628  0.00  0.00    -0.082 C 
ATOM     24  H   UNL     1     147.541 164.707 185.394  0.00  0.00    +0.034 HD
ATOM     25  H   UNL     1     149.091 165.539 187.180  0.00  0.00    +0.031 HD
ATOM     26  H   UNL     1     147.914 165.149 188.400  0.00  0.00    +0.031 HD
ATOM     27  H   UNL     1     146.275 166.757 187.232  0.00  0.00    +0.073 HD
ATOM     28  H   UNL     1     148.670 169.307 189.881  0.00  0.00    +0.040 HD
ATOM     29  H   UNL     1     147.253 168.650 190.734  0.00  0.00    +0.040 HD
ATOM     30  H   UNL     1     147.312 171.309 189.213  0.00  0.00    +0.055 HD
ATOM     31  H   UNL     1     145.135 169.978 190.628  0.00  0.00    +0.149 HD
ATOM     32  H   UNL     1     143.170 171.074 190.840  0.00  0.00    +0.060 HD
ATOM     33  H   UNL     1     143.238 168.407 187.099  0.00  0.00    +0.059 HD
ATOM     34  H   UNL     1     142.959 166.829 189.487  0.00  0.00    +0.149 HD
ATOM     35  H   UNL     1     143.507 164.652 189.364  0.00  0.00    +0.039 HD
ATOM     36  H   UNL     1     143.502 162.424 187.954  0.00  0.00    +0.032 HD
ATOM     37  H   UNL     1     143.430 163.436 186.535  0.00  0.00    +0.032 HD
ATOM     38  H   UNL     1     145.346 164.504 185.791  0.00  0.00    +0.057 HD
ENDROOT
BRANCH   8  39
ATOM     39  C   UNL     1     147.765 171.413 191.304  0.00  0.00    -0.026 A 
ATOM     40  C   UNL     1     147.074 172.270 192.178  0.00  0.00    -0.053 A 
ATOM     41  C   UNL     1     147.732 172.871 193.252  0.00  0.00    -0.020 A 
ATOM     42  C   UNL     1     149.085 172.634 193.452  0.00  0.00    +0.117 A 
ATOM     43  C   UNL     1     149.797 171.808 192.590  0.00  0.00    -0.020 A 
ATOM     44  C   UNL     1     149.138 171.204 191.518  0.00  0.00    -0.053 A 
ATOM     45  H   UNL     1     146.020 172.488 192.027  0.00  0.00    +0.062 HD
ATOM     46  H   UNL     1     147.192 173.529 193.927  0.00  0.00    +0.065 HD
ATOM     47  H   UNL     1     150.859 171.629 192.729  0.00  0.00    +0.065 HD
ATOM     48  H   UNL     1     149.707 170.577 190.832  0.00  0.00    +0.062 HD
BRANCH  42  49
ATOM     49  O   UNL     1     149.688 173.246 194.511  0.00  0.00    -0.507 OA
ATOM     50  H   UNL     1     150.408 172.674 194.826  0.00  0.00    +0.292 HD
ENDBRANCH  42  49
ENDBRANCH   8  39
BRANCH   1  51
ATOM     51  C   UNL     1     148.246 163.068 186.506  0.00  0.00    -0.059 C 
ATOM     52  H   UNL     1     147.620 162.174 186.511  0.00  0.00    +0.024 HD
ATOM     53  H   UNL     1     148.839 163.049 187.426  0.00  0.00    +0.024 HD
ATOM     54  H   UNL     1     148.943 162.994 185.663  0.00  0.00    +0.024 HD
ENDBRANCH   1  51
BRANCH  22  55
ATOM     55  C   UNL     1     145.898 163.000 188.903  0.00  0.00    -0.044 C 
ATOM     56  H   UNL     1     145.213 163.097 189.754  0.00  0.00    +0.027 HD
ATOM     57  H   UNL     1     146.112 161.936 188.763  0.00  0.00    +0.027 HD
ATOM     58  H   UNL     1     146.821 163.499 189.195  0.00  0.00    +0.027 HD
ENDBRANCH  22  55
BRANCH  20  59
ATOM     59  C   UNL     1     141.576 164.051 188.667  0.00  0.00    -0.054 C 
ATOM     60  H   UNL     1     141.450 163.757 189.713  0.00  0.00    +0.024 HD
ATOM     61  H   UNL     1     141.298 163.200 188.034  0.00  0.00    +0.024 HD
ATOM     62  H   UNL     1     140.864 164.857 188.459  0.00  0.00    +0.024 HD
ENDBRANCH  20  59
BRANCH  16  63
ATOM     63  C   UNL     1     141.128 168.458 187.640  0.00  0.00    -0.038 C 
ATOM     64  H   UNL     1     140.598 169.044 188.397  0.00  0.00    +0.025 HD
ATOM     65  H   UNL     1     140.622 167.487 187.569  0.00  0.00    +0.025 HD
ATOM     66  H   UNL     1     141.006 168.964 186.676  0.00  0.00    +0.025 HD
ENDBRANCH  16  63
BRANCH  13  67
ATOM     67  C   UNL     1     143.313 171.099 187.411  0.00  0.00    +0.004 C 
ATOM     68  H   UNL     1     143.969 171.970 187.375  0.00  0.00    +0.043 HD
ATOM     69  H   UNL     1     142.354 171.385 186.972  0.00  0.00    +0.043 HD
ATOM     70  H   UNL     1     143.765 170.318 186.804  0.00  0.00    +0.043 HD
ENDBRANCH  13  67
BRANCH   3  71
ATOM     71  C   UNL     1     147.787 167.513 185.874  0.00  0.00    -0.028 C 
ATOM     72  H   UNL     1     148.869 167.661 185.825  0.00  0.00    +0.027 HD
ATOM     73  H   UNL     1     147.292 168.483 185.757  0.00  0.00    +0.027 HD
ATOM     74  H   UNL     1     147.492 166.910 185.010  0.00  0.00    +0.027 HD
ENDBRANCH   3  71
BRANCH  12  75
ATOM     75  C   UNL     1     142.534 172.873 189.876  0.00  0.00    +0.003 C 
ATOM     76  H   UNL     1     141.840 172.899 189.028  0.00  0.00    +0.034 HD
ATOM     77  H   UNL     1     143.198 173.732 189.718  0.00  0.00    +0.034 HD
BRANCH  75  78
ATOM     78  C   UNL     1     141.783 173.080 191.165  0.00  0.00    -0.006 A 
ATOM     79  C   UNL     1     140.597 172.485 191.545  0.00  0.00    +0.087 A 
ATOM     80  N   UNL     1     140.222 172.967 192.764  0.00  0.00    -0.349 N 
ATOM     81  C   UNL     1     141.151 173.872 193.219  0.00  0.00    +0.048 A 
ATOM     82  C   UNL     1     141.178 174.616 194.407  0.00  0.00    -0.038 A 
ATOM     83  C   UNL     1     142.269 175.459 194.618  0.00  0.00    -0.060 A 
ATOM     84  C   UNL     1     143.293 175.554 193.681  0.00  0.00    -0.061 A 
ATOM     85  C   UNL     1     143.249 174.806 192.498  0.00  0.00    -0.052 A 
ATOM     86  C   UNL     1     142.154 173.952 192.248  0.00  0.00    +0.004 A 
ATOM     87 BR   UNL     1     139.583 171.204 190.571  0.00  0.00    -0.031 Br
ATOM     88  H   UNL     1     139.384 172.696 193.257  0.00  0.00    +0.166 HD
ATOM     89  H   UNL     1     140.384 174.541 195.143  0.00  0.00    +0.064 HD
ATOM     90  H   UNL     1     142.322 176.047 195.532  0.00  0.00    +0.062 HD
ATOM     91  H   UNL     1     144.138 176.212 193.868  0.00  0.00    +0.062 HD
ATOM     92  H   UNL     1     144.064 174.883 191.786  0.00  0.00    +0.062 HD
ENDBRANCH  75  78
ENDBRANCH  12  75
TORSDOF 10
ENDMDL
MODEL 8
REMARK VINA RESULT:      -6.8      6.478     11.013
REMARK  Name = Jasplakinolide_conf2
REMARK  10 active torsions:
REMARK  status: ('A' for Active; 'I' for Inactive)
REMARK    1  A    between atoms: C_1  and  C_2
REMARK    2  A    between atoms: C_4  and  C_47
REMARK    3  A    between atoms: C_9  and  C_40
REMARK    4  A    between atoms: C_13  and  C_29
REMARK    5  A    between atoms: N_14  and  C_28
REMARK    6  A    between atoms: C_17  and  C_27
REMARK    7  A    between atoms: C_21  and  C_26
REMARK    8  A    between atoms: C_23  and  C_25
REMARK    9  A    between atoms: C_29  and  C_30
REMARK   10  A    between atoms: C_43  and  O_46
REMARK                            x       y       z     vdW  Elec       q    Type
REMARK                         _______ _______ _______ _____ _____    ______ ____
ROOT
ATOM      1  C   UNL     1     140.749 174.467 183.465  0.00  0.00    -0.022 C 
ATOM      2  C   UNL     1     140.583 174.666 184.983  0.00  0.00    -0.010 C 
ATOM      3  C   UNL     1     141.067 173.483 185.844  0.00  0.00    +0.101 C 
ATOM      4  O   UNL     1     141.089 173.961 187.208  0.00  0.00    -0.462 OA
ATOM      5  C   UNL     1     141.910 173.289 188.064  0.00  0.00    +0.309 C 
ATOM      6  O   UNL     1     142.549 172.287 187.777  0.00  0.00    -0.251 OA
ATOM      7  C   UNL     1     141.968 174.025 189.381  0.00  0.00    +0.067 C 
ATOM      8  C   UNL     1     142.476 173.135 190.520  0.00  0.00    +0.058 C 
ATOM      9  N   UNL     1     143.858 172.736 190.326  0.00  0.00    -0.306 N 
ATOM     10  C   UNL     1     144.341 171.513 190.753  0.00  0.00    +0.234 C 
ATOM     11  O   UNL     1     143.693 170.724 191.434  0.00  0.00    -0.274 OA
ATOM     12  C   UNL     1     145.728 171.189 190.174  0.00  0.00    +0.106 C 
ATOM     13  N   UNL     1     145.547 170.867 188.733  0.00  0.00    -0.291 N 
ATOM     14  C   UNL     1     145.763 171.890 187.811  0.00  0.00    +0.236 C 
ATOM     15  O   UNL     1     146.028 173.044 188.180  0.00  0.00    -0.274 OA
ATOM     16  C   UNL     1     145.698 171.559 186.300  0.00  0.00    +0.097 C 
ATOM     17  N   UNL     1     145.732 172.820 185.556  0.00  0.00    -0.304 N 
ATOM     18  C   UNL     1     145.299 172.925 184.254  0.00  0.00    +0.217 C 
ATOM     19  O   UNL     1     144.813 171.981 183.638  0.00  0.00    -0.275 OA
ATOM     20  C   UNL     1     145.576 174.286 183.624  0.00  0.00    +0.036 C 
ATOM     21  C   UNL     1     144.581 174.607 182.495  0.00  0.00    -0.021 C 
ATOM     22  C   UNL     1     143.230 175.091 183.006  0.00  0.00    -0.076 C 
ATOM     23  C   UNL     1     142.184 174.239 183.044  0.00  0.00    -0.082 C 
ATOM     24  H   UNL     1     140.208 173.552 183.190  0.00  0.00    +0.034 HD
ATOM     25  H   UNL     1     139.525 174.862 185.216  0.00  0.00    +0.031 HD
ATOM     26  H   UNL     1     141.111 175.571 185.306  0.00  0.00    +0.031 HD
ATOM     27  H   UNL     1     142.081 173.197 185.546  0.00  0.00    +0.073 HD
ATOM     28  H   UNL     1     140.955 174.376 189.620  0.00  0.00    +0.040 HD
ATOM     29  H   UNL     1     142.611 174.901 189.236  0.00  0.00    +0.040 HD
ATOM     30  H   UNL     1     141.870 172.218 190.517  0.00  0.00    +0.055 HD
ATOM     31  H   UNL     1     144.465 173.295 189.731  0.00  0.00    +0.149 HD
ATOM     32  H   UNL     1     146.317 172.110 190.255  0.00  0.00    +0.060 HD
ATOM     33  H   UNL     1     144.753 171.062 186.064  0.00  0.00    +0.059 HD
ATOM     34  H   UNL     1     146.033 173.637 186.073  0.00  0.00    +0.149 HD
ATOM     35  H   UNL     1     145.528 175.056 184.403  0.00  0.00    +0.039 HD
ATOM     36  H   UNL     1     144.992 175.390 181.844  0.00  0.00    +0.032 HD
ATOM     37  H   UNL     1     144.446 173.734 181.840  0.00  0.00    +0.032 HD
ATOM     38  H   UNL     1     142.373 173.209 182.729  0.00  0.00    +0.057 HD
ENDROOT
BRANCH   8  39
ATOM     39  C   UNL     1     142.326 173.812 191.874  0.00  0.00    -0.026 A 
ATOM     40  C   UNL     1     141.239 173.541 192.722  0.00  0.00    -0.053 A 
ATOM     41  C   UNL     1     141.127 174.177 193.959  0.00  0.00    -0.020 A 
ATOM     42  C   UNL     1     142.089 175.098 194.351  0.00  0.00    +0.117 A 
ATOM     43  C   UNL     1     143.163 175.400 193.522  0.00  0.00    -0.020 A 
ATOM     44  C   UNL     1     143.277 174.761 192.285  0.00  0.00    -0.053 A 
ATOM     45  H   UNL     1     140.462 172.841 192.426  0.00  0.00    +0.062 HD
ATOM     46  H   UNL     1     140.287 173.960 194.613  0.00  0.00    +0.065 HD
ATOM     47  H   UNL     1     143.912 176.131 193.812  0.00  0.00    +0.065 HD
ATOM     48  H   UNL     1     144.108 175.020 191.631  0.00  0.00    +0.062 HD
BRANCH  42  49
ATOM     49  O   UNL     1     141.937 175.698 195.566  0.00  0.00    -0.507 OA
ATOM     50  H   UNL     1     141.760 176.643 195.420  0.00  0.00    +0.292 HD
ENDBRANCH  42  49
ENDBRANCH   8  39
BRANCH   1  51
ATOM     51  C   UNL     1     140.063 175.585 182.674  0.00  0.00    -0.059 C 
ATOM     52  H   UNL     1     140.248 176.574 183.097  0.00  0.00    +0.024 HD
ATOM     53  H   UNL     1     138.978 175.436 182.670  0.00  0.00    +0.024 HD
ATOM     54  H   UNL     1     140.399 175.591 181.630  0.00  0.00    +0.024 HD
ENDBRANCH   1  51
BRANCH  22  55
ATOM     55  C   UNL     1     143.197 176.544 183.399  0.00  0.00    -0.044 C 
ATOM     56  H   UNL     1     142.505 176.703 184.234  0.00  0.00    +0.027 HD
ATOM     57  H   UNL     1     144.193 176.865 183.720  0.00  0.00    +0.027 HD
ATOM     58  H   UNL     1     142.867 177.204 182.599  0.00  0.00    +0.027 HD
ENDBRANCH  22  55
BRANCH  20  59
ATOM     59  C   UNL     1     147.007 174.257 183.078  0.00  0.00    -0.054 C 
ATOM     60  H   UNL     1     147.721 174.030 183.874  0.00  0.00    +0.024 HD
ATOM     61  H   UNL     1     147.282 175.220 182.632  0.00  0.00    +0.024 HD
ATOM     62  H   UNL     1     147.119 173.494 182.300  0.00  0.00    +0.024 HD
ENDBRANCH  20  59
BRANCH  16  63
ATOM     63  C   UNL     1     146.895 170.697 185.905  0.00  0.00    -0.038 C 
ATOM     64  H   UNL     1     146.596 169.695 185.584  0.00  0.00    +0.025 HD
ATOM     65  H   UNL     1     147.583 170.574 186.750  0.00  0.00    +0.025 HD
ATOM     66  H   UNL     1     147.458 171.158 185.086  0.00  0.00    +0.025 HD
ENDBRANCH  16  63
BRANCH  13  67
ATOM     67  C   UNL     1     144.759 169.681 188.397  0.00  0.00    +0.004 C 
ATOM     68  H   UNL     1     145.040 169.256 187.433  0.00  0.00    +0.043 HD
ATOM     69  H   UNL     1     143.705 169.965 188.342  0.00  0.00    +0.043 HD
ATOM     70  H   UNL     1     144.881 168.906 189.150  0.00  0.00    +0.043 HD
ENDBRANCH  13  67
BRANCH   3  71
ATOM     71  C   UNL     1     140.127 172.282 185.748  0.00  0.00    -0.028 C 
ATOM     72  H   UNL     1     139.796 172.107 184.720  0.00  0.00    +0.027 HD
ATOM     73  H   UNL     1     139.245 172.425 186.382  0.00  0.00    +0.027 HD
ATOM     74  H   UNL     1     140.617 171.370 186.102  0.00  0.00    +0.027 HD
ENDBRANCH   3  71
BRANCH  12  75
ATOM     75  C   UNL     1     146.456 170.111 190.997  0.00  0.00    +0.003 C 
ATOM     76  H   UNL     1     146.593 169.185 190.425  0.00  0.00    +0.034 HD
ATOM     77  H   UNL     1     145.829 169.820 191.849  0.00  0.00    +0.034 HD
BRANCH  75  78
ATOM     78  C   UNL     1     147.783 170.592 191.524  0.00  0.00    -0.006 A 
ATOM     79  C   UNL     1     148.047 171.796 192.146  0.00  0.00    +0.087 A 
ATOM     80  N   UNL     1     149.377 171.871 192.434  0.00  0.00    -0.349 N 
ATOM     81  C   UNL     1     150.013 170.724 192.026  0.00  0.00    +0.048 A 
ATOM     82  C   UNL     1     151.365 170.364 192.111  0.00  0.00    -0.038 A 
ATOM     83  C   UNL     1     151.734 169.111 191.623  0.00  0.00    -0.060 A 
ATOM     84  C   UNL     1     150.789 168.250 191.074  0.00  0.00    -0.061 A 
ATOM     85  C   UNL     1     149.443 168.626 190.993  0.00  0.00    -0.052 A 
ATOM     86  C   UNL     1     149.039 169.892 191.468  0.00  0.00    +0.004 A 
ATOM     87 BR   UNL     1     146.809 173.182 192.554  0.00  0.00    -0.031 Br
ATOM     88  H   UNL     1     149.825 172.657 192.883  0.00  0.00    +0.166 HD
ATOM     89  H   UNL     1     152.105 171.031 192.544  0.00  0.00    +0.064 HD
ATOM     90  H   UNL     1     152.776 168.800 191.678  0.00  0.00    +0.062 HD
ATOM     91  H   UNL     1     151.096 167.274 190.704  0.00  0.00    +0.062 HD
ATOM     92  H   UNL     1     148.719 167.936 190.574  0.00  0.00    +0.062 HD
ENDBRANCH  75  78
ENDBRANCH  12  75
TORSDOF 10
ENDMDL
MODEL 9
REMARK VINA RESULT:      -6.6      3.832      7.373
REMARK  Name = Jasplakinolide_conf2
REMARK  10 active torsions:
REMARK  status: ('A' for Active; 'I' for Inactive)
REMARK    1  A    between atoms: C_1  and  C_2
REMARK    2  A    between atoms: C_4  and  C_47
REMARK    3  A    between atoms: C_9  and  C_40
REMARK    4  A    between atoms: C_13  and  C_29
REMARK    5  A    between atoms: N_14  and  C_28
REMARK    6  A    between atoms: C_17  and  C_27
REMARK    7  A    between atoms: C_21  and  C_26
REMARK    8  A    between atoms: C_23  and  C_25
REMARK    9  A    between atoms: C_29  and  C_30
REMARK   10  A    between atoms: C_43  and  O_46
REMARK                            x       y       z     vdW  Elec       q    Type
REMARK                         _______ _______ _______ _____ _____    ______ ____
ROOT
ATOM      1  C   UNL     1     141.383 169.272 190.066  0.00  0.00    -0.022 C 
ATOM      2  C   UNL     1     142.406 168.866 191.143  0.00  0.00    -0.010 C 
ATOM      3  C   UNL     1     143.182 167.571 190.839  0.00  0.00    +0.101 C 
ATOM      4  O   UNL     1     144.260 167.512 191.800  0.00  0.00    -0.462 OA
ATOM      5  C   UNL     1     145.333 166.748 191.449  0.00  0.00    +0.309 C 
ATOM      6  O   UNL     1     145.405 166.066 190.437  0.00  0.00    -0.251 OA
ATOM      7  C   UNL     1     146.439 166.949 192.458  0.00  0.00    +0.067 C 
ATOM      8  C   UNL     1     147.477 165.822 192.411  0.00  0.00    +0.058 C 
ATOM      9  N   UNL     1     148.202 165.801 191.154  0.00  0.00    -0.306 N 
ATOM     10  C   UNL     1     148.656 164.627 190.583  0.00  0.00    +0.234 C 
ATOM     11  O   UNL     1     148.602 163.532 191.136  0.00  0.00    -0.274 OA
ATOM     12  C   UNL     1     149.117 164.815 189.127  0.00  0.00    +0.106 C 
ATOM     13  N   UNL     1     147.899 165.012 188.296  0.00  0.00    -0.291 N 
ATOM     14  C   UNL     1     147.524 166.323 188.001  0.00  0.00    +0.236 C 
ATOM     15  O   UNL     1     148.140 167.291 188.473  0.00  0.00    -0.274 OA
ATOM     16  C   UNL     1     146.333 166.560 187.043  0.00  0.00    +0.097 C 
ATOM     17  N   UNL     1     146.000 167.987 187.074  0.00  0.00    -0.304 N 
ATOM     18  C   UNL     1     144.778 168.472 186.669  0.00  0.00    +0.217 C 
ATOM     19  O   UNL     1     143.865 167.743 186.293  0.00  0.00    -0.275 OA
ATOM     20  C   UNL     1     144.707 169.996 186.632  0.00  0.00    +0.036 C 
ATOM     21  C   UNL     1     143.266 170.505 186.813  0.00  0.00    -0.021 C 
ATOM     22  C   UNL     1     142.803 170.494 188.265  0.00  0.00    -0.076 C 
ATOM     23  C   UNL     1     142.005 169.500 188.706  0.00  0.00    -0.082 C 
ATOM     24  H   UNL     1     140.686 168.434 189.939  0.00  0.00    +0.034 HD
ATOM     25  H   UNL     1     141.896 168.752 192.112  0.00  0.00    +0.031 HD
ATOM     26  H   UNL     1     143.129 169.675 191.304  0.00  0.00    +0.031 HD
ATOM     27  H   UNL     1     143.602 167.617 189.828  0.00  0.00    +0.073 HD
ATOM     28  H   UNL     1     145.986 166.982 193.458  0.00  0.00    +0.040 HD
ATOM     29  H   UNL     1     146.893 167.925 192.253  0.00  0.00    +0.040 HD
ATOM     30  H   UNL     1     146.933 164.870 192.488  0.00  0.00    +0.055 HD
ATOM     31  H   UNL     1     148.259 166.646 190.590  0.00  0.00    +0.149 HD
ATOM     32  H   UNL     1     149.706 165.740 189.110  0.00  0.00    +0.060 HD
ATOM     33  H   UNL     1     145.454 166.010 187.390  0.00  0.00    +0.059 HD
ATOM     34  H   UNL     1     146.699 168.600 187.476  0.00  0.00    +0.149 HD
ATOM     35  H   UNL     1     145.355 170.402 187.417  0.00  0.00    +0.039 HD
ATOM     36  H   UNL     1     143.183 171.536 186.443  0.00  0.00    +0.032 HD
ATOM     37  H   UNL     1     142.570 169.923 186.190  0.00  0.00    +0.032 HD
ATOM     38  H   UNL     1     141.750 168.714 187.988  0.00  0.00    +0.057 HD
ENDROOT
BRANCH   8  39
ATOM     39  C   UNL     1     148.461 165.914 193.566  0.00  0.00    -0.026 A 
ATOM     40  C   UNL     1     149.850 165.839 193.365  0.00  0.00    -0.053 A 
ATOM     41  C   UNL     1     150.730 165.928 194.445  0.00  0.00    -0.020 A 
ATOM     42  C   UNL     1     150.231 166.075 195.732  0.00  0.00    +0.117 A 
ATOM     43  C   UNL     1     148.861 166.131 195.961  0.00  0.00    -0.020 A 
ATOM     44  C   UNL     1     147.980 166.046 194.881  0.00  0.00    -0.053 A 
ATOM     45  H   UNL     1     150.262 165.701 192.369  0.00  0.00    +0.062 HD
ATOM     46  H   UNL     1     151.803 165.874 194.283  0.00  0.00    +0.065 HD
ATOM     47  H   UNL     1     148.460 166.230 196.965  0.00  0.00    +0.065 HD
ATOM     48  H   UNL     1     146.908 166.066 195.070  0.00  0.00    +0.062 HD
BRANCH  42  49
ATOM     49  O   UNL     1     151.128 166.152 196.756  0.00  0.00    -0.507 OA
ATOM     50  H   UNL     1     151.909 165.625 196.519  0.00  0.00    +0.292 HD
ENDBRANCH  42  49
ENDBRANCH   8  39
BRANCH   1  51
ATOM     51  C   UNL     1     140.513 170.444 190.530  0.00  0.00    -0.059 C 
ATOM     52  H   UNL     1     139.763 170.729 189.791  0.00  0.00    +0.024 HD
ATOM     53  H   UNL     1     141.134 171.327 190.713  0.00  0.00    +0.024 HD
ATOM     54  H   UNL     1     139.997 170.203 191.467  0.00  0.00    +0.024 HD
ENDBRANCH   1  51
BRANCH  22  55
ATOM     55  C   UNL     1     143.282 171.666 189.079  0.00  0.00    -0.044 C 
ATOM     56  H   UNL     1     142.869 172.603 188.689  0.00  0.00    +0.027 HD
ATOM     57  H   UNL     1     142.952 171.558 190.117  0.00  0.00    +0.027 HD
ATOM     58  H   UNL     1     144.365 171.785 189.076  0.00  0.00    +0.027 HD
ENDBRANCH  22  55
BRANCH  20  59
ATOM     59  C   UNL     1     145.263 170.449 185.279  0.00  0.00    -0.054 C 
ATOM     60  H   UNL     1     146.349 170.568 185.326  0.00  0.00    +0.024 HD
ATOM     61  H   UNL     1     144.825 171.405 184.969  0.00  0.00    +0.024 HD
ATOM     62  H   UNL     1     145.041 169.719 184.494  0.00  0.00    +0.024 HD
ENDBRANCH  20  59
BRANCH  16  63
ATOM     63  C   UNL     1     146.720 166.155 185.622  0.00  0.00    -0.038 C 
ATOM     64  H   UNL     1     146.644 165.075 185.464  0.00  0.00    +0.025 HD
ATOM     65  H   UNL     1     147.756 166.441 185.404  0.00  0.00    +0.025 HD
ATOM     66  H   UNL     1     146.079 166.649 184.883  0.00  0.00    +0.025 HD
ENDBRANCH  16  63
BRANCH  13  67
ATOM     67  C   UNL     1     146.952 163.902 188.205  0.00  0.00    +0.004 C 
ATOM     68  H   UNL     1     147.448 162.931 188.219  0.00  0.00    +0.043 HD
ATOM     69  H   UNL     1     146.404 163.984 187.263  0.00  0.00    +0.043 HD
ATOM     70  H   UNL     1     146.245 163.925 189.031  0.00  0.00    +0.043 HD
ENDBRANCH  13  67
BRANCH   3  71
ATOM     71  C   UNL     1     142.305 166.328 190.991  0.00  0.00    -0.028 C 
ATOM     72  H   UNL     1     141.441 166.356 190.320  0.00  0.00    +0.027 HD
ATOM     73  H   UNL     1     141.947 166.226 192.022  0.00  0.00    +0.027 HD
ATOM     74  H   UNL     1     142.871 165.418 190.770  0.00  0.00    +0.027 HD
ENDBRANCH   3  71
BRANCH  12  75
ATOM     75  C   UNL     1     150.044 163.676 188.666  0.00  0.00    +0.003 C 
ATOM     76  H   UNL     1     149.895 163.434 187.608  0.00  0.00    +0.034 HD
ATOM     77  H   UNL     1     149.781 162.755 189.202  0.00  0.00    +0.034 HD
BRANCH  75  78
ATOM     78  C   UNL     1     151.497 163.981 188.927  0.00  0.00    -0.006 A 
ATOM     79  C   UNL     1     152.371 163.264 189.720  0.00  0.00    +0.087 A 
ATOM     80  N   UNL     1     153.583 163.889 189.730  0.00  0.00    -0.349 N 
ATOM     81  C   UNL     1     153.541 165.012 188.940  0.00  0.00    +0.048 A 
ATOM     82  C   UNL     1     154.540 165.955 188.661  0.00  0.00    -0.038 A 
ATOM     83  C   UNL     1     154.219 167.003 187.799  0.00  0.00    -0.060 A 
ATOM     84  C   UNL     1     152.950 167.104 187.236  0.00  0.00    -0.061 A 
ATOM     85  C   UNL     1     151.963 166.155 187.528  0.00  0.00    -0.052 A 
ATOM     86  C   UNL     1     152.252 165.088 188.406  0.00  0.00    +0.004 A 
ATOM     87 BR   UNL     1     152.009 161.666 190.686  0.00  0.00    -0.031 Br
ATOM     88  H   UNL     1     154.390 163.568 190.245  0.00  0.00    +0.166 HD
ATOM     89  H   UNL     1     155.532 165.877 189.094  0.00  0.00    +0.064 HD
ATOM     90  H   UNL     1     154.973 167.749 187.559  0.00  0.00    +0.062 HD
ATOM     91  H   UNL     1     152.722 167.925 186.561  0.00  0.00    +0.062 HD
ATOM     92  H   UNL     1     150.984 166.243 187.068  0.00  0.00    +0.062 HD
ENDBRANCH  75  78
ENDBRANCH  12  75
TORSDOF 10
ENDMDL
MODEL 10
REMARK VINA RESULT:      -6.6      2.982      5.855
REMARK  Name = Jasplakinolide_conf2
REMARK  10 active torsions:
REMARK  status: ('A' for Active; 'I' for Inactive)
REMARK    1  A    between atoms: C_1  and  C_2
REMARK    2  A    between atoms: C_4  and  C_47
REMARK    3  A    between atoms: C_9  and  C_40
REMARK    4  A    between atoms: C_13  and  C_29
REMARK    5  A    between atoms: N_14  and  C_28
REMARK    6  A    between atoms: C_17  and  C_27
REMARK    7  A    between atoms: C_21  and  C_26
REMARK    8  A    between atoms: C_23  and  C_25
REMARK    9  A    between atoms: C_29  and  C_30
REMARK   10  A    between atoms: C_43  and  O_46
REMARK                            x       y       z     vdW  Elec       q    Type
REMARK                         _______ _______ _______ _____ _____    ______ ____
ROOT
ATOM      1  C   UNL     1     150.469 159.797 188.316  0.00  0.00    -0.022 C 
ATOM      2  C   UNL     1     149.101 160.503 188.334  0.00  0.00    -0.010 C 
ATOM      3  C   UNL     1     148.885 161.459 189.523  0.00  0.00    +0.101 C 
ATOM      4  O   UNL     1     147.692 162.217 189.219  0.00  0.00    -0.462 OA
ATOM      5  C   UNL     1     147.567 163.416 189.854  0.00  0.00    +0.309 C 
ATOM      6  O   UNL     1     148.339 163.842 190.701  0.00  0.00    -0.251 OA
ATOM      7  C   UNL     1     146.383 164.160 189.286  0.00  0.00    +0.067 C 
ATOM      8  C   UNL     1     145.897 165.275 190.219  0.00  0.00    +0.058 C 
ATOM      9  N   UNL     1     146.884 166.329 190.370  0.00  0.00    -0.306 N 
ATOM     10  C   UNL     1     147.029 167.042 191.545  0.00  0.00    +0.234 C 
ATOM     11  O   UNL     1     146.269 166.940 192.504  0.00  0.00    -0.274 OA
ATOM     12  C   UNL     1     148.319 167.879 191.575  0.00  0.00    +0.106 C 
ATOM     13  N   UNL     1     149.459 166.937 191.742  0.00  0.00    -0.291 N 
ATOM     14  C   UNL     1     150.137 166.534 190.592  0.00  0.00    +0.236 C 
ATOM     15  O   UNL     1     149.760 166.889 189.464  0.00  0.00    -0.274 OA
ATOM     16  C   UNL     1     151.398 165.649 190.741  0.00  0.00    +0.097 C 
ATOM     17  N   UNL     1     151.786 165.181 189.408  0.00  0.00    -0.304 N 
ATOM     18  C   UNL     1     152.594 164.085 189.213  0.00  0.00    +0.217 C 
ATOM     19  O   UNL     1     153.012 163.395 190.139  0.00  0.00    -0.275 OA
ATOM     20  C   UNL     1     153.002 163.876 187.758  0.00  0.00    +0.036 C 
ATOM     21  C   UNL     1     153.322 162.400 187.461  0.00  0.00    -0.021 C 
ATOM     22  C   UNL     1     152.077 161.545 187.260  0.00  0.00    -0.076 C 
ATOM     23  C   UNL     1     151.638 160.757 188.264  0.00  0.00    -0.082 C 
ATOM     24  H   UNL     1     150.572 159.253 189.264  0.00  0.00    +0.034 HD
ATOM     25  H   UNL     1     148.298 159.751 188.336  0.00  0.00    +0.031 HD
ATOM     26  H   UNL     1     148.953 161.066 187.404  0.00  0.00    +0.031 HD
ATOM     27  H   UNL     1     149.735 162.145 189.609  0.00  0.00    +0.073 HD
ATOM     28  H   UNL     1     145.569 163.439 189.130  0.00  0.00    +0.040 HD
ATOM     29  H   UNL     1     146.685 164.555 188.309  0.00  0.00    +0.040 HD
ATOM     30  H   UNL     1     145.743 164.830 191.212  0.00  0.00    +0.055 HD
ATOM     31  H   UNL     1     147.595 166.460 189.653  0.00  0.00    +0.149 HD
ATOM     32  H   UNL     1     148.399 168.353 190.590  0.00  0.00    +0.060 HD
ATOM     33  H   UNL     1     151.171 164.768 191.346  0.00  0.00    +0.059 HD
ATOM     34  H   UNL     1     151.372 165.671 188.624  0.00  0.00    +0.149 HD
ATOM     35  H   UNL     1     152.194 164.228 187.108  0.00  0.00    +0.039 HD
ATOM     36  H   UNL     1     153.930 162.324 186.549  0.00  0.00    +0.032 HD
ATOM     37  H   UNL     1     153.949 161.974 188.257  0.00  0.00    +0.032 HD
ATOM     38  H   UNL     1     152.193 160.797 189.206  0.00  0.00    +0.057 HD
ENDROOT
BRANCH   8  39
ATOM     39  C   UNL     1     144.581 165.873 189.745  0.00  0.00    -0.026 A 
ATOM     40  C   UNL     1     144.397 166.305 188.420  0.00  0.00    -0.053 A 
ATOM     41  C   UNL     1     143.178 166.849 188.013  0.00  0.00    -0.020 A 
ATOM     42  C   UNL     1     142.142 166.981 188.927  0.00  0.00    +0.117 A 
ATOM     43  C   UNL     1     142.304 166.582 190.249  0.00  0.00    -0.020 A 
ATOM     44  C   UNL     1     143.523 166.033 190.655  0.00  0.00    -0.053 A 
ATOM     45  H   UNL     1     145.202 166.232 187.694  0.00  0.00    +0.062 HD
ATOM     46  H   UNL     1     143.041 167.177 186.987  0.00  0.00    +0.065 HD
ATOM     47  H   UNL     1     141.505 166.695 190.975  0.00  0.00    +0.065 HD
ATOM     48  H   UNL     1     143.651 165.745 191.698  0.00  0.00    +0.062 HD
BRANCH  42  49
ATOM     49  O   UNL     1     140.971 167.523 188.486  0.00  0.00    -0.507 OA
ATOM     50  H   UNL     1     141.015 167.598 187.518  0.00  0.00    +0.292 HD
ENDBRANCH  42  49
ENDBRANCH   8  39
BRANCH   1  51
ATOM     51  C   UNL     1     150.531 158.718 187.231  0.00  0.00    -0.059 C 
ATOM     52  H   UNL     1     149.587 158.181 187.118  0.00  0.00    +0.024 HD
ATOM     53  H   UNL     1     151.295 157.975 187.479  0.00  0.00    +0.024 HD
ATOM     54  H   UNL     1     150.795 159.153 186.260  0.00  0.00    +0.024 HD
ENDBRANCH   1  51
BRANCH  22  55
ATOM     55  C   UNL     1     151.463 161.651 185.890  0.00  0.00    -0.044 C 
ATOM     56  H   UNL     1     151.564 162.670 185.499  0.00  0.00    +0.027 HD
ATOM     57  H   UNL     1     151.973 160.973 185.200  0.00  0.00    +0.027 HD
ATOM     58  H   UNL     1     150.399 161.420 185.872  0.00  0.00    +0.027 HD
ENDBRANCH  22  55
BRANCH  20  59
ATOM     59  C   UNL     1     154.233 164.748 187.496  0.00  0.00    -0.054 C 
ATOM     60  H   UNL     1     154.007 165.526 186.761  0.00  0.00    +0.024 HD
ATOM     61  H   UNL     1     155.071 164.151 187.120  0.00  0.00    +0.024 HD
ATOM     62  H   UNL     1     154.571 165.243 188.413  0.00  0.00    +0.024 HD
ENDBRANCH  20  59
BRANCH  16  63
ATOM     63  C   UNL     1     152.536 166.466 191.350  0.00  0.00    -0.038 C 
ATOM     64  H   UNL     1     152.182 167.163 192.115  0.00  0.00    +0.025 HD
ATOM     65  H   UNL     1     153.044 167.061 190.581  0.00  0.00    +0.025 HD
ATOM     66  H   UNL     1     153.286 165.813 191.810  0.00  0.00    +0.025 HD
ENDBRANCH  16  63
BRANCH  13  67
ATOM     67  C   UNL     1     149.529 166.171 192.986  0.00  0.00    +0.004 C 
ATOM     68  H   UNL     1     149.549 165.095 192.810  0.00  0.00    +0.043 HD
ATOM     69  H   UNL     1     148.643 166.395 193.586  0.00  0.00    +0.043 HD
ATOM     70  H   UNL     1     150.420 166.431 193.553  0.00  0.00    +0.043 HD
ENDBRANCH  13  67
BRANCH   3  71
ATOM     71  C   UNL     1     148.679 160.703 190.836  0.00  0.00    -0.028 C 
ATOM     72  H   UNL     1     148.649 161.382 191.694  0.00  0.00    +0.027 HD
ATOM     73  H   UNL     1     149.477 159.970 190.994  0.00  0.00    +0.027 HD
ATOM     74  H   UNL     1     147.741 160.140 190.822  0.00  0.00    +0.027 HD
ENDBRANCH   3  71
BRANCH  12  75
ATOM     75  C   UNL     1     148.247 169.008 192.619  0.00  0.00    +0.003 C 
ATOM     76  H   UNL     1     148.950 168.844 193.444  0.00  0.00    +0.034 HD
ATOM     77  H   UNL     1     147.257 169.002 193.092  0.00  0.00    +0.034 HD
BRANCH  75  78
ATOM     78  C   UNL     1     148.476 170.366 192.008  0.00  0.00    -0.006 A 
ATOM     79  C   UNL     1     149.689 170.977 191.760  0.00  0.00    +0.087 A 
ATOM     80  N   UNL     1     149.470 172.218 191.240  0.00  0.00    -0.349 N 
ATOM     81  C   UNL     1     148.121 172.447 191.120  0.00  0.00    +0.048 A 
ATOM     82  C   UNL     1     147.437 173.574 190.645  0.00  0.00    -0.038 A 
ATOM     83  C   UNL     1     146.043 173.524 190.621  0.00  0.00    -0.060 A 
ATOM     84  C   UNL     1     145.360 172.392 191.052  0.00  0.00    -0.061 A 
ATOM     85  C   UNL     1     146.058 171.275 191.527  0.00  0.00    -0.052 A 
ATOM     86  C   UNL     1     147.468 171.297 191.575  0.00  0.00    +0.004 A 
ATOM     87 BR   UNL     1     151.426 170.269 192.082  0.00  0.00    -0.031 Br
ATOM     88  H   UNL     1     150.196 172.869 190.982  0.00  0.00    +0.166 HD
ATOM     89  H   UNL     1     147.966 174.458 190.302  0.00  0.00    +0.064 HD
ATOM     90  H   UNL     1     145.483 174.382 190.254  0.00  0.00    +0.062 HD
ATOM     91  H   UNL     1     144.273 172.371 191.020  0.00  0.00    +0.062 HD
ATOM     92  H   UNL     1     145.508 170.397 191.846  0.00  0.00    +0.062 HD
ENDBRANCH  75  78
ENDBRANCH  12  75
TORSDOF 10
ENDMDL
