MODEL 1
REMARK VINA RESULT:      -6.7      0.000      0.000
REMARK  Name = Latrunculin B_conf1
REMARK  4 active torsions:
REMARK  status: ('A' for Active; 'I' for Inactive)
REMARK    1  A    between atoms: C_1  and  C_2
REMARK    2  A    between atoms: C_9  and  C_11
REMARK    3  A    between atoms: C_9  and  O_17
REMARK    4  A    between atoms: C_22  and  C_27
REMARK                            x       y       z     vdW  Elec       q    Type
REMARK                         _______ _______ _______ _____ _____    ______ ____
ROOT
ATOM      1  C   UNL     1     145.516 168.686 190.319  0.00  0.00    -0.026 C 
ATOM      2  C   UNL     1     146.215 167.423 189.770  0.00  0.00    -0.045 C 
ATOM      3  C   UNL     1     147.739 167.542 189.596  0.00  0.00    -0.026 C 
ATOM      4  C   UNL     1     148.486 167.822 190.904  0.00  0.00    +0.065 C 
ATOM      5  C   UNL     1     149.983 167.982 190.661  0.00  0.00    +0.011 C 
ATOM      6  C   UNL     1     150.688 168.268 191.988  0.00  0.00    +0.111 C 
ATOM      7  C   UNL     1     150.339 167.175 193.005  0.00  0.00    +0.040 C 
ATOM      8  C   UNL     1     148.826 166.894 193.087  0.00  0.00    +0.190 C 
ATOM      9  O   UNL     1     148.261 166.727 191.793  0.00  0.00    -0.344 OA
ATOM     10  O   UNL     1     150.273 169.538 192.525  0.00  0.00    -0.458 OA
ATOM     11  C   UNL     1     150.777 170.641 191.930  0.00  0.00    +0.332 C 
ATOM     12  O   UNL     1     151.609 170.688 191.040  0.00  0.00    -0.246 OA
ATOM     13  C   UNL     1     150.140 171.820 192.538  0.00  0.00    +0.021 C 
ATOM     14  C   UNL     1     149.054 172.423 192.014  0.00  0.00    -0.066 C 
ATOM     15  C   UNL     1     148.362 171.980 190.737  0.00  0.00    -0.028 C 
ATOM     16  C   UNL     1     146.911 171.521 190.955  0.00  0.00    -0.031 C 
ATOM     17  C   UNL     1     146.288 171.052 189.668  0.00  0.00    -0.087 C 
ATOM     18  C   UNL     1     145.708 169.869 189.399  0.00  0.00    -0.085 C 
ATOM     19  H   UNL     1     145.906 168.899 191.318  0.00  0.00    +0.034 HD
ATOM     20  H   UNL     1     145.783 167.160 188.795  0.00  0.00    +0.027 HD
ATOM     21  H   UNL     1     145.998 166.576 190.435  0.00  0.00    +0.027 HD
ATOM     22  H   UNL     1     148.094 166.592 189.176  0.00  0.00    +0.029 HD
ATOM     23  H   UNL     1     147.968 168.320 188.858  0.00  0.00    +0.029 HD
ATOM     24  H   UNL     1     148.091 168.740 191.350  0.00  0.00    +0.060 HD
ATOM     25  H   UNL     1     150.157 168.788 189.942  0.00  0.00    +0.033 HD
ATOM     26  H   UNL     1     150.393 167.056 190.236  0.00  0.00    +0.033 HD
ATOM     27  H   UNL     1     151.777 168.282 191.848  0.00  0.00    +0.074 HD
ATOM     28  H   UNL     1     150.870 166.266 192.699  0.00  0.00    +0.035 HD
ATOM     29  H   UNL     1     150.712 167.471 193.994  0.00  0.00    +0.035 HD
ATOM     30  H   UNL     1     150.612 172.166 193.449  0.00  0.00    +0.069 HD
ATOM     31  H   UNL     1     148.919 171.173 190.247  0.00  0.00    +0.031 HD
ATOM     32  H   UNL     1     148.379 172.821 190.030  0.00  0.00    +0.031 HD
ATOM     33  H   UNL     1     146.307 172.358 191.327  0.00  0.00    +0.031 HD
ATOM     34  H   UNL     1     146.882 170.749 191.729  0.00  0.00    +0.031 HD
ATOM     35  H   UNL     1     146.306 171.786 188.860  0.00  0.00    +0.057 HD
ATOM     36  H   UNL     1     145.310 169.734 188.391  0.00  0.00    +0.057 HD
ENDROOT
BRANCH   8  37
ATOM     37  C   UNL     1     148.559 165.612 193.952  0.00  0.00    +0.087 C 
ATOM     38  C   UNL     1     147.497 165.803 195.035  0.00  0.00    +0.026 C 
ATOM     39  S   UNL     1     148.419 166.151 196.562  0.00  0.00    -0.066 S 
ATOM     40  C   UNL     1     149.890 165.433 195.958  0.00  0.00    +0.272 C 
ATOM     41  O   UNL     1     150.877 165.196 196.631  0.00  0.00    -0.263 OA
ATOM     42  N   UNL     1     149.760 165.145 194.633  0.00  0.00    -0.298 N 
ATOM     43  H   UNL     1     148.269 164.799 193.276  0.00  0.00    +0.056 HD
ATOM     44  H   UNL     1     146.771 166.592 194.822  0.00  0.00    +0.040 HD
ATOM     45  H   UNL     1     146.949 164.867 195.191  0.00  0.00    +0.040 HD
ATOM     46  H   UNL     1     150.517 164.665 194.164  0.00  0.00    +0.150 HD
ENDBRANCH   8  37
BRANCH   1  47
ATOM     47  C   UNL     1     144.016 168.416 190.486  0.00  0.00    -0.059 C 
ATOM     48  H   UNL     1     143.631 168.920 191.378  0.00  0.00    +0.024 HD
ATOM     49  H   UNL     1     143.453 168.788 189.623  0.00  0.00    +0.024 HD
ATOM     50  H   UNL     1     143.808 167.344 190.589  0.00  0.00    +0.024 HD
ENDBRANCH   1  47
BRANCH  14  51
ATOM     51  C   UNL     1     148.481 173.645 192.682  0.00  0.00    -0.043 C 
ATOM     52  H   UNL     1     147.715 174.102 192.048  0.00  0.00    +0.027 HD
ATOM     53  H   UNL     1     149.244 174.408 192.873  0.00  0.00    +0.027 HD
ATOM     54  H   UNL     1     148.030 173.384 193.645  0.00  0.00    +0.027 HD
ENDBRANCH  14  51
BRANCH   8  55
ATOM     55  O   UNL     1     148.179 167.987 193.736  0.00  0.00    -0.363 OA
ATOM     56  H   UNL     1     148.893 168.419 194.238  0.00  0.00    +0.213 HD
ENDBRANCH   8  55
TORSDOF 4
ENDMDL
MODEL 2
REMARK VINA RESULT:      -6.6      3.356      5.573
REMARK  Name = Latrunculin B_conf1
REMARK  4 active torsions:
REMARK  status: ('A' for Active; 'I' for Inactive)
REMARK    1  A    between atoms: C_1  and  C_2
REMARK    2  A    between atoms: C_9  and  C_11
REMARK    3  A    between atoms: C_9  and  O_17
REMARK    4  A    between atoms: C_22  and  C_27
REMARK                            x       y       z     vdW  Elec       q    Type
REMARK                         _______ _______ _______ _____ _____    ______ ____
ROOT
ATOM      1  C   UNL     1     147.997 171.370 192.005  0.00  0.00    -0.026 C 
ATOM      2  C   UNL     1     146.980 171.329 190.845  0.00  0.00    -0.045 C 
ATOM      3  C   UNL     1     147.260 170.267 189.767  0.00  0.00    -0.026 C 
ATOM      4  C   UNL     1     147.246 168.831 190.303  0.00  0.00    +0.065 C 
ATOM      5  C   UNL     1     147.580 167.828 189.204  0.00  0.00    +0.011 C 
ATOM      6  C   UNL     1     147.565 166.412 189.782  0.00  0.00    +0.111 C 
ATOM      7  C   UNL     1     146.221 166.150 190.471  0.00  0.00    +0.040 C 
ATOM      8  C   UNL     1     145.810 167.281 191.434  0.00  0.00    +0.190 C 
ATOM      9  O   UNL     1     145.943 168.557 190.819  0.00  0.00    -0.344 OA
ATOM     10  O   UNL     1     148.614 166.245 190.754  0.00  0.00    -0.458 OA
ATOM     11  C   UNL     1     149.870 166.117 190.273  0.00  0.00    +0.332 C 
ATOM     12  O   UNL     1     150.212 166.047 189.106  0.00  0.00    -0.246 OA
ATOM     13  C   UNL     1     150.796 166.083 191.417  0.00  0.00    +0.021 C 
ATOM     14  C   UNL     1     151.428 167.178 191.886  0.00  0.00    -0.066 C 
ATOM     15  C   UNL     1     151.281 168.569 191.297  0.00  0.00    -0.028 C 
ATOM     16  C   UNL     1     150.668 169.586 192.274  0.00  0.00    -0.031 C 
ATOM     17  C   UNL     1     150.504 170.935 191.626  0.00  0.00    -0.087 C 
ATOM     18  C   UNL     1     149.391 171.680 191.510  0.00  0.00    -0.085 C 
ATOM     19  H   UNL     1     147.973 170.412 192.531  0.00  0.00    +0.034 HD
ATOM     20  H   UNL     1     146.947 172.310 190.351  0.00  0.00    +0.027 HD
ATOM     21  H   UNL     1     145.975 171.164 191.254  0.00  0.00    +0.027 HD
ATOM     22  H   UNL     1     146.483 170.370 188.999  0.00  0.00    +0.029 HD
ATOM     23  H   UNL     1     148.218 170.476 189.279  0.00  0.00    +0.029 HD
ATOM     24  H   UNL     1     147.982 168.745 191.109  0.00  0.00    +0.060 HD
ATOM     25  H   UNL     1     148.558 168.066 188.772  0.00  0.00    +0.033 HD
ATOM     26  H   UNL     1     146.833 167.891 188.402  0.00  0.00    +0.033 HD
ATOM     27  H   UNL     1     147.699 165.671 188.984  0.00  0.00    +0.074 HD
ATOM     28  H   UNL     1     145.467 166.042 189.683  0.00  0.00    +0.035 HD
ATOM     29  H   UNL     1     146.276 165.202 191.021  0.00  0.00    +0.035 HD
ATOM     30  H   UNL     1     150.928 165.104 191.859  0.00  0.00    +0.069 HD
ATOM     31  H   UNL     1     150.675 168.548 190.383  0.00  0.00    +0.031 HD
ATOM     32  H   UNL     1     152.275 168.915 190.983  0.00  0.00    +0.031 HD
ATOM     33  H   UNL     1     151.330 169.716 193.140  0.00  0.00    +0.031 HD
ATOM     34  H   UNL     1     149.721 169.201 192.661  0.00  0.00    +0.031 HD
ATOM     35  H   UNL     1     151.422 171.355 191.212  0.00  0.00    +0.057 HD
ATOM     36  H   UNL     1     149.493 172.641 191.003  0.00  0.00    +0.057 HD
ENDROOT
BRANCH   8  37
ATOM     37  C   UNL     1     144.330 167.075 191.914  0.00  0.00    +0.087 C 
ATOM     38  C   UNL     1     143.491 166.197 190.985  0.00  0.00    +0.026 C 
ATOM     39  S   UNL     1     142.565 167.353 189.931  0.00  0.00    -0.066 S 
ATOM     40  C   UNL     1     142.741 168.678 191.053  0.00  0.00    +0.272 C 
ATOM     41  O   UNL     1     142.149 169.738 190.977  0.00  0.00    -0.263 OA
ATOM     42  N   UNL     1     143.611 168.337 192.045  0.00  0.00    -0.298 N 
ATOM     43  H   UNL     1     144.355 166.645 192.922  0.00  0.00    +0.056 HD
ATOM     44  H   UNL     1     144.071 165.492 190.385  0.00  0.00    +0.040 HD
ATOM     45  H   UNL     1     142.759 165.629 191.569  0.00  0.00    +0.040 HD
ATOM     46  H   UNL     1     143.762 168.990 192.803  0.00  0.00    +0.150 HD
ENDBRANCH   8  37
BRANCH   1  47
ATOM     47  C   UNL     1     147.576 172.435 193.024  0.00  0.00    -0.059 C 
ATOM     48  H   UNL     1     148.449 172.983 193.393  0.00  0.00    +0.024 HD
ATOM     49  H   UNL     1     146.894 173.164 192.571  0.00  0.00    +0.024 HD
ATOM     50  H   UNL     1     147.069 171.990 193.888  0.00  0.00    +0.024 HD
ENDBRANCH   1  47
BRANCH  14  51
ATOM     51  C   UNL     1     152.384 167.052 193.043  0.00  0.00    -0.043 C 
ATOM     52  H   UNL     1     153.419 167.112 192.690  0.00  0.00    +0.027 HD
ATOM     53  H   UNL     1     152.274 166.096 193.567  0.00  0.00    +0.027 HD
ATOM     54  H   UNL     1     152.215 167.849 193.773  0.00  0.00    +0.027 HD
ENDBRANCH  14  51
BRANCH   8  55
ATOM     55  O   UNL     1     146.641 167.238 192.592  0.00  0.00    -0.363 OA
ATOM     56  H   UNL     1     146.264 167.918 193.179  0.00  0.00    +0.213 HD
ENDBRANCH   8  55
TORSDOF 4
ENDMDL
MODEL 3
REMARK VINA RESULT:      -6.4      3.580      6.753
REMARK  Name = Latrunculin B_conf1
REMARK  4 active torsions:
REMARK  status: ('A' for Active; 'I' for Inactive)
REMARK    1  A    between atoms: C_1  and  C_2
REMARK    2  A    between atoms: C_9  and  C_11
REMARK    3  A    between atoms: C_9  and  O_17
REMARK    4  A    between atoms: C_22  and  C_27
REMARK                            x       y       z     vdW  Elec       q    Type
REMARK                         _______ _______ _______ _____ _____    ______ ____
ROOT
ATOM      1  C   UNL     1     148.521 167.419 191.890  0.00  0.00    -0.026 C 
ATOM      2  C   UNL     1     149.174 168.039 190.636  0.00  0.00    -0.045 C 
ATOM      3  C   UNL     1     148.211 168.328 189.472  0.00  0.00    -0.026 C 
ATOM      4  C   UNL     1     147.103 169.326 189.826  0.00  0.00    +0.065 C 
ATOM      5  C   UNL     1     146.152 169.533 188.652  0.00  0.00    +0.011 C 
ATOM      6  C   UNL     1     145.059 170.527 189.049  0.00  0.00    +0.111 C 
ATOM      7  C   UNL     1     145.700 171.822 189.562  0.00  0.00    +0.040 C 
ATOM      8  C   UNL     1     146.803 171.571 190.609  0.00  0.00    +0.190 C 
ATOM      9  O   UNL     1     147.714 170.571 190.170  0.00  0.00    -0.344 OA
ATOM     10  O   UNL     1     144.230 169.986 190.095  0.00  0.00    -0.458 OA
ATOM     11  C   UNL     1     143.341 169.036 189.732  0.00  0.00    +0.332 C 
ATOM     12  O   UNL     1     143.101 168.638 188.605  0.00  0.00    -0.246 OA
ATOM     13  C   UNL     1     142.688 168.530 190.951  0.00  0.00    +0.021 C 
ATOM     14  C   UNL     1     143.109 167.433 191.610  0.00  0.00    -0.066 C 
ATOM     15  C   UNL     1     144.288 166.576 191.183  0.00  0.00    -0.028 C 
ATOM     16  C   UNL     1     145.432 166.553 192.209  0.00  0.00    -0.031 C 
ATOM     17  C   UNL     1     146.590 165.727 191.716  0.00  0.00    -0.087 C 
ATOM     18  C   UNL     1     147.878 166.087 191.579  0.00  0.00    -0.085 C 
ATOM     19  H   UNL     1     147.787 168.123 192.290  0.00  0.00    +0.034 HD
ATOM     20  H   UNL     1     149.961 167.369 190.264  0.00  0.00    +0.027 HD
ATOM     21  H   UNL     1     149.681 168.971 190.919  0.00  0.00    +0.027 HD
ATOM     22  H   UNL     1     148.810 168.735 188.647  0.00  0.00    +0.029 HD
ATOM     23  H   UNL     1     147.771 167.391 189.112  0.00  0.00    +0.029 HD
ATOM     24  H   UNL     1     146.543 168.946 190.685  0.00  0.00    +0.060 HD
ATOM     25  H   UNL     1     145.719 168.573 188.353  0.00  0.00    +0.033 HD
ATOM     26  H   UNL     1     146.701 169.938 187.792  0.00  0.00    +0.033 HD
ATOM     27  H   UNL     1     144.427 170.768 188.185  0.00  0.00    +0.074 HD
ATOM     28  H   UNL     1     146.123 172.341 188.694  0.00  0.00    +0.035 HD
ATOM     29  H   UNL     1     144.922 172.463 189.996  0.00  0.00    +0.035 HD
ATOM     30  H   UNL     1     141.840 169.116 191.282  0.00  0.00    +0.069 HD
ATOM     31  H   UNL     1     144.686 166.908 190.217  0.00  0.00    +0.031 HD
ATOM     32  H   UNL     1     143.924 165.553 191.015  0.00  0.00    +0.031 HD
ATOM     33  H   UNL     1     145.083 166.103 193.146  0.00  0.00    +0.031 HD
ATOM     34  H   UNL     1     145.733 167.577 192.448  0.00  0.00    +0.031 HD
ATOM     35  H   UNL     1     146.336 164.700 191.451  0.00  0.00    +0.057 HD
ATOM     36  H   UNL     1     148.565 165.325 191.206  0.00  0.00    +0.057 HD
ENDROOT
BRANCH   8  37
ATOM     37  C   UNL     1     147.581 172.902 190.908  0.00  0.00    +0.087 C 
ATOM     38  C   UNL     1     149.061 172.698 191.230  0.00  0.00    +0.026 C 
ATOM     39  S   UNL     1     149.166 172.700 193.045  0.00  0.00    -0.066 S 
ATOM     40  C   UNL     1     147.652 173.546 193.234  0.00  0.00    +0.272 C 
ATOM     41  O   UNL     1     147.243 174.017 194.279  0.00  0.00    -0.263 OA
ATOM     42  N   UNL     1     147.012 173.632 192.034  0.00  0.00    -0.298 N 
ATOM     43  H   UNL     1     147.469 173.564 190.041  0.00  0.00    +0.056 HD
ATOM     44  H   UNL     1     149.494 171.787 190.810  0.00  0.00    +0.040 HD
ATOM     45  H   UNL     1     149.644 173.552 190.868  0.00  0.00    +0.040 HD
ATOM     46  H   UNL     1     146.147 174.154 191.982  0.00  0.00    +0.150 HD
ENDBRANCH   8  37
BRANCH   1  47
ATOM     47  C   UNL     1     149.578 167.226 192.983  0.00  0.00    -0.059 C 
ATOM     48  H   UNL     1     150.582 167.197 192.548  0.00  0.00    +0.024 HD
ATOM     49  H   UNL     1     149.552 168.052 193.703  0.00  0.00    +0.024 HD
ATOM     50  H   UNL     1     149.423 166.291 193.534  0.00  0.00    +0.024 HD
ENDBRANCH   1  47
BRANCH  14  51
ATOM     51  C   UNL     1     142.366 166.964 192.834  0.00  0.00    -0.043 C 
ATOM     52  H   UNL     1     143.070 166.600 193.590  0.00  0.00    +0.027 HD
ATOM     53  H   UNL     1     141.675 166.145 192.609  0.00  0.00    +0.027 HD
ATOM     54  H   UNL     1     141.779 167.781 193.266  0.00  0.00    +0.027 HD
ENDBRANCH  14  51
BRANCH   8  55
ATOM     55  O   UNL     1     146.204 171.146 191.831  0.00  0.00    -0.363 OA
ATOM     56  H   UNL     1     146.807 171.481 192.519  0.00  0.00    +0.213 HD
ENDBRANCH   8  55
TORSDOF 4
ENDMDL
MODEL 4
REMARK VINA RESULT:      -6.0      4.649      7.090
REMARK  Name = Latrunculin B_conf1
REMARK  4 active torsions:
REMARK  status: ('A' for Active; 'I' for Inactive)
REMARK    1  A    between atoms: C_1  and  C_2
REMARK    2  A    between atoms: C_9  and  C_11
REMARK    3  A    between atoms: C_9  and  O_17
REMARK    4  A    between atoms: C_22  and  C_27
REMARK                            x       y       z     vdW  Elec       q    Type
REMARK                         _______ _______ _______ _____ _____    ______ ____
ROOT
ATOM      1  C   UNL     1     146.655 168.828 187.290  0.00  0.00    -0.026 C 
ATOM      2  C   UNL     1     146.481 170.275 186.780  0.00  0.00    -0.045 C 
ATOM      3  C   UNL     1     145.192 170.979 187.240  0.00  0.00    -0.026 C 
ATOM      4  C   UNL     1     145.080 171.122 188.761  0.00  0.00    +0.065 C 
ATOM      5  C   UNL     1     143.762 171.779 189.158  0.00  0.00    +0.011 C 
ATOM      6  C   UNL     1     143.687 171.893 190.682  0.00  0.00    +0.111 C 
ATOM      7  C   UNL     1     144.926 172.627 191.206  0.00  0.00    +0.040 C 
ATOM      8  C   UNL     1     146.243 172.068 190.632  0.00  0.00    +0.190 C 
ATOM      9  O   UNL     1     146.170 171.925 189.218  0.00  0.00    -0.344 OA
ATOM     10  O   UNL     1     143.639 170.590 191.292  0.00  0.00    -0.458 OA
ATOM     11  C   UNL     1     142.466 169.925 191.207  0.00  0.00    +0.332 C 
ATOM     12  O   UNL     1     141.415 170.333 190.743  0.00  0.00    -0.246 OA
ATOM     13  C   UNL     1     142.660 168.581 191.775  0.00  0.00    +0.021 C 
ATOM     14  C   UNL     1     142.960 167.501 191.025  0.00  0.00    -0.066 C 
ATOM     15  C   UNL     1     143.123 167.526 189.515  0.00  0.00    -0.028 C 
ATOM     16  C   UNL     1     144.537 167.149 189.046  0.00  0.00    -0.031 C 
ATOM     17  C   UNL     1     144.654 167.231 187.547  0.00  0.00    -0.087 C 
ATOM     18  C   UNL     1     145.535 167.933 186.813  0.00  0.00    -0.085 C 
ATOM     19  H   UNL     1     146.707 168.842 188.382  0.00  0.00    +0.034 HD
ATOM     20  H   UNL     1     146.496 170.281 185.682  0.00  0.00    +0.027 HD
ATOM     21  H   UNL     1     147.345 170.873 187.097  0.00  0.00    +0.027 HD
ATOM     22  H   UNL     1     145.187 171.978 186.785  0.00  0.00    +0.029 HD
ATOM     23  H   UNL     1     144.318 170.447 186.847  0.00  0.00    +0.029 HD
ATOM     24  H   UNL     1     145.143 170.129 189.217  0.00  0.00    +0.060 HD
ATOM     25  H   UNL     1     142.924 171.192 188.767  0.00  0.00    +0.033 HD
ATOM     26  H   UNL     1     143.701 172.785 188.725  0.00  0.00    +0.033 HD
ATOM     27  H   UNL     1     142.794 172.457 190.980  0.00  0.00    +0.074 HD
ATOM     28  H   UNL     1     144.820 173.682 190.930  0.00  0.00    +0.035 HD
ATOM     29  H   UNL     1     144.948 172.563 192.302  0.00  0.00    +0.035 HD
ATOM     30  H   UNL     1     142.547 168.527 192.850  0.00  0.00    +0.069 HD
ATOM     31  H   UNL     1     142.866 168.510 189.108  0.00  0.00    +0.031 HD
ATOM     32  H   UNL     1     142.393 166.828 189.082  0.00  0.00    +0.031 HD
ATOM     33  H   UNL     1     144.763 166.115 189.336  0.00  0.00    +0.031 HD
ATOM     34  H   UNL     1     145.273 167.781 189.549  0.00  0.00    +0.031 HD
ATOM     35  H   UNL     1     143.930 166.626 187.000  0.00  0.00    +0.057 HD
ATOM     36  H   UNL     1     145.449 167.849 185.728  0.00  0.00    +0.057 HD
ENDROOT
BRANCH   8  37
ATOM     37  C   UNL     1     147.442 173.007 191.008  0.00  0.00    +0.087 C 
ATOM     38  C   UNL     1     148.739 172.262 191.325  0.00  0.00    +0.026 C 
ATOM     39  S   UNL     1     148.794 172.134 193.138  0.00  0.00    -0.066 S 
ATOM     40  C   UNL     1     147.686 173.462 193.367  0.00  0.00    +0.272 C 
ATOM     41  O   UNL     1     147.451 173.996 194.436  0.00  0.00    -0.263 OA
ATOM     42  N   UNL     1     147.150 173.836 192.171  0.00  0.00    -0.298 N 
ATOM     43  H   UNL     1     147.600 173.708 190.179  0.00  0.00    +0.056 HD
ATOM     44  H   UNL     1     148.822 171.279 190.856  0.00  0.00    +0.040 HD
ATOM     45  H   UNL     1     149.601 172.863 191.014  0.00  0.00    +0.040 HD
ATOM     46  H   UNL     1     146.536 174.639 192.145  0.00  0.00    +0.150 HD
ENDBRANCH   8  37
BRANCH   1  47
ATOM     47  C   UNL     1     147.994 168.265 186.799  0.00  0.00    -0.059 C 
ATOM     48  H   UNL     1     147.851 167.654 185.902  0.00  0.00    +0.024 HD
ATOM     49  H   UNL     1     148.689 169.073 186.544  0.00  0.00    +0.024 HD
ATOM     50  H   UNL     1     148.471 167.637 187.561  0.00  0.00    +0.024 HD
ENDBRANCH   1  47
BRANCH  14  51
ATOM     51  C   UNL     1     143.113 166.154 191.681  0.00  0.00    -0.043 C 
ATOM     52  H   UNL     1     142.233 165.925 192.290  0.00  0.00    +0.027 HD
ATOM     53  H   UNL     1     143.987 166.113 192.340  0.00  0.00    +0.027 HD
ATOM     54  H   UNL     1     143.233 165.369 190.928  0.00  0.00    +0.027 HD
ENDBRANCH  14  51
BRANCH   8  55
ATOM     55  O   UNL     1     146.504 170.791 191.212  0.00  0.00    -0.363 OA
ATOM     56  H   UNL     1     146.776 170.998 192.124  0.00  0.00    +0.213 HD
ENDBRANCH   8  55
TORSDOF 4
ENDMDL
MODEL 5
REMARK VINA RESULT:      -6.0      3.325      5.707
REMARK  Name = Latrunculin B_conf1
REMARK  4 active torsions:
REMARK  status: ('A' for Active; 'I' for Inactive)
REMARK    1  A    between atoms: C_1  and  C_2
REMARK    2  A    between atoms: C_9  and  C_11
REMARK    3  A    between atoms: C_9  and  O_17
REMARK    4  A    between atoms: C_22  and  C_27
REMARK                            x       y       z     vdW  Elec       q    Type
REMARK                         _______ _______ _______ _____ _____    ______ ____
ROOT
ATOM      1  C   UNL     1     148.460 168.227 186.771  0.00  0.00    -0.026 C 
ATOM      2  C   UNL     1     147.103 167.934 187.447  0.00  0.00    -0.045 C 
ATOM      3  C   UNL     1     147.166 166.984 188.655  0.00  0.00    -0.026 C 
ATOM      4  C   UNL     1     148.029 167.512 189.806  0.00  0.00    +0.065 C 
ATOM      5  C   UNL     1     148.095 166.507 190.952  0.00  0.00    +0.011 C 
ATOM      6  C   UNL     1     148.972 167.067 192.073  0.00  0.00    +0.111 C 
ATOM      7  C   UNL     1     148.456 168.449 192.491  0.00  0.00    +0.040 C 
ATOM      8  C   UNL     1     148.208 169.385 191.291  0.00  0.00    +0.190 C 
ATOM      9  O   UNL     1     147.455 168.733 190.275  0.00  0.00    -0.344 OA
ATOM     10  O   UNL     1     150.337 167.206 191.635  0.00  0.00    -0.458 OA
ATOM     11  C   UNL     1     151.059 166.068 191.535  0.00  0.00    +0.332 C 
ATOM     12  O   UNL     1     150.714 164.942 191.849  0.00  0.00    -0.246 OA
ATOM     13  C   UNL     1     152.370 166.408 190.960  0.00  0.00    +0.021 C 
ATOM     14  C   UNL     1     152.642 166.319 189.642  0.00  0.00    -0.066 C 
ATOM     15  C   UNL     1     151.649 165.851 188.593  0.00  0.00    -0.028 C 
ATOM     16  C   UNL     1     151.306 166.928 187.551  0.00  0.00    -0.031 C 
ATOM     17  C   UNL     1     150.287 166.426 186.563  0.00  0.00    -0.087 C 
ATOM     18  C   UNL     1     149.098 166.964 186.239  0.00  0.00    -0.085 C 
ATOM     19  H   UNL     1     149.116 168.721 187.494  0.00  0.00    +0.034 HD
ATOM     20  H   UNL     1     146.414 167.499 186.710  0.00  0.00    +0.027 HD
ATOM     21  H   UNL     1     146.648 168.882 187.762  0.00  0.00    +0.027 HD
ATOM     22  H   UNL     1     146.138 166.845 189.014  0.00  0.00    +0.029 HD
ATOM     23  H   UNL     1     147.526 166.000 188.336  0.00  0.00    +0.029 HD
ATOM     24  H   UNL     1     149.040 167.704 189.434  0.00  0.00    +0.060 HD
ATOM     25  H   UNL     1     148.489 165.554 190.585  0.00  0.00    +0.033 HD
ATOM     26  H   UNL     1     147.088 166.326 191.349  0.00  0.00    +0.033 HD
ATOM     27  H   UNL     1     148.946 166.405 192.948  0.00  0.00    +0.074 HD
ATOM     28  H   UNL     1     147.521 168.294 193.040  0.00  0.00    +0.035 HD
ATOM     29  H   UNL     1     149.179 168.913 193.174  0.00  0.00    +0.035 HD
ATOM     30  H   UNL     1     153.104 166.742 191.682  0.00  0.00    +0.069 HD
ATOM     31  H   UNL     1     150.720 165.501 189.059  0.00  0.00    +0.031 HD
ATOM     32  H   UNL     1     152.074 164.973 188.088  0.00  0.00    +0.031 HD
ATOM     33  H   UNL     1     152.206 167.199 186.985  0.00  0.00    +0.031 HD
ATOM     34  H   UNL     1     150.971 167.837 188.058  0.00  0.00    +0.031 HD
ATOM     35  H   UNL     1     150.571 165.511 186.042  0.00  0.00    +0.057 HD
ATOM     36  H   UNL     1     148.509 166.438 185.486  0.00  0.00    +0.057 HD
ENDROOT
BRANCH   8  37
ATOM     37  C   UNL     1     147.456 170.680 191.759  0.00  0.00    +0.087 C 
ATOM     38  C   UNL     1     147.444 171.802 190.721  0.00  0.00    +0.026 C 
ATOM     39  S   UNL     1     148.808 172.909 191.188  0.00  0.00    -0.066 S 
ATOM     40  C   UNL     1     148.843 172.338 192.836  0.00  0.00    +0.272 C 
ATOM     41  O   UNL     1     149.473 172.856 193.740  0.00  0.00    -0.263 OA
ATOM     42  N   UNL     1     148.036 171.248 192.970  0.00  0.00    -0.298 N 
ATOM     43  H   UNL     1     146.430 170.401 192.028  0.00  0.00    +0.056 HD
ATOM     44  H   UNL     1     147.546 171.462 189.687  0.00  0.00    +0.040 HD
ATOM     45  H   UNL     1     146.515 172.377 190.801  0.00  0.00    +0.040 HD
ATOM     46  H   UNL     1     147.910 170.848 193.891  0.00  0.00    +0.150 HD
ENDBRANCH   8  37
BRANCH   1  47
ATOM     47  C   UNL     1     148.262 169.217 185.618  0.00  0.00    -0.059 C 
ATOM     48  H   UNL     1     147.749 168.735 184.780  0.00  0.00    +0.024 HD
ATOM     49  H   UNL     1     147.652 170.070 185.935  0.00  0.00    +0.024 HD
ATOM     50  H   UNL     1     149.219 169.604 185.249  0.00  0.00    +0.024 HD
ENDBRANCH   1  47
BRANCH  14  51
ATOM     51  C   UNL     1     154.020 166.657 189.138  0.00  0.00    -0.043 C 
ATOM     52  H   UNL     1     154.742 166.638 189.961  0.00  0.00    +0.027 HD
ATOM     53  H   UNL     1     154.063 167.656 188.690  0.00  0.00    +0.027 HD
ATOM     54  H   UNL     1     154.339 165.941 188.375  0.00  0.00    +0.027 HD
ENDBRANCH  14  51
BRANCH   8  55
ATOM     55  O   UNL     1     149.461 169.794 190.747  0.00  0.00    -0.363 OA
ATOM     56  H   UNL     1     149.616 169.170 190.016  0.00  0.00    +0.213 HD
ENDBRANCH   8  55
TORSDOF 4
ENDMDL
MODEL 6
REMARK VINA RESULT:      -5.7      3.293      5.663
REMARK  Name = Latrunculin B_conf1
REMARK  4 active torsions:
REMARK  status: ('A' for Active; 'I' for Inactive)
REMARK    1  A    between atoms: C_1  and  C_2
REMARK    2  A    between atoms: C_9  and  C_11
REMARK    3  A    between atoms: C_9  and  O_17
REMARK    4  A    between atoms: C_22  and  C_27
REMARK                            x       y       z     vdW  Elec       q    Type
REMARK                         _______ _______ _______ _____ _____    ______ ____
ROOT
ATOM      1  C   UNL     1     146.538 165.618 190.418  0.00  0.00    -0.026 C 
ATOM      2  C   UNL     1     146.530 165.943 191.927  0.00  0.00    -0.045 C 
ATOM      3  C   UNL     1     147.917 166.166 192.555  0.00  0.00    -0.026 C 
ATOM      4  C   UNL     1     148.685 167.341 191.943  0.00  0.00    +0.065 C 
ATOM      5  C   UNL     1     150.069 167.482 192.568  0.00  0.00    +0.011 C 
ATOM      6  C   UNL     1     150.805 168.658 191.924  0.00  0.00    +0.111 C 
ATOM      7  C   UNL     1     149.947 169.924 192.030  0.00  0.00    +0.040 C 
ATOM      8  C   UNL     1     148.491 169.702 191.576  0.00  0.00    +0.190 C 
ATOM      9  O   UNL     1     147.936 168.536 192.172  0.00  0.00    -0.344 OA
ATOM     10  O   UNL     1     151.062 168.399 190.531  0.00  0.00    -0.458 OA
ATOM     11  C   UNL     1     152.054 167.527 190.250  0.00  0.00    +0.332 C 
ATOM     12  O   UNL     1     152.813 166.990 191.038  0.00  0.00    -0.246 OA
ATOM     13  C   UNL     1     152.073 167.308 188.794  0.00  0.00    +0.021 C 
ATOM     14  C   UNL     1     151.434 166.283 188.195  0.00  0.00    -0.066 C 
ATOM     15  C   UNL     1     150.633 165.226 188.932  0.00  0.00    -0.028 C 
ATOM     16  C   UNL     1     149.141 165.218 188.560  0.00  0.00    -0.031 C 
ATOM     17  C   UNL     1     148.386 164.183 189.350  0.00  0.00    -0.087 C 
ATOM     18  C   UNL     1     147.303 164.347 190.128  0.00  0.00    -0.085 C 
ATOM     19  H   UNL     1     146.967 166.465 189.877  0.00  0.00    +0.034 HD
ATOM     20  H   UNL     1     146.039 165.127 192.475  0.00  0.00    +0.027 HD
ATOM     21  H   UNL     1     145.914 166.835 192.099  0.00  0.00    +0.027 HD
ATOM     22  H   UNL     1     147.762 166.357 193.625  0.00  0.00    +0.029 HD
ATOM     23  H   UNL     1     148.511 165.248 192.480  0.00  0.00    +0.029 HD
ATOM     24  H   UNL     1     148.788 167.177 190.866  0.00  0.00    +0.060 HD
ATOM     25  H   UNL     1     150.629 166.550 192.438  0.00  0.00    +0.033 HD
ATOM     26  H   UNL     1     149.975 167.671 193.645  0.00  0.00    +0.033 HD
ATOM     27  H   UNL     1     151.760 168.838 192.433  0.00  0.00    +0.074 HD
ATOM     28  H   UNL     1     149.964 170.240 193.079  0.00  0.00    +0.035 HD
ATOM     29  H   UNL     1     150.402 170.720 191.427  0.00  0.00    +0.035 HD
ATOM     30  H   UNL     1     152.641 168.043 188.238  0.00  0.00    +0.069 HD
ATOM     31  H   UNL     1     150.725 165.347 190.018  0.00  0.00    +0.031 HD
ATOM     32  H   UNL     1     151.072 164.245 188.708  0.00  0.00    +0.031 HD
ATOM     33  H   UNL     1     149.023 164.970 187.497  0.00  0.00    +0.031 HD
ATOM     34  H   UNL     1     148.723 166.219 188.694  0.00  0.00    +0.031 HD
ATOM     35  H   UNL     1     148.776 163.168 189.259  0.00  0.00    +0.057 HD
ATOM     36  H   UNL     1     146.904 163.454 190.613  0.00  0.00    +0.057 HD
ENDROOT
BRANCH   8  37
ATOM     37  C   UNL     1     147.613 170.952 191.936  0.00  0.00    +0.087 C 
ATOM     38  C   UNL     1     147.488 171.972 190.805  0.00  0.00    +0.026 C 
ATOM     39  S   UNL     1     148.734 173.247 191.163  0.00  0.00    -0.066 S 
ATOM     40  C   UNL     1     148.826 172.827 192.854  0.00  0.00    +0.272 C 
ATOM     41  O   UNL     1     149.401 173.483 193.704  0.00  0.00    -0.263 OA
ATOM     42  N   UNL     1     148.133 171.678 193.089  0.00  0.00    -0.298 N 
ATOM     43  H   UNL     1     146.620 170.595 192.237  0.00  0.00    +0.056 HD
ATOM     44  H   UNL     1     147.624 171.556 189.804  0.00  0.00    +0.040 HD
ATOM     45  H   UNL     1     146.506 172.456 190.844  0.00  0.00    +0.040 HD
ATOM     46  H   UNL     1     148.048 171.348 194.042  0.00  0.00    +0.150 HD
ENDBRANCH   8  37
BRANCH   1  47
ATOM     47  C   UNL     1     145.098 165.466 189.914  0.00  0.00    -0.059 C 
ATOM     48  H   UNL     1     145.084 165.276 188.836  0.00  0.00    +0.024 HD
ATOM     49  H   UNL     1     144.597 164.625 190.407  0.00  0.00    +0.024 HD
ATOM     50  H   UNL     1     144.506 166.370 190.104  0.00  0.00    +0.024 HD
ENDBRANCH   1  47
BRANCH  14  51
ATOM     51  C   UNL     1     151.529 166.114 186.702  0.00  0.00    -0.043 C 
ATOM     52  H   UNL     1     152.080 166.950 186.258  0.00  0.00    +0.027 HD
ATOM     53  H   UNL     1     150.543 166.083 186.226  0.00  0.00    +0.027 HD
ATOM     54  H   UNL     1     152.044 165.182 186.450  0.00  0.00    +0.027 HD
ENDBRANCH  14  51
BRANCH   8  55
ATOM     55  O   UNL     1     148.458 169.556 190.157  0.00  0.00    -0.363 OA
ATOM     56  H   UNL     1     147.509 169.570 189.940  0.00  0.00    +0.213 HD
ENDBRANCH   8  55
TORSDOF 4
ENDMDL
MODEL 7
REMARK VINA RESULT:      -5.7      2.785      3.974
REMARK  Name = Latrunculin B_conf1
REMARK  4 active torsions:
REMARK  status: ('A' for Active; 'I' for Inactive)
REMARK    1  A    between atoms: C_1  and  C_2
REMARK    2  A    between atoms: C_9  and  C_11
REMARK    3  A    between atoms: C_9  and  O_17
REMARK    4  A    between atoms: C_22  and  C_27
REMARK                            x       y       z     vdW  Elec       q    Type
REMARK                         _______ _______ _______ _____ _____    ______ ____
ROOT
ATOM      1  C   UNL     1     143.403 167.508 192.555  0.00  0.00    -0.026 C 
ATOM      2  C   UNL     1     144.049 166.221 191.997  0.00  0.00    -0.045 C 
ATOM      3  C   UNL     1     144.768 166.383 190.646  0.00  0.00    -0.026 C 
ATOM      4  C   UNL     1     145.933 167.377 190.687  0.00  0.00    +0.065 C 
ATOM      5  C   UNL     1     146.573 167.534 189.312  0.00  0.00    +0.011 C 
ATOM      6  C   UNL     1     147.723 168.539 189.395  0.00  0.00    +0.111 C 
ATOM      7  C   UNL     1     148.707 168.108 190.489  0.00  0.00    +0.040 C 
ATOM      8  C   UNL     1     148.010 167.762 191.820  0.00  0.00    +0.190 C 
ATOM      9  O   UNL     1     146.906 166.889 191.613  0.00  0.00    -0.344 OA
ATOM     10  O   UNL     1     147.232 169.854 189.717  0.00  0.00    -0.458 OA
ATOM     11  C   UNL     1     146.613 170.529 188.724  0.00  0.00    +0.332 C 
ATOM     12  O   UNL     1     146.491 170.187 187.561  0.00  0.00    -0.246 OA
ATOM     13  C   UNL     1     146.082 171.782 189.285  0.00  0.00    +0.021 C 
ATOM     14  C   UNL     1     144.817 171.911 189.731  0.00  0.00    -0.066 C 
ATOM     15  C   UNL     1     143.781 170.801 189.702  0.00  0.00    -0.028 C 
ATOM     16  C   UNL     1     143.294 170.381 191.098  0.00  0.00    -0.031 C 
ATOM     17  C   UNL     1     142.304 169.251 191.014  0.00  0.00    -0.087 C 
ATOM     18  C   UNL     1     142.349 168.051 191.618  0.00  0.00    -0.085 C 
ATOM     19  H   UNL     1     144.187 168.249 192.732  0.00  0.00    +0.034 HD
ATOM     20  H   UNL     1     143.279 165.447 191.879  0.00  0.00    +0.027 HD
ATOM     21  H   UNL     1     144.761 165.828 192.734  0.00  0.00    +0.027 HD
ATOM     22  H   UNL     1     145.149 165.394 190.360  0.00  0.00    +0.029 HD
ATOM     23  H   UNL     1     144.048 166.680 189.875  0.00  0.00    +0.029 HD
ATOM     24  H   UNL     1     145.562 168.347 191.028  0.00  0.00    +0.060 HD
ATOM     25  H   UNL     1     145.819 167.860 188.588  0.00  0.00    +0.033 HD
ATOM     26  H   UNL     1     146.971 166.569 188.972  0.00  0.00    +0.033 HD
ATOM     27  H   UNL     1     148.261 168.586 188.440  0.00  0.00    +0.074 HD
ATOM     28  H   UNL     1     149.247 167.232 190.114  0.00  0.00    +0.035 HD
ATOM     29  H   UNL     1     149.437 168.911 190.655  0.00  0.00    +0.035 HD
ATOM     30  H   UNL     1     146.795 172.597 189.317  0.00  0.00    +0.069 HD
ATOM     31  H   UNL     1     144.166 169.917 189.181  0.00  0.00    +0.031 HD
ATOM     32  H   UNL     1     142.927 171.146 189.103  0.00  0.00    +0.031 HD
ATOM     33  H   UNL     1     142.789 171.225 191.586  0.00  0.00    +0.031 HD
ATOM     34  H   UNL     1     144.152 170.128 191.726  0.00  0.00    +0.031 HD
ATOM     35  H   UNL     1     141.435 169.453 190.386  0.00  0.00    +0.057 HD
ATOM     36  H   UNL     1     141.517 167.371 191.424  0.00  0.00    +0.057 HD
ENDROOT
BRANCH   8  37
ATOM     37  C   UNL     1     149.031 167.100 192.811  0.00  0.00    +0.087 C 
ATOM     38  C   UNL     1     150.455 167.003 192.265  0.00  0.00    +0.026 C 
ATOM     39  S   UNL     1     150.609 165.313 191.612  0.00  0.00    -0.066 S 
ATOM     40  C   UNL     1     149.286 164.711 192.576  0.00  0.00    +0.272 C 
ATOM     41  O   UNL     1     149.001 163.535 192.711  0.00  0.00    -0.263 OA
ATOM     42  N   UNL     1     148.640 165.746 193.183  0.00  0.00    -0.298 N 
ATOM     43  H   UNL     1     149.021 167.676 193.745  0.00  0.00    +0.056 HD
ATOM     44  H   UNL     1     150.698 167.746 191.501  0.00  0.00    +0.040 HD
ATOM     45  H   UNL     1     151.177 167.104 193.083  0.00  0.00    +0.040 HD
ATOM     46  H   UNL     1     147.887 165.538 193.826  0.00  0.00    +0.150 HD
ENDBRANCH   8  37
BRANCH   1  47
ATOM     47  C   UNL     1     142.765 167.217 193.918  0.00  0.00    -0.059 C 
ATOM     48  H   UNL     1     142.430 168.145 194.393  0.00  0.00    +0.024 HD
ATOM     49  H   UNL     1     141.891 166.565 193.810  0.00  0.00    +0.024 HD
ATOM     50  H   UNL     1     143.471 166.726 194.598  0.00  0.00    +0.024 HD
ENDBRANCH   1  47
BRANCH  14  51
ATOM     51  C   UNL     1     144.343 173.238 190.263  0.00  0.00    -0.043 C 
ATOM     52  H   UNL     1     144.163 173.174 191.341  0.00  0.00    +0.027 HD
ATOM     53  H   UNL     1     143.406 173.560 189.794  0.00  0.00    +0.027 HD
ATOM     54  H   UNL     1     145.088 174.018 190.078  0.00  0.00    +0.027 HD
ENDBRANCH  14  51
BRANCH   8  55
ATOM     55  O   UNL     1     147.542 168.962 192.432  0.00  0.00    -0.363 OA
ATOM     56  H   UNL     1     147.851 168.894 193.352  0.00  0.00    +0.213 HD
ENDBRANCH   8  55
TORSDOF 4
ENDMDL
MODEL 8
REMARK VINA RESULT:      -5.6      4.294      5.738
REMARK  Name = Latrunculin B_conf1
REMARK  4 active torsions:
REMARK  status: ('A' for Active; 'I' for Inactive)
REMARK    1  A    between atoms: C_1  and  C_2
REMARK    2  A    between atoms: C_9  and  C_11
REMARK    3  A    between atoms: C_9  and  O_17
REMARK    4  A    between atoms: C_22  and  C_27
REMARK                            x       y       z     vdW  Elec       q    Type
REMARK                         _______ _______ _______ _____ _____    ______ ____
ROOT
ATOM      1  C   UNL     1     146.327 165.433 190.249  0.00  0.00    -0.026 C 
ATOM      2  C   UNL     1     147.264 165.327 189.027  0.00  0.00    -0.045 C 
ATOM      3  C   UNL     1     148.734 165.695 189.296  0.00  0.00    -0.026 C 
ATOM      4  C   UNL     1     149.409 164.799 190.340  0.00  0.00    +0.065 C 
ATOM      5  C   UNL     1     150.845 165.242 190.602  0.00  0.00    +0.011 C 
ATOM      6  C   UNL     1     151.477 164.329 191.653  0.00  0.00    +0.111 C 
ATOM      7  C   UNL     1     151.352 162.866 191.210  0.00  0.00    +0.040 C 
ATOM      8  C   UNL     1     149.926 162.496 190.760  0.00  0.00    +0.190 C 
ATOM      9  O   UNL     1     149.406 163.457 189.848  0.00  0.00    -0.344 OA
ATOM     10  O   UNL     1     150.816 164.476 192.924  0.00  0.00    -0.458 OA
ATOM     11  C   UNL     1     151.091 165.599 193.623  0.00  0.00    +0.332 C 
ATOM     12  O   UNL     1     151.897 166.469 193.340  0.00  0.00    -0.246 OA
ATOM     13  C   UNL     1     150.231 165.618 194.817  0.00  0.00    +0.021 C 
ATOM     14  C   UNL     1     149.047 166.261 194.862  0.00  0.00    -0.066 C 
ATOM     15  C   UNL     1     148.458 167.053 193.708  0.00  0.00    -0.028 C 
ATOM     16  C   UNL     1     147.128 166.482 193.190  0.00  0.00    -0.031 C 
ATOM     17  C   UNL     1     146.612 167.277 192.020  0.00  0.00    -0.087 C 
ATOM     18  C   UNL     1     146.280 166.842 190.792  0.00  0.00    -0.085 C 
ATOM     19  H   UNL     1     146.666 164.730 191.015  0.00  0.00    +0.034 HD
ATOM     20  H   UNL     1     146.895 165.980 188.225  0.00  0.00    +0.027 HD
ATOM     21  H   UNL     1     147.220 164.305 188.628  0.00  0.00    +0.027 HD
ATOM     22  H   UNL     1     149.272 165.604 188.343  0.00  0.00    +0.029 HD
ATOM     23  H   UNL     1     148.805 166.745 189.601  0.00  0.00    +0.029 HD
ATOM     24  H   UNL     1     148.838 164.846 191.272  0.00  0.00    +0.060 HD
ATOM     25  H   UNL     1     150.855 166.286 190.931  0.00  0.00    +0.033 HD
ATOM     26  H   UNL     1     151.432 165.174 189.676  0.00  0.00    +0.033 HD
ATOM     27  H   UNL     1     152.541 164.567 191.778  0.00  0.00    +0.074 HD
ATOM     28  H   UNL     1     152.054 162.717 190.382  0.00  0.00    +0.035 HD
ATOM     29  H   UNL     1     151.658 162.211 192.037  0.00  0.00    +0.035 HD
ATOM     30  H   UNL     1     150.623 165.065 195.661  0.00  0.00    +0.069 HD
ATOM     31  H   UNL     1     149.165 167.115 192.873  0.00  0.00    +0.031 HD
ATOM     32  H   UNL     1     148.308 168.088 194.045  0.00  0.00    +0.031 HD
ATOM     33  H   UNL     1     146.368 166.531 193.980  0.00  0.00    +0.031 HD
ATOM     34  H   UNL     1     147.253 165.424 192.943  0.00  0.00    +0.031 HD
ATOM     35  H   UNL     1     146.484 168.343 192.216  0.00  0.00    +0.057 HD
ATOM     36  H   UNL     1     145.918 167.592 190.086  0.00  0.00    +0.057 HD
ENDROOT
BRANCH   8  37
ATOM     37  C   UNL     1     149.918 161.075 190.093  0.00  0.00    +0.087 C 
ATOM     38  C   UNL     1     149.456 161.074 188.636  0.00  0.00    +0.026 C 
ATOM     39  S   UNL     1     147.697 160.618 188.687  0.00  0.00    -0.066 S 
ATOM     40  C   UNL     1     147.829 159.876 190.261  0.00  0.00    +0.272 C 
ATOM     41  O   UNL     1     146.966 159.197 190.785  0.00  0.00    -0.263 OA
ATOM     42  N   UNL     1     149.052 160.139 190.800  0.00  0.00    -0.298 N 
ATOM     43  H   UNL     1     150.929 160.657 190.171  0.00  0.00    +0.056 HD
ATOM     44  H   UNL     1     149.603 162.022 188.114  0.00  0.00    +0.040 HD
ATOM     45  H   UNL     1     149.980 160.291 188.078  0.00  0.00    +0.040 HD
ATOM     46  H   UNL     1     149.293 159.716 191.687  0.00  0.00    +0.150 HD
ENDBRANCH   8  37
BRANCH   1  47
ATOM     47  C   UNL     1     144.912 164.997 189.855  0.00  0.00    -0.059 C 
ATOM     48  H   UNL     1     144.915 164.517 188.871  0.00  0.00    +0.024 HD
ATOM     49  H   UNL     1     144.509 164.276 190.575  0.00  0.00    +0.024 HD
ATOM     50  H   UNL     1     144.224 165.850 189.811  0.00  0.00    +0.024 HD
ENDBRANCH   1  47
BRANCH  14  51
ATOM     51  C   UNL     1     148.241 166.256 196.134  0.00  0.00    -0.043 C 
ATOM     52  H   UNL     1     147.677 167.189 196.231  0.00  0.00    +0.027 HD
ATOM     53  H   UNL     1     148.874 166.163 197.024  0.00  0.00    +0.027 HD
ATOM     54  H   UNL     1     147.537 165.418 196.143  0.00  0.00    +0.027 HD
ENDBRANCH  14  51
BRANCH   8  55
ATOM     55  O   UNL     1     149.073 162.434 191.901  0.00  0.00    -0.363 OA
ATOM     56  H   UNL     1     148.938 163.367 192.146  0.00  0.00    +0.213 HD
ENDBRANCH   8  55
TORSDOF 4
ENDMDL
MODEL 9
REMARK VINA RESULT:      -5.6      4.676      7.633
REMARK  Name = Latrunculin B_conf1
REMARK  4 active torsions:
REMARK  status: ('A' for Active; 'I' for Inactive)
REMARK    1  A    between atoms: C_1  and  C_2
REMARK    2  A    between atoms: C_9  and  C_11
REMARK    3  A    between atoms: C_9  and  O_17
REMARK    4  A    between atoms: C_22  and  C_27
REMARK                            x       y       z     vdW  Elec       q    Type
REMARK                         _______ _______ _______ _____ _____    ______ ____
ROOT
ATOM      1  C   UNL     1     147.811 172.687 192.590  0.00  0.00    -0.026 C 
ATOM      2  C   UNL     1     147.423 173.726 191.517  0.00  0.00    -0.045 C 
ATOM      3  C   UNL     1     147.224 173.160 190.100  0.00  0.00    -0.026 C 
ATOM      4  C   UNL     1     146.105 172.118 190.008  0.00  0.00    +0.065 C 
ATOM      5  C   UNL     1     145.989 171.556 188.595  0.00  0.00    +0.011 C 
ATOM      6  C   UNL     1     144.869 170.515 188.548  0.00  0.00    +0.111 C 
ATOM      7  C   UNL     1     143.569 171.132 189.077  0.00  0.00    +0.040 C 
ATOM      8  C   UNL     1     143.756 171.869 190.418  0.00  0.00    +0.190 C 
ATOM      9  O   UNL     1     144.875 172.746 190.373  0.00  0.00    -0.344 OA
ATOM     10  O   UNL     1     145.195 169.375 189.365  0.00  0.00    -0.458 OA
ATOM     11  C   UNL     1     146.115 168.519 188.868  0.00  0.00    +0.332 C 
ATOM     12  O   UNL     1     146.645 168.556 187.771  0.00  0.00    -0.246 OA
ATOM     13  C   UNL     1     146.395 167.503 189.896  0.00  0.00    +0.021 C 
ATOM     14  C   UNL     1     147.421 167.599 190.766  0.00  0.00    -0.066 C 
ATOM     15  C   UNL     1     148.416 168.745 190.793  0.00  0.00    -0.028 C 
ATOM     16  C   UNL     1     148.385 169.553 192.101  0.00  0.00    -0.031 C 
ATOM     17  C   UNL     1     149.358 170.700 192.057  0.00  0.00    -0.087 C 
ATOM     18  C   UNL     1     149.121 172.008 192.258  0.00  0.00    -0.085 C 
ATOM     19  H   UNL     1     147.004 171.955 192.682  0.00  0.00    +0.034 HD
ATOM     20  H   UNL     1     148.196 174.504 191.464  0.00  0.00    +0.027 HD
ATOM     21  H   UNL     1     146.502 174.236 191.829  0.00  0.00    +0.027 HD
ATOM     22  H   UNL     1     146.982 174.005 189.443  0.00  0.00    +0.029 HD
ATOM     23  H   UNL     1     148.165 172.733 189.735  0.00  0.00    +0.029 HD
ATOM     24  H   UNL     1     146.318 171.303 190.706  0.00  0.00    +0.060 HD
ATOM     25  H   UNL     1     146.945 171.117 188.292  0.00  0.00    +0.033 HD
ATOM     26  H   UNL     1     145.750 172.363 187.890  0.00  0.00    +0.033 HD
ATOM     27  H   UNL     1     144.702 170.178 187.518  0.00  0.00    +0.074 HD
ATOM     28  H   UNL     1     143.209 171.834 188.316  0.00  0.00    +0.035 HD
ATOM     29  H   UNL     1     142.816 170.342 189.195  0.00  0.00    +0.035 HD
ATOM     30  H   UNL     1     145.706 166.668 189.902  0.00  0.00    +0.069 HD
ATOM     31  H   UNL     1     148.252 169.429 189.952  0.00  0.00    +0.031 HD
ATOM     32  H   UNL     1     149.421 168.329 190.642  0.00  0.00    +0.031 HD
ATOM     33  H   UNL     1     148.673 168.910 192.943  0.00  0.00    +0.031 HD
ATOM     34  H   UNL     1     147.364 169.889 192.302  0.00  0.00    +0.031 HD
ATOM     35  H   UNL     1     150.389 170.414 191.846  0.00  0.00    +0.057 HD
ATOM     36  H   UNL     1     149.977 172.681 192.184  0.00  0.00    +0.057 HD
ENDROOT
BRANCH   8  37
ATOM     37  C   UNL     1     142.461 172.679 190.779  0.00  0.00    +0.087 C 
ATOM     38  C   UNL     1     142.206 173.882 189.871  0.00  0.00    +0.026 C 
ATOM     39  S   UNL     1     142.870 175.316 190.771  0.00  0.00    -0.066 S 
ATOM     40  C   UNL     1     142.793 174.510 192.317  0.00  0.00    +0.272 C 
ATOM     41  O   UNL     1     142.954 175.054 193.394  0.00  0.00    -0.263 OA
ATOM     42  N   UNL     1     142.494 173.193 192.143  0.00  0.00    -0.298 N 
ATOM     43  H   UNL     1     141.608 171.990 190.745  0.00  0.00    +0.056 HD
ATOM     44  H   UNL     1     142.651 173.799 188.876  0.00  0.00    +0.040 HD
ATOM     45  H   UNL     1     141.129 174.040 189.753  0.00  0.00    +0.040 HD
ATOM     46  H   UNL     1     142.355 172.614 192.962  0.00  0.00    +0.150 HD
ENDBRANCH   8  37
BRANCH   1  47
ATOM     47  C   UNL     1     147.932 173.373 193.956  0.00  0.00    -0.059 C 
ATOM     48  H   UNL     1     148.087 172.633 194.748  0.00  0.00    +0.024 HD
ATOM     49  H   UNL     1     148.784 174.062 193.974  0.00  0.00    +0.024 HD
ATOM     50  H   UNL     1     147.029 173.945 194.202  0.00  0.00    +0.024 HD
ENDBRANCH   1  47
BRANCH  14  51
ATOM     51  C   UNL     1     147.657 166.500 191.768  0.00  0.00    -0.043 C 
ATOM     52  H   UNL     1     147.807 166.922 192.767  0.00  0.00    +0.027 HD
ATOM     53  H   UNL     1     148.546 165.906 191.528  0.00  0.00    +0.027 HD
ATOM     54  H   UNL     1     146.803 165.816 191.800  0.00  0.00    +0.027 HD
ENDBRANCH  14  51
BRANCH   8  55
ATOM     55  O   UNL     1     143.961 170.912 191.456  0.00  0.00    -0.363 OA
ATOM     56  H   UNL     1     143.062 170.621 191.689  0.00  0.00    +0.213 HD
ENDBRANCH   8  55
TORSDOF 4
ENDMDL
MODEL 10
REMARK VINA RESULT:      -5.6      5.109      7.069
REMARK  Name = Latrunculin B_conf1
REMARK  4 active torsions:
REMARK  status: ('A' for Active; 'I' for Inactive)
REMARK    1  A    between atoms: C_1  and  C_2
REMARK    2  A    between atoms: C_9  and  C_11
REMARK    3  A    between atoms: C_9  and  O_17
REMARK    4  A    between atoms: C_22  and  C_27
REMARK                            x       y       z     vdW  Elec       q    Type
REMARK                         _______ _______ _______ _____ _____    ______ ____
ROOT
ATOM      1  C   UNL     1     150.811 165.419 193.541  0.00  0.00    -0.026 C 
ATOM      2  C   UNL     1     149.329 165.027 193.357  0.00  0.00    -0.045 C 
ATOM      3  C   UNL     1     148.783 165.185 191.927  0.00  0.00    -0.026 C 
ATOM      4  C   UNL     1     149.511 164.319 190.894  0.00  0.00    +0.065 C 
ATOM      5  C   UNL     1     148.962 164.555 189.490  0.00  0.00    +0.011 C 
ATOM      6  C   UNL     1     149.720 163.681 188.490  0.00  0.00    +0.111 C 
ATOM      7  C   UNL     1     149.662 162.215 188.938  0.00  0.00    +0.040 C 
ATOM      8  C   UNL     1     150.032 162.027 190.423  0.00  0.00    +0.190 C 
ATOM      9  O   UNL     1     149.331 162.947 191.251  0.00  0.00    -0.344 OA
ATOM     10  O   UNL     1     151.102 164.076 188.409  0.00  0.00    -0.458 OA
ATOM     11  C   UNL     1     151.368 165.214 187.731  0.00  0.00    +0.332 C 
ATOM     12  O   UNL     1     150.580 165.906 187.110  0.00  0.00    -0.246 OA
ATOM     13  C   UNL     1     152.804 165.505 187.870  0.00  0.00    +0.021 C 
ATOM     14  C   UNL     1     153.300 166.329 188.814  0.00  0.00    -0.066 C 
ATOM     15  C   UNL     1     152.455 167.066 189.838  0.00  0.00    -0.028 C 
ATOM     16  C   UNL     1     152.756 166.658 191.289  0.00  0.00    -0.031 C 
ATOM     17  C   UNL     1     151.862 167.385 192.257  0.00  0.00    -0.087 C 
ATOM     18  C   UNL     1     151.047 166.871 193.195  0.00  0.00    -0.085 C 
ATOM     19  H   UNL     1     151.429 164.763 192.921  0.00  0.00    +0.034 HD
ATOM     20  H   UNL     1     148.704 165.634 194.026  0.00  0.00    +0.027 HD
ATOM     21  H   UNL     1     149.191 163.986 193.677  0.00  0.00    +0.027 HD
ATOM     22  H   UNL     1     147.723 164.901 191.950  0.00  0.00    +0.029 HD
ATOM     23  H   UNL     1     148.823 166.238 191.628  0.00  0.00    +0.029 HD
ATOM     24  H   UNL     1     150.577 164.562 190.912  0.00  0.00    +0.060 HD
ATOM     25  H   UNL     1     149.053 165.615 189.232  0.00  0.00    +0.033 HD
ATOM     26  H   UNL     1     147.897 164.290 189.456  0.00  0.00    +0.033 HD
ATOM     27  H   UNL     1     149.270 163.759 187.493  0.00  0.00    +0.074 HD
ATOM     28  H   UNL     1     148.639 161.863 188.763  0.00  0.00    +0.035 HD
ATOM     29  H   UNL     1     150.339 161.619 188.313  0.00  0.00    +0.035 HD
ATOM     30  H   UNL     1     153.436 164.998 187.152  0.00  0.00    +0.069 HD
ATOM     31  H   UNL     1     151.386 166.920 189.644  0.00  0.00    +0.031 HD
ATOM     32  H   UNL     1     152.631 168.143 189.715  0.00  0.00    +0.031 HD
ATOM     33  H   UNL     1     153.792 166.917 191.541  0.00  0.00    +0.031 HD
ATOM     34  H   UNL     1     152.673 165.573 191.391  0.00  0.00    +0.031 HD
ATOM     35  H   UNL     1     151.901 168.473 192.183  0.00  0.00    +0.057 HD
ATOM     36  H   UNL     1     150.483 167.582 193.801  0.00  0.00    +0.057 HD
ENDROOT
BRANCH   8  37
ATOM     37  C   UNL     1     149.718 160.558 190.879  0.00  0.00    +0.087 C 
ATOM     38  C   UNL     1     149.856 159.518 189.767  0.00  0.00    +0.026 C 
ATOM     39  S   UNL     1     148.172 159.256 189.136  0.00  0.00    -0.066 S 
ATOM     40  C   UNL     1     147.423 159.864 190.590  0.00  0.00    +0.272 C 
ATOM     41  O   UNL     1     146.237 159.775 190.852  0.00  0.00    -0.263 OA
ATOM     42  N   UNL     1     148.364 160.420 191.403  0.00  0.00    -0.298 N 
ATOM     43  H   UNL     1     150.383 160.311 191.714  0.00  0.00    +0.056 HD
ATOM     44  H   UNL     1     150.539 159.805 188.963  0.00  0.00    +0.040 HD
ATOM     45  H   UNL     1     150.200 158.567 190.185  0.00  0.00    +0.040 HD
ATOM     46  H   UNL     1     148.081 160.759 192.313  0.00  0.00    +0.150 HD
ENDBRANCH   8  37
BRANCH   1  47
ATOM     47  C   UNL     1     151.235 165.171 194.992  0.00  0.00    -0.059 C 
ATOM     48  H   UNL     1     150.469 164.601 195.527  0.00  0.00    +0.024 HD
ATOM     49  H   UNL     1     152.167 164.596 195.035  0.00  0.00    +0.024 HD
ATOM     50  H   UNL     1     151.394 166.112 195.533  0.00  0.00    +0.024 HD
ENDBRANCH   1  47
BRANCH  14  51
ATOM     51  C   UNL     1     154.781 166.597 188.869  0.00  0.00    -0.043 C 
ATOM     52  H   UNL     1     155.327 165.675 189.091  0.00  0.00    +0.027 HD
ATOM     53  H   UNL     1     155.040 167.325 189.647  0.00  0.00    +0.027 HD
ATOM     54  H   UNL     1     155.138 166.995 187.915  0.00  0.00    +0.027 HD
ENDBRANCH  14  51
BRANCH   8  55
ATOM     55  O   UNL     1     151.433 162.232 190.588  0.00  0.00    -0.363 OA
ATOM     56  H   UNL     1     151.550 163.188 190.447  0.00  0.00    +0.213 HD
ENDBRANCH   8  55
TORSDOF 4
ENDMDL
