MODEL 1
REMARK VINA RESULT:      -7.1      0.000      0.000
REMARK  Name = Latrunculin B_conf3
REMARK  4 active torsions:
REMARK  status: ('A' for Active; 'I' for Inactive)
REMARK    1  A    between atoms: C_1  and  C_2
REMARK    2  A    between atoms: C_9  and  C_11
REMARK    3  A    between atoms: C_9  and  O_17
REMARK    4  A    between atoms: C_22  and  C_27
REMARK                            x       y       z     vdW  Elec       q    Type
REMARK                         _______ _______ _______ _____ _____    ______ ____
ROOT
ATOM      1  C   UNL     1     132.729 158.581 196.291  0.00  0.00    -0.026 C 
ATOM      2  C   UNL     1     131.810 158.963 197.470  0.00  0.00    -0.045 C 
ATOM      3  C   UNL     1     132.226 160.250 198.200  0.00  0.00    -0.026 C 
ATOM      4  C   UNL     1     133.546 160.151 198.983  0.00  0.00    +0.065 C 
ATOM      5  C   UNL     1     133.445 159.207 200.183  0.00  0.00    +0.011 C 
ATOM      6  C   UNL     1     134.752 159.206 200.977  0.00  0.00    +0.111 C 
ATOM      7  C   UNL     1     135.154 160.638 201.336  0.00  0.00    +0.040 C 
ATOM      8  C   UNL     1     135.135 161.565 200.105  0.00  0.00    +0.190 C 
ATOM      9  O   UNL     1     133.865 161.468 199.448  0.00  0.00    -0.344 OA
ATOM     10  O   UNL     1     135.817 158.626 200.191  0.00  0.00    -0.458 OA
ATOM     11  C   UNL     1     135.805 157.269 200.118  0.00  0.00    +0.332 C 
ATOM     12  O   UNL     1     135.039 156.514 200.690  0.00  0.00    -0.246 OA
ATOM     13  C   UNL     1     136.870 156.851 199.190  0.00  0.00    +0.021 C 
ATOM     14  C   UNL     1     136.647 156.129 198.074  0.00  0.00    -0.066 C 
ATOM     15  C   UNL     1     135.273 155.694 197.589  0.00  0.00    -0.028 C 
ATOM     16  C   UNL     1     134.915 156.288 196.219  0.00  0.00    -0.031 C 
ATOM     17  C   UNL     1     133.447 156.154 195.914  0.00  0.00    -0.087 C 
ATOM     18  C   UNL     1     132.520 157.127 195.925  0.00  0.00    -0.085 C 
ATOM     19  H   UNL     1     133.768 158.733 196.590  0.00  0.00    +0.034 HD
ATOM     20  H   UNL     1     131.758 158.141 198.192  0.00  0.00    +0.027 HD
ATOM     21  H   UNL     1     130.784 159.096 197.099  0.00  0.00    +0.027 HD
ATOM     22  H   UNL     1     131.424 160.536 198.895  0.00  0.00    +0.029 HD
ATOM     23  H   UNL     1     132.290 161.082 197.487  0.00  0.00    +0.029 HD
ATOM     24  H   UNL     1     134.340 159.827 198.303  0.00  0.00    +0.060 HD
ATOM     25  H   UNL     1     133.206 158.195 199.847  0.00  0.00    +0.033 HD
ATOM     26  H   UNL     1     132.637 159.541 200.845  0.00  0.00    +0.033 HD
ATOM     27  H   UNL     1     134.636 158.636 201.907  0.00  0.00    +0.074 HD
ATOM     28  H   UNL     1     136.158 160.624 201.778  0.00  0.00    +0.035 HD
ATOM     29  H   UNL     1     134.447 161.012 202.085  0.00  0.00    +0.035 HD
ATOM     30  H   UNL     1     137.867 157.169 199.473  0.00  0.00    +0.069 HD
ATOM     31  H   UNL     1     135.247 154.597 197.535  0.00  0.00    +0.031 HD
ATOM     32  H   UNL     1     134.496 155.975 198.308  0.00  0.00    +0.031 HD
ATOM     33  H   UNL     1     135.239 157.333 196.162  0.00  0.00    +0.031 HD
ATOM     34  H   UNL     1     135.471 155.764 195.431  0.00  0.00    +0.031 HD
ATOM     35  H   UNL     1     133.121 155.149 195.643  0.00  0.00    +0.057 HD
ATOM     36  H   UNL     1     131.499 156.852 195.660  0.00  0.00    +0.057 HD
ENDROOT
BRANCH   8  37
ATOM     37  C   UNL     1     135.292 163.061 200.547  0.00  0.00    +0.087 C 
ATOM     38  C   UNL     1     134.439 163.406 201.772  0.00  0.00    +0.026 C 
ATOM     39  S   UNL     1     132.976 164.267 201.121  0.00  0.00    -0.066 S 
ATOM     40  C   UNL     1     133.748 164.653 199.606  0.00  0.00    +0.272 C 
ATOM     41  O   UNL     1     133.290 165.404 198.763  0.00  0.00    -0.263 OA
ATOM     42  N   UNL     1     134.952 164.023 199.513  0.00  0.00    -0.298 N 
ATOM     43  H   UNL     1     136.346 163.226 200.803  0.00  0.00    +0.056 HD
ATOM     44  H   UNL     1     134.157 162.544 202.381  0.00  0.00    +0.040 HD
ATOM     45  H   UNL     1     134.976 164.116 202.412  0.00  0.00    +0.040 HD
ATOM     46  H   UNL     1     135.511 164.193 198.688  0.00  0.00    +0.150 HD
ENDBRANCH   8  37
BRANCH   1  47
ATOM     47  C   UNL     1     132.474 159.460 195.065  0.00  0.00    -0.059 C 
ATOM     48  H   UNL     1     131.455 159.320 194.689  0.00  0.00    +0.024 HD
ATOM     49  H   UNL     1     132.601 160.522 195.298  0.00  0.00    +0.024 HD
ATOM     50  H   UNL     1     133.160 159.210 194.249  0.00  0.00    +0.024 HD
ENDBRANCH   1  47
BRANCH  14  51
ATOM     51  C   UNL     1     137.808 155.695 197.216  0.00  0.00    -0.043 C 
ATOM     52  H   UNL     1     137.907 154.605 197.177  0.00  0.00    +0.027 HD
ATOM     53  H   UNL     1     138.748 156.099 197.604  0.00  0.00    +0.027 HD
ATOM     54  H   UNL     1     137.673 156.048 196.188  0.00  0.00    +0.027 HD
ENDBRANCH  14  51
BRANCH   8  55
ATOM     55  O   UNL     1     136.186 161.239 199.203  0.00  0.00    -0.363 OA
ATOM     56  H   UNL     1     136.686 162.053 199.017  0.00  0.00    +0.213 HD
ENDBRANCH   8  55
TORSDOF 4
ENDMDL
MODEL 2
REMARK VINA RESULT:      -7.0     16.287     18.543
REMARK  Name = Latrunculin B_conf3
REMARK  4 active torsions:
REMARK  status: ('A' for Active; 'I' for Inactive)
REMARK    1  A    between atoms: C_1  and  C_2
REMARK    2  A    between atoms: C_9  and  C_11
REMARK    3  A    between atoms: C_9  and  O_17
REMARK    4  A    between atoms: C_22  and  C_27
REMARK                            x       y       z     vdW  Elec       q    Type
REMARK                         _______ _______ _______ _____ _____    ______ ____
ROOT
ATOM      1  C   UNL     1     144.362 170.111 190.472  0.00  0.00    -0.026 C 
ATOM      2  C   UNL     1     145.200 169.199 189.551  0.00  0.00    -0.045 C 
ATOM      3  C   UNL     1     145.801 167.974 190.259  0.00  0.00    -0.026 C 
ATOM      4  C   UNL     1     146.893 168.295 191.292  0.00  0.00    +0.065 C 
ATOM      5  C   UNL     1     148.162 168.855 190.647  0.00  0.00    +0.011 C 
ATOM      6  C   UNL     1     149.247 169.081 191.701  0.00  0.00    +0.111 C 
ATOM      7  C   UNL     1     149.467 167.803 192.514  0.00  0.00    +0.040 C 
ATOM      8  C   UNL     1     148.142 167.229 193.049  0.00  0.00    +0.190 C 
ATOM      9  O   UNL     1     147.212 167.073 191.969  0.00  0.00    -0.344 OA
ATOM     10  O   UNL     1     148.852 170.129 192.613  0.00  0.00    -0.458 OA
ATOM     11  C   UNL     1     148.991 171.393 192.132  0.00  0.00    +0.332 C 
ATOM     12  O   UNL     1     149.464 171.717 191.057  0.00  0.00    -0.246 OA
ATOM     13  C   UNL     1     148.435 172.326 193.128  0.00  0.00    +0.021 C 
ATOM     14  C   UNL     1     147.425 173.180 192.868  0.00  0.00    -0.066 C 
ATOM     15  C   UNL     1     146.687 173.264 191.541  0.00  0.00    -0.028 C 
ATOM     16  C   UNL     1     145.196 172.922 191.672  0.00  0.00    -0.031 C 
ATOM     17  C   UNL     1     144.559 172.659 190.334  0.00  0.00    -0.087 C 
ATOM     18  C   UNL     1     144.187 171.470 189.828  0.00  0.00    -0.085 C 
ATOM     19  H   UNL     1     144.883 170.226 191.424  0.00  0.00    +0.034 HD
ATOM     20  H   UNL     1     146.006 169.773 189.080  0.00  0.00    +0.027 HD
ATOM     21  H   UNL     1     144.570 168.842 188.725  0.00  0.00    +0.027 HD
ATOM     22  H   UNL     1     146.221 167.299 189.500  0.00  0.00    +0.029 HD
ATOM     23  H   UNL     1     145.006 167.392 190.742  0.00  0.00    +0.029 HD
ATOM     24  H   UNL     1     146.492 169.000 192.028  0.00  0.00    +0.060 HD
ATOM     25  H   UNL     1     147.940 169.791 190.128  0.00  0.00    +0.033 HD
ATOM     26  H   UNL     1     148.542 168.142 189.905  0.00  0.00    +0.033 HD
ATOM     27  H   UNL     1     150.197 169.354 191.224  0.00  0.00    +0.074 HD
ATOM     28  H   UNL     1     150.143 168.027 193.349  0.00  0.00    +0.035 HD
ATOM     29  H   UNL     1     149.949 167.064 191.863  0.00  0.00    +0.035 HD
ATOM     30  H   UNL     1     148.904 172.278 194.104  0.00  0.00    +0.069 HD
ATOM     31  H   UNL     1     146.800 174.279 191.137  0.00  0.00    +0.031 HD
ATOM     32  H   UNL     1     147.137 172.596 190.799  0.00  0.00    +0.031 HD
ATOM     33  H   UNL     1     145.059 172.074 192.352  0.00  0.00    +0.031 HD
ATOM     34  H   UNL     1     144.663 173.762 192.138  0.00  0.00    +0.031 HD
ATOM     35  H   UNL     1     144.376 173.545 189.726  0.00  0.00    +0.057 HD
ATOM     36  H   UNL     1     143.722 171.466 188.842  0.00  0.00    +0.057 HD
ENDROOT
BRANCH   8  37
ATOM     37  C   UNL     1     148.370 165.797 193.646  0.00  0.00    +0.087 C 
ATOM     38  C   UNL     1     147.837 165.664 195.077  0.00  0.00    +0.026 C 
ATOM     39  S   UNL     1     149.294 165.807 196.155  0.00  0.00    -0.066 S 
ATOM     40  C   UNL     1     150.411 165.429 194.871  0.00  0.00    +0.272 C 
ATOM     41  O   UNL     1     151.600 165.208 195.026  0.00  0.00    -0.263 OA
ATOM     42  N   UNL     1     149.761 165.381 193.676  0.00  0.00    -0.298 N 
ATOM     43  H   UNL     1     147.835 165.080 193.011  0.00  0.00    +0.056 HD
ATOM     44  H   UNL     1     147.071 166.397 195.341  0.00  0.00    +0.040 HD
ATOM     45  H   UNL     1     147.419 164.662 195.227  0.00  0.00    +0.040 HD
ATOM     46  H   UNL     1     150.301 165.141 192.855  0.00  0.00    +0.150 HD
ENDBRANCH   8  37
BRANCH   1  47
ATOM     47  C   UNL     1     142.989 169.506 190.773  0.00  0.00    -0.059 C 
ATOM     48  H   UNL     1     142.416 169.359 189.851  0.00  0.00    +0.024 HD
ATOM     49  H   UNL     1     143.078 168.533 191.268  0.00  0.00    +0.024 HD
ATOM     50  H   UNL     1     142.401 170.162 191.421  0.00  0.00    +0.024 HD
ENDBRANCH   1  47
BRANCH  14  51
ATOM     51  C   UNL     1     146.962 174.141 193.933  0.00  0.00    -0.043 C 
ATOM     52  H   UNL     1     145.946 174.504 193.747  0.00  0.00    +0.027 HD
ATOM     53  H   UNL     1     147.621 175.013 193.980  0.00  0.00    +0.027 HD
ATOM     54  H   UNL     1     146.961 173.649 194.912  0.00  0.00    +0.027 HD
ENDBRANCH  14  51
BRANCH   8  55
ATOM     55  O   UNL     1     147.592 168.066 194.060  0.00  0.00    -0.363 OA
ATOM     56  H   UNL     1     148.128 167.958 194.865  0.00  0.00    +0.213 HD
ENDBRANCH   8  55
TORSDOF 4
ENDMDL
MODEL 3
REMARK VINA RESULT:      -6.4     16.116     17.860
REMARK  Name = Latrunculin B_conf3
REMARK  4 active torsions:
REMARK  status: ('A' for Active; 'I' for Inactive)
REMARK    1  A    between atoms: C_1  and  C_2
REMARK    2  A    between atoms: C_9  and  C_11
REMARK    3  A    between atoms: C_9  and  O_17
REMARK    4  A    between atoms: C_22  and  C_27
REMARK                            x       y       z     vdW  Elec       q    Type
REMARK                         _______ _______ _______ _____ _____    ______ ____
ROOT
ATOM      1  C   UNL     1     149.045 170.885 191.962  0.00  0.00    -0.026 C 
ATOM      2  C   UNL     1     148.267 170.815 190.630  0.00  0.00    -0.045 C 
ATOM      3  C   UNL     1     146.872 170.182 190.751  0.00  0.00    -0.026 C 
ATOM      4  C   UNL     1     146.870 168.679 191.079  0.00  0.00    +0.065 C 
ATOM      5  C   UNL     1     147.429 167.830 189.935  0.00  0.00    +0.011 C 
ATOM      6  C   UNL     1     147.330 166.342 190.273  0.00  0.00    +0.111 C 
ATOM      7  C   UNL     1     145.897 165.986 190.677  0.00  0.00    +0.040 C 
ATOM      8  C   UNL     1     145.352 166.941 191.756  0.00  0.00    +0.190 C 
ATOM      9  O   UNL     1     145.510 168.299 191.323  0.00  0.00    -0.344 OA
ATOM     10  O   UNL     1     148.200 166.018 191.379  0.00  0.00    -0.458 OA
ATOM     11  C   UNL     1     149.517 165.906 191.062  0.00  0.00    +0.332 C 
ATOM     12  O   UNL     1     150.010 165.989 189.950  0.00  0.00    -0.246 OA
ATOM     13  C   UNL     1     150.273 165.697 192.308  0.00  0.00    +0.021 C 
ATOM     14  C   UNL     1     151.253 166.519 192.734  0.00  0.00    -0.066 C 
ATOM     15  C   UNL     1     151.678 167.794 192.023  0.00  0.00    -0.028 C 
ATOM     16  C   UNL     1     151.458 169.049 192.880  0.00  0.00    -0.031 C 
ATOM     17  C   UNL     1     151.537 170.310 192.062  0.00  0.00    -0.087 C 
ATOM     18  C   UNL     1     150.518 171.102 191.686  0.00  0.00    -0.085 C 
ATOM     19  H   UNL     1     148.912 169.944 192.498  0.00  0.00    +0.034 HD
ATOM     20  H   UNL     1     148.848 170.266 189.881  0.00  0.00    +0.027 HD
ATOM     21  H   UNL     1     148.149 171.830 190.227  0.00  0.00    +0.027 HD
ATOM     22  H   UNL     1     146.332 170.338 189.807  0.00  0.00    +0.029 HD
ATOM     23  H   UNL     1     146.281 170.717 191.505  0.00  0.00    +0.029 HD
ATOM     24  H   UNL     1     147.442 168.514 191.997  0.00  0.00    +0.060 HD
ATOM     25  H   UNL     1     148.468 168.104 189.736  0.00  0.00    +0.033 HD
ATOM     26  H   UNL     1     146.851 168.019 189.022  0.00  0.00    +0.033 HD
ATOM     27  H   UNL     1     147.605 165.731 189.404  0.00  0.00    +0.074 HD
ATOM     28  H   UNL     1     145.880 164.954 191.047  0.00  0.00    +0.035 HD
ATOM     29  H   UNL     1     145.266 166.047 189.782  0.00  0.00    +0.035 HD
ATOM     30  H   UNL     1     149.982 164.818 192.872  0.00  0.00    +0.069 HD
ATOM     31  H   UNL     1     152.739 167.712 191.752  0.00  0.00    +0.031 HD
ATOM     32  H   UNL     1     151.137 167.915 191.079  0.00  0.00    +0.031 HD
ATOM     33  H   UNL     1     150.505 168.981 193.416  0.00  0.00    +0.031 HD
ATOM     34  H   UNL     1     152.230 169.105 193.660  0.00  0.00    +0.031 HD
ATOM     35  H   UNL     1     152.543 170.605 191.762  0.00  0.00    +0.057 HD
ATOM     36  H   UNL     1     150.760 171.993 191.106  0.00  0.00    +0.057 HD
ENDROOT
BRANCH   8  37
ATOM     37  C   UNL     1     143.813 166.717 191.955  0.00  0.00    +0.087 C 
ATOM     38  C   UNL     1     143.175 165.947 190.794  0.00  0.00    +0.026 C 
ATOM     39  S   UNL     1     142.358 167.205 189.766  0.00  0.00    -0.066 S 
ATOM     40  C   UNL     1     142.332 168.386 191.048  0.00  0.00    +0.272 C 
ATOM     41  O   UNL     1     141.731 169.446 191.005  0.00  0.00    -0.263 OA
ATOM     42  N   UNL     1     143.051 167.943 192.116  0.00  0.00    -0.298 N 
ATOM     43  H   UNL     1     143.676 166.132 192.873  0.00  0.00    +0.056 HD
ATOM     44  H   UNL     1     143.879 165.350 190.210  0.00  0.00    +0.040 HD
ATOM     45  H   UNL     1     142.393 165.280 191.173  0.00  0.00    +0.040 HD
ATOM     46  H   UNL     1     143.087 168.531 192.937  0.00  0.00    +0.150 HD
ENDBRANCH   8  37
BRANCH   1  47
ATOM     47  C   UNL     1     148.523 172.004 192.865  0.00  0.00    -0.059 C 
ATOM     48  H   UNL     1     149.234 172.836 192.908  0.00  0.00    +0.024 HD
ATOM     49  H   UNL     1     147.567 172.399 192.505  0.00  0.00    +0.024 HD
ATOM     50  H   UNL     1     148.375 171.648 193.890  0.00  0.00    +0.024 HD
ENDBRANCH   1  47
BRANCH  14  51
ATOM     51  C   UNL     1     152.014 166.191 193.994  0.00  0.00    -0.043 C 
ATOM     52  H   UNL     1     152.457 165.190 193.959  0.00  0.00    +0.027 HD
ATOM     53  H   UNL     1     151.354 166.230 194.865  0.00  0.00    +0.027 HD
ATOM     54  H   UNL     1     152.830 166.906 194.140  0.00  0.00    +0.027 HD
ENDBRANCH  14  51
BRANCH   8  55
ATOM     55  O   UNL     1     146.011 166.737 193.000  0.00  0.00    -0.363 OA
ATOM     56  H   UNL     1     146.841 167.246 192.989  0.00  0.00    +0.213 HD
ENDBRANCH   8  55
TORSDOF 4
ENDMDL
MODEL 4
REMARK VINA RESULT:      -6.3     16.616     18.772
REMARK  Name = Latrunculin B_conf3
REMARK  4 active torsions:
REMARK  status: ('A' for Active; 'I' for Inactive)
REMARK    1  A    between atoms: C_1  and  C_2
REMARK    2  A    between atoms: C_9  and  C_11
REMARK    3  A    between atoms: C_9  and  O_17
REMARK    4  A    between atoms: C_22  and  C_27
REMARK                            x       y       z     vdW  Elec       q    Type
REMARK                         _______ _______ _______ _____ _____    ______ ____
ROOT
ATOM      1  C   UNL     1     148.909 172.072 192.317  0.00  0.00    -0.026 C 
ATOM      2  C   UNL     1     148.752 173.103 191.178  0.00  0.00    -0.045 C 
ATOM      3  C   UNL     1     147.351 173.728 191.086  0.00  0.00    -0.026 C 
ATOM      4  C   UNL     1     146.239 172.760 190.651  0.00  0.00    +0.065 C 
ATOM      5  C   UNL     1     146.400 172.297 189.202  0.00  0.00    +0.011 C 
ATOM      6  C   UNL     1     145.228 171.404 188.789  0.00  0.00    +0.111 C 
ATOM      7  C   UNL     1     143.900 172.106 189.081  0.00  0.00    +0.040 C 
ATOM      8  C   UNL     1     143.840 172.643 190.523  0.00  0.00    +0.190 C 
ATOM      9  O   UNL     1     144.993 173.454 190.785  0.00  0.00    -0.344 OA
ATOM     10  O   UNL     1     145.253 170.166 189.534  0.00  0.00    -0.458 OA
ATOM     11  C   UNL     1     146.162 169.253 189.104  0.00  0.00    +0.332 C 
ATOM     12  O   UNL     1     146.894 169.352 188.134  0.00  0.00    -0.246 OA
ATOM     13  C   UNL     1     146.142 168.112 190.035  0.00  0.00    +0.021 C 
ATOM     14  C   UNL     1     147.221 167.695 190.728  0.00  0.00    -0.066 C 
ATOM     15  C   UNL     1     148.584 168.367 190.686  0.00  0.00    -0.028 C 
ATOM     16  C   UNL     1     149.013 168.917 192.055  0.00  0.00    -0.031 C 
ATOM     17  C   UNL     1     150.167 169.877 191.939  0.00  0.00    -0.087 C 
ATOM     18  C   UNL     1     150.131 171.214 192.068  0.00  0.00    -0.085 C 
ATOM     19  H   UNL     1     148.021 171.439 192.344  0.00  0.00    +0.034 HD
ATOM     20  H   UNL     1     149.007 172.646 190.215  0.00  0.00    +0.027 HD
ATOM     21  H   UNL     1     149.480 173.913 191.322  0.00  0.00    +0.027 HD
ATOM     22  H   UNL     1     147.386 174.567 190.376  0.00  0.00    +0.029 HD
ATOM     23  H   UNL     1     147.079 174.184 192.046  0.00  0.00    +0.029 HD
ATOM     24  H   UNL     1     146.228 171.902 191.331  0.00  0.00    +0.060 HD
ATOM     25  H   UNL     1     147.344 171.760 189.080  0.00  0.00    +0.033 HD
ATOM     26  H   UNL     1     146.422 173.170 188.538  0.00  0.00    +0.033 HD
ATOM     27  H   UNL     1     145.273 171.181 187.716  0.00  0.00    +0.074 HD
ATOM     28  H   UNL     1     143.080 171.398 188.910  0.00  0.00    +0.035 HD
ATOM     29  H   UNL     1     143.795 172.940 188.376  0.00  0.00    +0.035 HD
ATOM     30  H   UNL     1     145.181 167.620 190.128  0.00  0.00    +0.069 HD
ATOM     31  H   UNL     1     149.327 167.642 190.330  0.00  0.00    +0.031 HD
ATOM     32  H   UNL     1     148.596 169.187 189.960  0.00  0.00    +0.031 HD
ATOM     33  H   UNL     1     148.160 169.380 192.562  0.00  0.00    +0.031 HD
ATOM     34  H   UNL     1     149.328 168.089 192.704  0.00  0.00    +0.031 HD
ATOM     35  H   UNL     1     151.135 169.414 191.742  0.00  0.00    +0.057 HD
ATOM     36  H   UNL     1     151.072 171.755 191.970  0.00  0.00    +0.057 HD
ENDROOT
BRANCH   8  37
ATOM     37  C   UNL     1     142.592 173.575 190.706  0.00  0.00    +0.087 C 
ATOM     38  C   UNL     1     142.973 174.983 191.176  0.00  0.00    +0.026 C 
ATOM     39  S   UNL     1     142.637 175.008 192.963  0.00  0.00    -0.066 S 
ATOM     40  C   UNL     1     141.572 173.630 192.888  0.00  0.00    +0.272 C 
ATOM     41  O   UNL     1     140.872 173.241 193.807  0.00  0.00    -0.263 OA
ATOM     42  N   UNL     1     141.608 173.070 191.647  0.00  0.00    -0.298 N 
ATOM     43  H   UNL     1     142.092 173.660 189.734  0.00  0.00    +0.056 HD
ATOM     44  H   UNL     1     144.006 175.265 190.960  0.00  0.00    +0.040 HD
ATOM     45  H   UNL     1     142.312 175.723 190.711  0.00  0.00    +0.040 HD
ATOM     46  H   UNL     1     141.007 172.276 191.471  0.00  0.00    +0.150 HD
ENDBRANCH   8  37
BRANCH   1  47
ATOM     47  C   UNL     1     149.029 172.751 193.683  0.00  0.00    -0.059 C 
ATOM     48  H   UNL     1     149.067 172.007 194.486  0.00  0.00    +0.024 HD
ATOM     49  H   UNL     1     149.935 173.362 193.751  0.00  0.00    +0.024 HD
ATOM     50  H   UNL     1     148.169 173.399 193.879  0.00  0.00    +0.024 HD
ENDBRANCH   1  47
BRANCH  14  51
ATOM     51  C   UNL     1     147.121 166.480 191.613  0.00  0.00    -0.043 C 
ATOM     52  H   UNL     1     148.070 166.253 192.112  0.00  0.00    +0.027 HD
ATOM     53  H   UNL     1     146.836 165.598 191.031  0.00  0.00    +0.027 HD
ATOM     54  H   UNL     1     146.371 166.641 192.395  0.00  0.00    +0.027 HD
ENDBRANCH  14  51
BRANCH   8  55
ATOM     55  O   UNL     1     143.760 171.578 191.463  0.00  0.00    -0.363 OA
ATOM     56  H   UNL     1     143.726 171.965 192.355  0.00  0.00    +0.213 HD
ENDBRANCH   8  55
TORSDOF 4
ENDMDL
MODEL 5
REMARK VINA RESULT:      -6.1     15.508     17.645
REMARK  Name = Latrunculin B_conf3
REMARK  4 active torsions:
REMARK  status: ('A' for Active; 'I' for Inactive)
REMARK    1  A    between atoms: C_1  and  C_2
REMARK    2  A    between atoms: C_9  and  C_11
REMARK    3  A    between atoms: C_9  and  O_17
REMARK    4  A    between atoms: C_22  and  C_27
REMARK                            x       y       z     vdW  Elec       q    Type
REMARK                         _______ _______ _______ _____ _____    ______ ____
ROOT
ATOM      1  C   UNL     1     142.966 167.846 191.576  0.00  0.00    -0.026 C 
ATOM      2  C   UNL     1     143.667 166.841 190.638  0.00  0.00    -0.045 C 
ATOM      3  C   UNL     1     144.947 166.223 191.222  0.00  0.00    -0.026 C 
ATOM      4  C   UNL     1     146.118 167.205 191.395  0.00  0.00    +0.065 C 
ATOM      5  C   UNL     1     146.670 167.700 190.057  0.00  0.00    +0.011 C 
ATOM      6  C   UNL     1     147.883 168.606 190.277  0.00  0.00    +0.111 C 
ATOM      7  C   UNL     1     148.915 167.902 191.161  0.00  0.00    +0.040 C 
ATOM      8  C   UNL     1     148.279 167.334 192.443  0.00  0.00    +0.190 C 
ATOM      9  O   UNL     1     147.154 166.513 192.102  0.00  0.00    -0.344 OA
ATOM     10  O   UNL     1     147.484 169.826 190.939  0.00  0.00    -0.458 OA
ATOM     11  C   UNL     1     146.883 170.746 190.139  0.00  0.00    +0.332 C 
ATOM     12  O   UNL     1     146.711 170.665 188.935  0.00  0.00    -0.246 OA
ATOM     13  C   UNL     1     146.435 171.866 190.984  0.00  0.00    +0.021 C 
ATOM     14  C   UNL     1     145.150 172.263 191.077  0.00  0.00    -0.066 C 
ATOM     15  C   UNL     1     143.985 171.587 190.371  0.00  0.00    -0.028 C 
ATOM     16  C   UNL     1     142.957 171.006 191.352  0.00  0.00    -0.031 C 
ATOM     17  C   UNL     1     142.016 170.044 190.677  0.00  0.00    -0.087 C 
ATOM     18  C   UNL     1     142.004 168.705 190.784  0.00  0.00    -0.085 C 
ATOM     19  H   UNL     1     143.722 168.481 192.040  0.00  0.00    +0.034 HD
ATOM     20  H   UNL     1     143.903 167.318 189.679  0.00  0.00    +0.027 HD
ATOM     21  H   UNL     1     142.972 166.025 190.398  0.00  0.00    +0.027 HD
ATOM     22  H   UNL     1     145.271 165.401 190.570  0.00  0.00    +0.029 HD
ATOM     23  H   UNL     1     144.729 165.748 192.186  0.00  0.00    +0.029 HD
ATOM     24  H   UNL     1     145.788 168.048 192.011  0.00  0.00    +0.060 HD
ATOM     25  H   UNL     1     145.894 168.235 189.504  0.00  0.00    +0.033 HD
ATOM     26  H   UNL     1     146.983 166.841 189.449  0.00  0.00    +0.033 HD
ATOM     27  H   UNL     1     148.358 168.852 189.319  0.00  0.00    +0.074 HD
ATOM     28  H   UNL     1     149.706 168.617 191.420  0.00  0.00    +0.035 HD
ATOM     29  H   UNL     1     149.358 167.085 190.580  0.00  0.00    +0.035 HD
ATOM     30  H   UNL     1     147.225 172.360 191.538  0.00  0.00    +0.069 HD
ATOM     31  H   UNL     1     143.497 172.317 189.712  0.00  0.00    +0.031 HD
ATOM     32  H   UNL     1     144.337 170.784 189.715  0.00  0.00    +0.031 HD
ATOM     33  H   UNL     1     143.466 170.535 192.200  0.00  0.00    +0.031 HD
ATOM     34  H   UNL     1     142.357 171.818 191.783  0.00  0.00    +0.031 HD
ATOM     35  H   UNL     1     141.257 170.507 190.045  0.00  0.00    +0.057 HD
ATOM     36  H   UNL     1     141.234 168.163 190.234  0.00  0.00    +0.057 HD
ENDROOT
BRANCH   8  37
ATOM     37  C   UNL     1     149.296 166.403 193.190  0.00  0.00    +0.087 C 
ATOM     38  C   UNL     1     150.664 166.353 192.501  0.00  0.00    +0.026 C 
ATOM     39  S   UNL     1     150.683 164.795 191.564  0.00  0.00    -0.066 S 
ATOM     40  C   UNL     1     149.387 164.096 192.499  0.00  0.00    +0.272 C 
ATOM     41  O   UNL     1     149.034 162.931 192.437  0.00  0.00    -0.263 OA
ATOM     42  N   UNL     1     148.848 165.029 193.333  0.00  0.00    -0.298 N 
ATOM     43  H   UNL     1     149.433 166.801 194.203  0.00  0.00    +0.056 HD
ATOM     44  H   UNL     1     150.873 167.210 191.856  0.00  0.00    +0.040 HD
ATOM     45  H   UNL     1     151.458 166.290 193.253  0.00  0.00    +0.040 HD
ATOM     46  H   UNL     1     148.103 164.734 193.950  0.00  0.00    +0.150 HD
ENDBRANCH   8  37
BRANCH   1  47
ATOM     47  C   UNL     1     142.211 167.137 192.703  0.00  0.00    -0.059 C 
ATOM     48  H   UNL     1     142.169 166.057 192.526  0.00  0.00    +0.024 HD
ATOM     49  H   UNL     1     142.694 167.298 193.673  0.00  0.00    +0.024 HD
ATOM     50  H   UNL     1     141.180 167.496 192.776  0.00  0.00    +0.024 HD
ENDBRANCH   1  47
BRANCH  14  51
ATOM     51  C   UNL     1     144.793 173.459 191.921  0.00  0.00    -0.043 C 
ATOM     52  H   UNL     1     145.050 174.403 191.429  0.00  0.00    +0.027 HD
ATOM     53  H   UNL     1     145.324 173.430 192.878  0.00  0.00    +0.027 HD
ATOM     54  H   UNL     1     143.716 173.476 192.120  0.00  0.00    +0.027 HD
ENDBRANCH  14  51
BRANCH   8  55
ATOM     55  O   UNL     1     147.881 168.378 193.324  0.00  0.00    -0.363 OA
ATOM     56  H   UNL     1     148.473 168.364 194.096  0.00  0.00    +0.213 HD
ENDBRANCH   8  55
TORSDOF 4
ENDMDL
MODEL 6
REMARK VINA RESULT:      -6.0     17.178     19.469
REMARK  Name = Latrunculin B_conf3
REMARK  4 active torsions:
REMARK  status: ('A' for Active; 'I' for Inactive)
REMARK    1  A    between atoms: C_1  and  C_2
REMARK    2  A    between atoms: C_9  and  C_11
REMARK    3  A    between atoms: C_9  and  O_17
REMARK    4  A    between atoms: C_22  and  C_27
REMARK                            x       y       z     vdW  Elec       q    Type
REMARK                         _______ _______ _______ _____ _____    ______ ____
ROOT
ATOM      1  C   UNL     1     147.779 172.235 191.670  0.00  0.00    -0.026 C 
ATOM      2  C   UNL     1     148.303 171.098 192.573  0.00  0.00    -0.045 C 
ATOM      3  C   UNL     1     149.071 170.001 191.820  0.00  0.00    -0.026 C 
ATOM      4  C   UNL     1     148.212 169.144 190.875  0.00  0.00    +0.065 C 
ATOM      5  C   UNL     1     147.207 168.270 191.628  0.00  0.00    +0.011 C 
ATOM      6  C   UNL     1     146.436 167.377 190.655  0.00  0.00    +0.111 C 
ATOM      7  C   UNL     1     147.410 166.594 189.771  0.00  0.00    +0.040 C 
ATOM      8  C   UNL     1     148.463 167.514 189.124  0.00  0.00    +0.190 C 
ATOM      9  O   UNL     1     149.105 168.300 190.136  0.00  0.00    -0.344 OA
ATOM     10  O   UNL     1     145.596 168.178 189.795  0.00  0.00    -0.458 OA
ATOM     11  C   UNL     1     144.448 168.626 190.367  0.00  0.00    +0.332 C 
ATOM     12  O   UNL     1     144.041 168.369 191.487  0.00  0.00    -0.246 OA
ATOM     13  C   UNL     1     143.775 169.517 189.407  0.00  0.00    +0.021 C 
ATOM     14  C   UNL     1     143.481 170.808 189.665  0.00  0.00    -0.066 C 
ATOM     15  C   UNL     1     143.845 171.534 190.951  0.00  0.00    -0.028 C 
ATOM     16  C   UNL     1     144.798 172.714 190.712  0.00  0.00    -0.031 C 
ATOM     17  C   UNL     1     145.429 173.195 191.991  0.00  0.00    -0.087 C 
ATOM     18  C   UNL     1     146.699 173.010 192.393  0.00  0.00    -0.085 C 
ATOM     19  H   UNL     1     147.365 171.799 190.759  0.00  0.00    +0.034 HD
ATOM     20  H   UNL     1     147.474 170.642 193.127  0.00  0.00    +0.027 HD
ATOM     21  H   UNL     1     148.970 171.522 193.336  0.00  0.00    +0.027 HD
ATOM     22  H   UNL     1     149.553 169.340 192.555  0.00  0.00    +0.029 HD
ATOM     23  H   UNL     1     149.900 170.443 191.254  0.00  0.00    +0.029 HD
ATOM     24  H   UNL     1     147.698 169.801 190.167  0.00  0.00    +0.060 HD
ATOM     25  H   UNL     1     146.514 168.897 192.195  0.00  0.00    +0.033 HD
ATOM     26  H   UNL     1     147.740 167.629 192.341  0.00  0.00    +0.033 HD
ATOM     27  H   UNL     1     145.813 166.658 191.203  0.00  0.00    +0.074 HD
ATOM     28  H   UNL     1     146.840 166.071 188.993  0.00  0.00    +0.035 HD
ATOM     29  H   UNL     1     147.913 165.848 190.398  0.00  0.00    +0.035 HD
ATOM     30  H   UNL     1     143.526 169.056 188.458  0.00  0.00    +0.069 HD
ATOM     31  H   UNL     1     142.924 171.893 191.428  0.00  0.00    +0.031 HD
ATOM     32  H   UNL     1     144.307 170.850 191.670  0.00  0.00    +0.031 HD
ATOM     33  H   UNL     1     145.557 172.445 189.970  0.00  0.00    +0.031 HD
ATOM     34  H   UNL     1     144.243 173.555 190.274  0.00  0.00    +0.031 HD
ATOM     35  H   UNL     1     144.770 173.766 192.646  0.00  0.00    +0.057 HD
ATOM     36  H   UNL     1     146.992 173.446 193.348  0.00  0.00    +0.057 HD
ENDROOT
BRANCH   8  37
ATOM     37  C   UNL     1     149.589 166.660 188.446  0.00  0.00    +0.087 C 
ATOM     38  C   UNL     1     149.943 165.405 189.251  0.00  0.00    +0.026 C 
ATOM     39  S   UNL     1     151.473 165.813 190.144  0.00  0.00    -0.066 S 
ATOM     40  C   UNL     1     151.864 167.138 189.081  0.00  0.00    +0.272 C 
ATOM     41  O   UNL     1     152.923 167.741 189.080  0.00  0.00    -0.263 OA
ATOM     42  N   UNL     1     150.830 167.382 188.228  0.00  0.00    -0.298 N 
ATOM     43  H   UNL     1     149.224 166.346 187.460  0.00  0.00    +0.056 HD
ATOM     44  H   UNL     1     149.157 165.074 189.935  0.00  0.00    +0.040 HD
ATOM     45  H   UNL     1     150.174 164.578 188.570  0.00  0.00    +0.040 HD
ATOM     46  H   UNL     1     150.950 168.113 187.540  0.00  0.00    +0.150 HD
ENDBRANCH   8  37
BRANCH   1  47
ATOM     47  C   UNL     1     148.900 173.188 191.252  0.00  0.00    -0.059 C 
ATOM     48  H   UNL     1     148.564 174.230 191.294  0.00  0.00    +0.024 HD
ATOM     49  H   UNL     1     149.775 173.093 191.904  0.00  0.00    +0.024 HD
ATOM     50  H   UNL     1     149.224 172.992 190.225  0.00  0.00    +0.024 HD
ENDBRANCH   1  47
BRANCH  14  51
ATOM     51  C   UNL     1     142.736 171.627 188.643  0.00  0.00    -0.043 C 
ATOM     52  H   UNL     1     141.791 171.158 188.347  0.00  0.00    +0.027 HD
ATOM     53  H   UNL     1     143.337 171.757 187.738  0.00  0.00    +0.027 HD
ATOM     54  H   UNL     1     142.498 172.616 189.050  0.00  0.00    +0.027 HD
ENDBRANCH  14  51
BRANCH   8  55
ATOM     55  O   UNL     1     147.871 168.357 188.142  0.00  0.00    -0.363 OA
ATOM     56  H   UNL     1     148.406 169.168 188.080  0.00  0.00    +0.213 HD
ENDBRANCH   8  55
TORSDOF 4
ENDMDL
MODEL 7
REMARK VINA RESULT:      -6.0     16.771     19.013
REMARK  Name = Latrunculin B_conf3
REMARK  4 active torsions:
REMARK  status: ('A' for Active; 'I' for Inactive)
REMARK    1  A    between atoms: C_1  and  C_2
REMARK    2  A    between atoms: C_9  and  C_11
REMARK    3  A    between atoms: C_9  and  O_17
REMARK    4  A    between atoms: C_22  and  C_27
REMARK                            x       y       z     vdW  Elec       q    Type
REMARK                         _______ _______ _______ _____ _____    ______ ____
ROOT
ATOM      1  C   UNL     1     146.863 165.233 189.891  0.00  0.00    -0.026 C 
ATOM      2  C   UNL     1     147.811 165.411 188.685  0.00  0.00    -0.045 C 
ATOM      3  C   UNL     1     148.710 164.196 188.409  0.00  0.00    -0.026 C 
ATOM      4  C   UNL     1     149.778 163.924 189.481  0.00  0.00    +0.065 C 
ATOM      5  C   UNL     1     150.847 165.017 189.531  0.00  0.00    +0.011 C 
ATOM      6  C   UNL     1     151.930 164.663 190.552  0.00  0.00    +0.111 C 
ATOM      7  C   UNL     1     152.478 163.261 190.277  0.00  0.00    +0.040 C 
ATOM      8  C   UNL     1     151.349 162.223 190.131  0.00  0.00    +0.190 C 
ATOM      9  O   UNL     1     150.400 162.675 189.156  0.00  0.00    -0.344 OA
ATOM     10  O   UNL     1     151.384 164.676 191.889  0.00  0.00    -0.458 OA
ATOM     11  C   UNL     1     151.212 165.911 192.430  0.00  0.00    +0.332 C 
ATOM     12  O   UNL     1     151.527 166.976 191.930  0.00  0.00    -0.246 OA
ATOM     13  C   UNL     1     150.541 165.753 193.731  0.00  0.00    +0.021 C 
ATOM     14  C   UNL     1     149.354 166.317 194.032  0.00  0.00    -0.066 C 
ATOM     15  C   UNL     1     148.523 167.145 193.065  0.00  0.00    -0.028 C 
ATOM     16  C   UNL     1     147.154 166.515 192.773  0.00  0.00    -0.031 C 
ATOM     17  C   UNL     1     146.496 167.130 191.568  0.00  0.00    -0.087 C 
ATOM     18  C   UNL     1     146.354 166.583 190.348  0.00  0.00    -0.085 C 
ATOM     19  H   UNL     1     147.413 164.758 190.705  0.00  0.00    +0.034 HD
ATOM     20  H   UNL     1     148.438 166.299 188.824  0.00  0.00    +0.027 HD
ATOM     21  H   UNL     1     147.215 165.609 187.784  0.00  0.00    +0.027 HD
ATOM     22  H   UNL     1     149.210 164.341 187.441  0.00  0.00    +0.029 HD
ATOM     23  H   UNL     1     148.095 163.297 188.275  0.00  0.00    +0.029 HD
ATOM     24  H   UNL     1     149.287 163.820 190.454  0.00  0.00    +0.060 HD
ATOM     25  H   UNL     1     150.392 165.978 189.782  0.00  0.00    +0.033 HD
ATOM     26  H   UNL     1     151.318 165.116 188.546  0.00  0.00    +0.033 HD
ATOM     27  H   UNL     1     152.762 165.376 190.493  0.00  0.00    +0.074 HD
ATOM     28  H   UNL     1     153.146 162.974 191.098  0.00  0.00    +0.035 HD
ATOM     29  H   UNL     1     153.060 163.299 189.349  0.00  0.00    +0.035 HD
ATOM     30  H   UNL     1     151.077 165.139 194.446  0.00  0.00    +0.069 HD
ATOM     31  H   UNL     1     148.386 168.150 193.486  0.00  0.00    +0.031 HD
ATOM     32  H   UNL     1     149.053 167.289 192.117  0.00  0.00    +0.031 HD
ATOM     33  H   UNL     1     147.252 165.429 192.662  0.00  0.00    +0.031 HD
ATOM     34  H   UNL     1     146.487 166.663 193.633  0.00  0.00    +0.031 HD
ATOM     35  H   UNL     1     146.083 168.128 191.725  0.00  0.00    +0.057 HD
ATOM     36  H   UNL     1     145.831 167.169 189.591  0.00  0.00    +0.057 HD
ENDROOT
BRANCH   8  37
ATOM     37  C   UNL     1     151.922 160.866 189.595  0.00  0.00    +0.087 C 
ATOM     38  C   UNL     1     150.857 160.011 188.900  0.00  0.00    +0.026 C 
ATOM     39  S   UNL     1     150.366 158.754 190.119  0.00  0.00    -0.066 S 
ATOM     40  C   UNL     1     151.811 158.966 191.072  0.00  0.00    +0.272 C 
ATOM     41  O   UNL     1     152.148 158.243 191.995  0.00  0.00    -0.263 OA
ATOM     42  N   UNL     1     152.527 160.032 190.619  0.00  0.00    -0.298 N 
ATOM     43  H   UNL     1     152.708 161.098 188.866  0.00  0.00    +0.056 HD
ATOM     44  H   UNL     1     149.994 160.575 188.538  0.00  0.00    +0.040 HD
ATOM     45  H   UNL     1     151.301 159.482 188.049  0.00  0.00    +0.040 HD
ATOM     46  H   UNL     1     153.404 160.239 191.076  0.00  0.00    +0.150 HD
ENDBRANCH   8  37
BRANCH   1  47
ATOM     47  C   UNL     1     145.678 164.327 189.551  0.00  0.00    -0.059 C 
ATOM     48  H   UNL     1     145.604 163.497 190.262  0.00  0.00    +0.024 HD
ATOM     49  H   UNL     1     144.730 164.875 189.580  0.00  0.00    +0.024 HD
ATOM     50  H   UNL     1     145.786 163.892 188.553  0.00  0.00    +0.024 HD
ENDBRANCH   1  47
BRANCH  14  51
ATOM     51  C   UNL     1     148.772 166.149 195.412  0.00  0.00    -0.043 C 
ATOM     52  H   UNL     1     149.224 165.311 195.952  0.00  0.00    +0.027 HD
ATOM     53  H   UNL     1     147.695 165.964 195.358  0.00  0.00    +0.027 HD
ATOM     54  H   UNL     1     148.942 167.053 196.008  0.00  0.00    +0.027 HD
ENDBRANCH  14  51
BRANCH   8  55
ATOM     55  O   UNL     1     150.704 161.989 191.378  0.00  0.00    -0.363 OA
ATOM     56  H   UNL     1     151.000 161.124 191.713  0.00  0.00    +0.213 HD
ENDBRANCH   8  55
TORSDOF 4
ENDMDL
MODEL 8
REMARK VINA RESULT:      -5.9     17.432     19.533
REMARK  Name = Latrunculin B_conf3
REMARK  4 active torsions:
REMARK  status: ('A' for Active; 'I' for Inactive)
REMARK    1  A    between atoms: C_1  and  C_2
REMARK    2  A    between atoms: C_9  and  C_11
REMARK    3  A    between atoms: C_9  and  O_17
REMARK    4  A    between atoms: C_22  and  C_27
REMARK                            x       y       z     vdW  Elec       q    Type
REMARK                         _______ _______ _______ _____ _____    ______ ____
ROOT
ATOM      1  C   UNL     1     147.633 172.271 191.519  0.00  0.00    -0.026 C 
ATOM      2  C   UNL     1     148.284 171.678 192.787  0.00  0.00    -0.045 C 
ATOM      3  C   UNL     1     149.523 170.812 192.511  0.00  0.00    -0.026 C 
ATOM      4  C   UNL     1     149.237 169.489 191.781  0.00  0.00    +0.065 C 
ATOM      5  C   UNL     1     148.435 168.509 192.639  0.00  0.00    +0.011 C 
ATOM      6  C   UNL     1     148.247 167.180 191.904  0.00  0.00    +0.111 C 
ATOM      7  C   UNL     1     149.600 166.642 191.432  0.00  0.00    +0.040 C 
ATOM      8  C   UNL     1     150.406 167.707 190.666  0.00  0.00    +0.190 C 
ATOM      9  O   UNL     1     150.502 168.900 191.455  0.00  0.00    -0.344 OA
ATOM     10  O   UNL     1     147.408 167.363 190.742  0.00  0.00    -0.458 OA
ATOM     11  C   UNL     1     146.078 167.461 191.001  0.00  0.00    +0.332 C 
ATOM     12  O   UNL     1     145.536 167.349 192.087  0.00  0.00    -0.246 OA
ATOM     13  C   UNL     1     145.385 167.764 189.737  0.00  0.00    +0.021 C 
ATOM     14  C   UNL     1     144.629 168.863 189.545  0.00  0.00    -0.066 C 
ATOM     15  C   UNL     1     144.428 169.963 190.576  0.00  0.00    -0.028 C 
ATOM     16  C   UNL     1     144.964 171.322 190.102  0.00  0.00    -0.031 C 
ATOM     17  C   UNL     1     145.091 172.303 191.236  0.00  0.00    -0.087 C 
ATOM     18  C   UNL     1     146.222 172.723 191.828  0.00  0.00    -0.085 C 
ATOM     19  H   UNL     1     147.607 171.502 190.744  0.00  0.00    +0.034 HD
ATOM     20  H   UNL     1     147.551 171.089 193.349  0.00  0.00    +0.027 HD
ATOM     21  H   UNL     1     148.581 172.497 193.457  0.00  0.00    +0.027 HD
ATOM     22  H   UNL     1     150.016 170.587 193.467  0.00  0.00    +0.029 HD
ATOM     23  H   UNL     1     150.264 171.386 191.942  0.00  0.00    +0.029 HD
ATOM     24  H   UNL     1     148.709 169.705 190.846  0.00  0.00    +0.060 HD
ATOM     25  H   UNL     1     147.463 168.939 192.894  0.00  0.00    +0.033 HD
ATOM     26  H   UNL     1     148.973 168.315 193.575  0.00  0.00    +0.033 HD
ATOM     27  H   UNL     1     147.790 166.435 192.567  0.00  0.00    +0.074 HD
ATOM     28  H   UNL     1     149.429 165.768 190.791  0.00  0.00    +0.035 HD
ATOM     29  H   UNL     1     150.165 166.322 192.316  0.00  0.00    +0.035 HD
ATOM     30  H   UNL     1     145.527 167.026 188.955  0.00  0.00    +0.069 HD
ATOM     31  H   UNL     1     143.357 170.045 190.802  0.00  0.00    +0.031 HD
ATOM     32  H   UNL     1     144.914 169.705 191.523  0.00  0.00    +0.031 HD
ATOM     33  H   UNL     1     145.917 171.193 189.579  0.00  0.00    +0.031 HD
ATOM     34  H   UNL     1     144.277 171.751 189.360  0.00  0.00    +0.031 HD
ATOM     35  H   UNL     1     144.149 172.719 191.595  0.00  0.00    +0.057 HD
ATOM     36  H   UNL     1     146.129 173.456 192.629  0.00  0.00    +0.057 HD
ENDROOT
BRANCH   8  37
ATOM     37  C   UNL     1     151.875 167.214 190.429  0.00  0.00    +0.087 C 
ATOM     38  C   UNL     1     152.258 167.195 188.946  0.00  0.00    +0.026 C 
ATOM     39  S   UNL     1     152.115 165.458 188.427  0.00  0.00    -0.066 S 
ATOM     40  C   UNL     1     152.196 164.855 190.060  0.00  0.00    +0.272 C 
ATOM     41  O   UNL     1     152.313 163.680 190.363  0.00  0.00    -0.263 OA
ATOM     42  N   UNL     1     152.145 165.885 190.950  0.00  0.00    -0.298 N 
ATOM     43  H   UNL     1     152.549 167.905 190.951  0.00  0.00    +0.056 HD
ATOM     44  H   UNL     1     151.651 167.851 188.317  0.00  0.00    +0.040 HD
ATOM     45  H   UNL     1     153.308 167.484 188.828  0.00  0.00    +0.040 HD
ATOM     46  H   UNL     1     152.214 165.662 191.933  0.00  0.00    +0.150 HD
ENDBRANCH   8  37
BRANCH   1  47
ATOM     47  C   UNL     1     148.439 173.448 190.966  0.00  0.00    -0.059 C 
ATOM     48  H   UNL     1     147.934 174.399 191.170  0.00  0.00    +0.024 HD
ATOM     49  H   UNL     1     149.437 173.499 191.413  0.00  0.00    +0.024 HD
ATOM     50  H   UNL     1     148.560 173.370 189.881  0.00  0.00    +0.024 HD
ENDBRANCH   1  47
BRANCH  14  51
ATOM     51  C   UNL     1     143.908 169.059 188.236  0.00  0.00    -0.043 C 
ATOM     52  H   UNL     1     144.385 169.823 187.613  0.00  0.00    +0.027 HD
ATOM     53  H   UNL     1     142.873 169.370 188.406  0.00  0.00    +0.027 HD
ATOM     54  H   UNL     1     143.903 168.126 187.663  0.00  0.00    +0.027 HD
ENDBRANCH  14  51
BRANCH   8  55
ATOM     55  O   UNL     1     149.808 167.993 189.407  0.00  0.00    -0.363 OA
ATOM     56  H   UNL     1     149.036 167.411 189.300  0.00  0.00    +0.213 HD
ENDBRANCH   8  55
TORSDOF 4
ENDMDL
MODEL 9
REMARK VINA RESULT:      -5.8     17.184     19.260
REMARK  Name = Latrunculin B_conf3
REMARK  4 active torsions:
REMARK  status: ('A' for Active; 'I' for Inactive)
REMARK    1  A    between atoms: C_1  and  C_2
REMARK    2  A    between atoms: C_9  and  C_11
REMARK    3  A    between atoms: C_9  and  O_17
REMARK    4  A    between atoms: C_22  and  C_27
REMARK                            x       y       z     vdW  Elec       q    Type
REMARK                         _______ _______ _______ _____ _____    ______ ____
ROOT
ATOM      1  C   UNL     1     154.358 163.080 189.094  0.00  0.00    -0.026 C 
ATOM      2  C   UNL     1     153.642 164.353 188.594  0.00  0.00    -0.045 C 
ATOM      3  C   UNL     1     153.129 165.267 189.718  0.00  0.00    -0.026 C 
ATOM      4  C   UNL     1     151.974 164.684 190.549  0.00  0.00    +0.065 C 
ATOM      5  C   UNL     1     150.684 164.542 189.739  0.00  0.00    +0.011 C 
ATOM      6  C   UNL     1     149.544 164.038 190.626  0.00  0.00    +0.111 C 
ATOM      7  C   UNL     1     149.412 164.923 191.868  0.00  0.00    +0.040 C 
ATOM      8  C   UNL     1     150.763 165.116 192.582  0.00  0.00    +0.190 C 
ATOM      9  O   UNL     1     151.743 165.580 191.644  0.00  0.00    -0.344 OA
ATOM     10  O   UNL     1     149.808 162.688 191.065  0.00  0.00    -0.458 OA
ATOM     11  C   UNL     1     149.573 161.724 190.137  0.00  0.00    +0.332 C 
ATOM     12  O   UNL     1     149.113 161.883 189.020  0.00  0.00    -0.246 OA
ATOM     13  C   UNL     1     150.004 160.432 190.698  0.00  0.00    +0.021 C 
ATOM     14  C   UNL     1     150.941 159.647 190.130  0.00  0.00    -0.066 C 
ATOM     15  C   UNL     1     151.717 160.003 188.872  0.00  0.00    -0.028 C 
ATOM     16  C   UNL     1     153.227 160.120 189.123  0.00  0.00    -0.031 C 
ATOM     17  C   UNL     1     153.935 160.811 187.988  0.00  0.00    -0.087 C 
ATOM     18  C   UNL     1     154.433 162.060 187.978  0.00  0.00    -0.085 C 
ATOM     19  H   UNL     1     153.794 162.662 189.929  0.00  0.00    +0.034 HD
ATOM     20  H   UNL     1     152.805 164.084 187.939  0.00  0.00    +0.027 HD
ATOM     21  H   UNL     1     154.333 164.933 187.968  0.00  0.00    +0.027 HD
ATOM     22  H   UNL     1     152.801 166.218 189.276  0.00  0.00    +0.029 HD
ATOM     23  H   UNL     1     153.955 165.538 190.387  0.00  0.00    +0.029 HD
ATOM     24  H   UNL     1     152.282 163.717 190.958  0.00  0.00    +0.060 HD
ATOM     25  H   UNL     1     150.840 163.858 188.901  0.00  0.00    +0.033 HD
ATOM     26  H   UNL     1     150.399 165.518 189.327  0.00  0.00    +0.033 HD
ATOM     27  H   UNL     1     148.593 164.063 190.081  0.00  0.00    +0.074 HD
ATOM     28  H   UNL     1     148.688 164.465 192.553  0.00  0.00    +0.035 HD
ATOM     29  H   UNL     1     149.024 165.899 191.550  0.00  0.00    +0.035 HD
ATOM     30  H   UNL     1     149.505 160.149 191.617  0.00  0.00    +0.069 HD
ATOM     31  H   UNL     1     151.527 159.236 188.109  0.00  0.00    +0.031 HD
ATOM     32  H   UNL     1     151.358 160.945 188.443  0.00  0.00    +0.031 HD
ATOM     33  H   UNL     1     153.416 160.626 190.076  0.00  0.00    +0.031 HD
ATOM     34  H   UNL     1     153.663 159.118 189.231  0.00  0.00    +0.031 HD
ATOM     35  H   UNL     1     154.059 160.210 187.087  0.00  0.00    +0.057 HD
ATOM     36  H   UNL     1     154.933 162.394 187.069  0.00  0.00    +0.057 HD
ENDROOT
BRANCH   8  37
ATOM     37  C   UNL     1     150.644 166.226 193.683  0.00  0.00    +0.087 C 
ATOM     38  C   UNL     1     151.583 165.982 194.868  0.00  0.00    +0.026 C 
ATOM     39  S   UNL     1     150.542 165.267 196.177  0.00  0.00    -0.066 S 
ATOM     40  C   UNL     1     149.063 165.847 195.460  0.00  0.00    +0.272 C 
ATOM     41  O   UNL     1     147.969 165.810 195.997  0.00  0.00    -0.263 OA
ATOM     42  N   UNL     1     149.307 166.378 194.230  0.00  0.00    -0.298 N 
ATOM     43  H   UNL     1     150.912 167.185 193.222  0.00  0.00    +0.056 HD
ATOM     44  H   UNL     1     152.437 165.339 194.641  0.00  0.00    +0.040 HD
ATOM     45  H   UNL     1     151.967 166.938 195.243  0.00  0.00    +0.040 HD
ATOM     46  H   UNL     1     148.528 166.776 193.725  0.00  0.00    +0.150 HD
ENDBRANCH   8  37
BRANCH   1  47
ATOM     47  C   UNL     1     155.768 163.386 189.603  0.00  0.00    -0.059 C 
ATOM     48  H   UNL     1     156.194 162.519 190.121  0.00  0.00    +0.024 HD
ATOM     49  H   UNL     1     156.444 163.650 188.783  0.00  0.00    +0.024 HD
ATOM     50  H   UNL     1     155.760 164.218 190.314  0.00  0.00    +0.024 HD
ENDBRANCH   1  47
BRANCH  14  51
ATOM     51  C   UNL     1     151.274 158.311 190.744  0.00  0.00    -0.043 C 
ATOM     52  H   UNL     1     152.344 158.084 190.682  0.00  0.00    +0.027 HD
ATOM     53  H   UNL     1     150.735 157.506 190.236  0.00  0.00    +0.027 HD
ATOM     54  H   UNL     1     150.998 158.302 191.804  0.00  0.00    +0.027 HD
ENDBRANCH  14  51
BRANCH   8  55
ATOM     55  O   UNL     1     151.196 163.907 193.193  0.00  0.00    -0.363 OA
ATOM     56  H   UNL     1     150.512 163.231 193.042  0.00  0.00    +0.213 HD
ENDBRANCH   8  55
TORSDOF 4
ENDMDL
MODEL 10
REMARK VINA RESULT:      -5.7     18.875     20.737
REMARK  Name = Latrunculin B_conf3
REMARK  4 active torsions:
REMARK  status: ('A' for Active; 'I' for Inactive)
REMARK    1  A    between atoms: C_1  and  C_2
REMARK    2  A    between atoms: C_9  and  C_11
REMARK    3  A    between atoms: C_9  and  O_17
REMARK    4  A    between atoms: C_22  and  C_27
REMARK                            x       y       z     vdW  Elec       q    Type
REMARK                         _______ _______ _______ _____ _____    ______ ____
ROOT
ATOM      1  C   UNL     1     147.711 165.312 190.542  0.00  0.00    -0.026 C 
ATOM      2  C   UNL     1     148.094 166.278 189.400  0.00  0.00    -0.045 C 
ATOM      3  C   UNL     1     149.287 165.808 188.553  0.00  0.00    -0.026 C 
ATOM      4  C   UNL     1     150.638 165.801 189.287  0.00  0.00    +0.065 C 
ATOM      5  C   UNL     1     151.122 167.210 189.636  0.00  0.00    +0.011 C 
ATOM      6  C   UNL     1     152.504 167.158 190.289  0.00  0.00    +0.111 C 
ATOM      7  C   UNL     1     153.473 166.360 189.412  0.00  0.00    +0.040 C 
ATOM      8  C   UNL     1     152.887 164.995 189.006  0.00  0.00    +0.190 C 
ATOM      9  O   UNL     1     151.593 165.180 188.418  0.00  0.00    -0.344 OA
ATOM     10  O   UNL     1     152.428 166.508 191.577  0.00  0.00    -0.458 OA
ATOM     11  C   UNL     1     151.931 167.278 192.581  0.00  0.00    +0.332 C 
ATOM     12  O   UNL     1     151.612 168.452 192.512  0.00  0.00    -0.246 OA
ATOM     13  C   UNL     1     151.807 166.437 193.784  0.00  0.00    +0.021 C 
ATOM     14  C   UNL     1     150.642 166.225 194.430  0.00  0.00    -0.066 C 
ATOM     15  C   UNL     1     149.297 166.774 193.983  0.00  0.00    -0.028 C 
ATOM     16  C   UNL     1     148.292 165.666 193.636  0.00  0.00    -0.031 C 
ATOM     17  C   UNL     1     147.112 166.196 192.867  0.00  0.00    -0.087 C 
ATOM     18  C   UNL     1     146.852 166.033 191.558  0.00  0.00    -0.085 C 
ATOM     19  H   UNL     1     148.624 164.958 191.025  0.00  0.00    +0.034 HD
ATOM     20  H   UNL     1     148.308 167.274 189.802  0.00  0.00    +0.027 HD
ATOM     21  H   UNL     1     147.231 166.408 188.733  0.00  0.00    +0.027 HD
ATOM     22  H   UNL     1     149.369 166.456 187.670  0.00  0.00    +0.029 HD
ATOM     23  H   UNL     1     149.090 164.807 188.149  0.00  0.00    +0.029 HD
ATOM     24  H   UNL     1     150.550 165.189 190.191  0.00  0.00    +0.060 HD
ATOM     25  H   UNL     1     150.408 167.699 190.303  0.00  0.00    +0.033 HD
ATOM     26  H   UNL     1     151.192 167.811 188.721  0.00  0.00    +0.033 HD
ATOM     27  H   UNL     1     152.908 168.170 190.416  0.00  0.00    +0.074 HD
ATOM     28  H   UNL     1     154.411 166.217 189.961  0.00  0.00    +0.035 HD
ATOM     29  H   UNL     1     153.681 166.950 188.512  0.00  0.00    +0.035 HD
ATOM     30  H   UNL     1     152.735 165.991 194.123  0.00  0.00    +0.069 HD
ATOM     31  H   UNL     1     148.888 167.406 194.783  0.00  0.00    +0.031 HD
ATOM     32  H   UNL     1     149.410 167.430 193.113  0.00  0.00    +0.031 HD
ATOM     33  H   UNL     1     148.792 164.857 193.091  0.00  0.00    +0.031 HD
ATOM     34  H   UNL     1     147.914 165.207 194.560  0.00  0.00    +0.031 HD
ATOM     35  H   UNL     1     146.392 166.762 193.458  0.00  0.00    +0.057 HD
ATOM     36  H   UNL     1     145.935 166.475 191.169  0.00  0.00    +0.057 HD
ENDROOT
BRANCH   8  37
ATOM     37  C   UNL     1     153.781 164.323 187.908  0.00  0.00    +0.087 C 
ATOM     38  C   UNL     1     154.396 163.000 188.377  0.00  0.00    +0.026 C 
ATOM     39  S   UNL     1     156.112 163.394 188.831  0.00  0.00    -0.066 S 
ATOM     40  C   UNL     1     156.126 164.874 187.910  0.00  0.00    +0.272 C 
ATOM     41  O   UNL     1     157.118 165.546 187.688  0.00  0.00    -0.263 OA
ATOM     42  N   UNL     1     154.877 165.155 187.444  0.00  0.00    -0.298 N 
ATOM     43  H   UNL     1     153.145 164.118 187.037  0.00  0.00    +0.056 HD
ATOM     44  H   UNL     1     153.863 162.525 189.204  0.00  0.00    +0.040 HD
ATOM     45  H   UNL     1     154.435 162.290 187.543  0.00  0.00    +0.040 HD
ATOM     46  H   UNL     1     154.763 165.978 186.868  0.00  0.00    +0.150 HD
ENDBRANCH   8  37
BRANCH   1  47
ATOM     47  C   UNL     1     146.965 164.083 190.019  0.00  0.00    -0.059 C 
ATOM     48  H   UNL     1     146.480 164.299 189.061  0.00  0.00    +0.024 HD
ATOM     49  H   UNL     1     147.643 163.236 189.867  0.00  0.00    +0.024 HD
ATOM     50  H   UNL     1     146.184 163.768 190.717  0.00  0.00    +0.024 HD
ENDBRANCH   1  47
BRANCH  14  51
ATOM     51  C   UNL     1     150.622 165.397 195.689  0.00  0.00    -0.043 C 
ATOM     52  H   UNL     1     150.578 164.324 195.477  0.00  0.00    +0.027 HD
ATOM     53  H   UNL     1     149.752 165.648 196.303  0.00  0.00    +0.027 HD
ATOM     54  H   UNL     1     151.529 165.578 196.276  0.00  0.00    +0.027 HD
ENDBRANCH  14  51
BRANCH   8  55
ATOM     55  O   UNL     1     152.801 164.121 190.127  0.00  0.00    -0.363 OA
ATOM     56  H   UNL     1     152.110 164.461 190.722  0.00  0.00    +0.213 HD
ENDBRANCH   8  55
TORSDOF 4
ENDMDL
