MODEL 1
REMARK VINA RESULT:      -6.3      0.000      0.000
REMARK  Name = Latrunculin B_conf2
REMARK  4 active torsions:
REMARK  status: ('A' for Active; 'I' for Inactive)
REMARK    1  A    between atoms: C_1  and  C_2
REMARK    2  A    between atoms: C_9  and  C_11
REMARK    3  A    between atoms: C_9  and  O_17
REMARK    4  A    between atoms: C_22  and  C_27
REMARK                            x       y       z     vdW  Elec       q    Type
REMARK                         _______ _______ _______ _____ _____    ______ ____
ROOT
ATOM      1  C   UNL     1     143.116 167.696 191.762  0.00  0.00    -0.026 C 
ATOM      2  C   UNL     1     143.869 166.695 190.861  0.00  0.00    -0.045 C 
ATOM      3  C   UNL     1     145.220 166.233 191.426  0.00  0.00    -0.026 C 
ATOM      4  C   UNL     1     146.304 167.322 191.480  0.00  0.00    +0.065 C 
ATOM      5  C   UNL     1     146.760 167.762 190.088  0.00  0.00    +0.011 C 
ATOM      6  C   UNL     1     147.895 168.783 190.192  0.00  0.00    +0.111 C 
ATOM      7  C   UNL     1     149.020 168.235 191.072  0.00  0.00    +0.040 C 
ATOM      8  C   UNL     1     148.488 167.703 192.414  0.00  0.00    +0.190 C 
ATOM      9  O   UNL     1     147.423 166.774 192.189  0.00  0.00    -0.344 OA
ATOM     10  O   UNL     1     147.415 170.008 190.790  0.00  0.00    -0.458 OA
ATOM     11  C   UNL     1     146.704 170.814 189.959  0.00  0.00    +0.332 C 
ATOM     12  O   UNL     1     146.494 170.635 188.772  0.00  0.00    -0.246 OA
ATOM     13  C   UNL     1     146.191 171.948 190.748  0.00  0.00    +0.021 C 
ATOM     14  C   UNL     1     144.880 172.239 190.871  0.00  0.00    -0.066 C 
ATOM     15  C   UNL     1     143.754 171.416 190.265  0.00  0.00    -0.028 C 
ATOM     16  C   UNL     1     142.820 170.821 191.329  0.00  0.00    -0.031 C 
ATOM     17  C   UNL     1     141.941 169.738 190.763  0.00  0.00    -0.087 C 
ATOM     18  C   UNL     1     142.052 168.413 190.959  0.00  0.00    -0.085 C 
ATOM     19  H   UNL     1     143.829 168.424 192.152  0.00  0.00    +0.034 HD
ATOM     20  H   UNL     1     143.241 165.807 190.706  0.00  0.00    +0.027 HD
ATOM     21  H   UNL     1     144.023 167.124 189.864  0.00  0.00    +0.027 HD
ATOM     22  H   UNL     1     145.082 165.811 192.429  0.00  0.00    +0.029 HD
ATOM     23  H   UNL     1     145.589 165.397 190.818  0.00  0.00    +0.029 HD
ATOM     24  H   UNL     1     145.925 168.176 192.050  0.00  0.00    +0.060 HD
ATOM     25  H   UNL     1     147.126 166.892 189.528  0.00  0.00    +0.033 HD
ATOM     26  H   UNL     1     145.919 168.187 189.534  0.00  0.00    +0.033 HD
ATOM     27  H   UNL     1     148.307 169.002 189.199  0.00  0.00    +0.074 HD
ATOM     28  H   UNL     1     149.753 169.031 191.247  0.00  0.00    +0.035 HD
ATOM     29  H   UNL     1     149.511 167.421 190.525  0.00  0.00    +0.035 HD
ATOM     30  H   UNL     1     146.955 172.547 191.230  0.00  0.00    +0.069 HD
ATOM     31  H   UNL     1     143.177 172.053 189.582  0.00  0.00    +0.031 HD
ATOM     32  H   UNL     1     144.151 170.601 189.651  0.00  0.00    +0.031 HD
ATOM     33  H   UNL     1     142.168 171.607 191.732  0.00  0.00    +0.031 HD
ATOM     34  H   UNL     1     143.401 170.456 192.183  0.00  0.00    +0.031 HD
ATOM     35  H   UNL     1     141.121 170.089 190.137  0.00  0.00    +0.057 HD
ATOM     36  H   UNL     1     141.312 167.770 190.481  0.00  0.00    +0.057 HD
ENDROOT
BRANCH   8  37
ATOM     37  C   UNL     1     149.607 166.927 193.174  0.00  0.00    +0.087 C 
ATOM     38  C   UNL     1     149.981 165.622 192.469  0.00  0.00    +0.026 C 
ATOM     39  S   UNL     1     150.760 164.632 193.782  0.00  0.00    -0.066 S 
ATOM     40  C   UNL     1     149.861 165.442 195.043  0.00  0.00    +0.272 C 
ATOM     41  O   UNL     1     149.779 165.059 196.196  0.00  0.00    -0.263 OA
ATOM     42  N   UNL     1     149.281 166.571 194.545  0.00  0.00    -0.298 N 
ATOM     43  H   UNL     1     150.505 167.560 193.221  0.00  0.00    +0.056 HD
ATOM     44  H   UNL     1     150.667 165.781 191.632  0.00  0.00    +0.040 HD
ATOM     45  H   UNL     1     149.105 165.071 192.111  0.00  0.00    +0.040 HD
ATOM     46  H   UNL     1     148.770 167.159 195.189  0.00  0.00    +0.150 HD
ENDBRANCH   8  37
BRANCH   1  47
ATOM     47  C   UNL     1     142.470 167.002 192.964  0.00  0.00    -0.059 C 
ATOM     48  H   UNL     1     142.469 165.915 192.839  0.00  0.00    +0.024 HD
ATOM     49  H   UNL     1     141.434 167.327 193.109  0.00  0.00    +0.024 HD
ATOM     50  H   UNL     1     143.022 167.225 193.885  0.00  0.00    +0.024 HD
ENDBRANCH   1  47
BRANCH  14  51
ATOM     51  C   UNL     1     144.451 173.458 191.648  0.00  0.00    -0.043 C 
ATOM     52  H   UNL     1     144.739 174.368 191.113  0.00  0.00    +0.027 HD
ATOM     53  H   UNL     1     144.915 173.498 192.639  0.00  0.00    +0.027 HD
ATOM     54  H   UNL     1     143.366 173.463 191.792  0.00  0.00    +0.027 HD
ENDBRANCH  14  51
BRANCH   8  55
ATOM     55  O   UNL     1     148.046 168.771 193.249  0.00  0.00    -0.363 OA
ATOM     56  H   UNL     1     148.821 169.320 193.465  0.00  0.00    +0.213 HD
ENDBRANCH   8  55
TORSDOF 4
ENDMDL
MODEL 2
REMARK VINA RESULT:      -6.3     16.356     18.364
REMARK  Name = Latrunculin B_conf2
REMARK  4 active torsions:
REMARK  status: ('A' for Active; 'I' for Inactive)
REMARK    1  A    between atoms: C_1  and  C_2
REMARK    2  A    between atoms: C_9  and  C_11
REMARK    3  A    between atoms: C_9  and  O_17
REMARK    4  A    between atoms: C_22  and  C_27
REMARK                            x       y       z     vdW  Elec       q    Type
REMARK                         _______ _______ _______ _____ _____    ______ ____
ROOT
ATOM      1  C   UNL     1     134.483 161.748 201.031  0.00  0.00    -0.026 C 
ATOM      2  C   UNL     1     135.388 162.995 200.941  0.00  0.00    -0.045 C 
ATOM      3  C   UNL     1     135.033 164.103 201.943  0.00  0.00    -0.026 C 
ATOM      4  C   UNL     1     133.687 164.802 201.684  0.00  0.00    +0.065 C 
ATOM      5  C   UNL     1     133.697 165.629 200.398  0.00  0.00    +0.011 C 
ATOM      6  C   UNL     1     132.370 166.372 200.226  0.00  0.00    +0.111 C 
ATOM      7  C   UNL     1     132.049 167.179 201.485  0.00  0.00    +0.040 C 
ATOM      8  C   UNL     1     132.164 166.323 202.759  0.00  0.00    +0.190 C 
ATOM      9  O   UNL     1     133.437 165.668 202.798  0.00  0.00    -0.344 OA
ATOM     10  O   UNL     1     131.294 165.431 200.011  0.00  0.00    -0.458 OA
ATOM     11  C   UNL     1     131.222 164.915 198.756  0.00  0.00    +0.332 C 
ATOM     12  O   UNL     1     131.922 165.213 197.804  0.00  0.00    -0.246 OA
ATOM     13  C   UNL     1     130.158 163.895 198.738  0.00  0.00    +0.021 C 
ATOM     14  C   UNL     1     130.368 162.605 198.408  0.00  0.00    -0.066 C 
ATOM     15  C   UNL     1     131.726 162.013 198.063  0.00  0.00    -0.028 C 
ATOM     16  C   UNL     1     132.159 160.916 199.046  0.00  0.00    -0.031 C 
ATOM     17  C   UNL     1     133.623 160.592 198.917  0.00  0.00    -0.087 C 
ATOM     18  C   UNL     1     134.609 160.927 199.767  0.00  0.00    -0.085 C 
ATOM     19  H   UNL     1     133.448 162.072 201.152  0.00  0.00    +0.034 HD
ATOM     20  H   UNL     1     136.430 162.697 201.116  0.00  0.00    +0.027 HD
ATOM     21  H   UNL     1     135.365 163.407 199.926  0.00  0.00    +0.027 HD
ATOM     22  H   UNL     1     135.041 163.703 202.964  0.00  0.00    +0.029 HD
ATOM     23  H   UNL     1     135.831 164.858 201.931  0.00  0.00    +0.029 HD
ATOM     24  H   UNL     1     132.894 164.049 201.652  0.00  0.00    +0.060 HD
ATOM     25  H   UNL     1     134.505 166.371 200.443  0.00  0.00    +0.033 HD
ATOM     26  H   UNL     1     133.884 164.983 199.536  0.00  0.00    +0.033 HD
ATOM     27  H   UNL     1     132.422 167.062 199.375  0.00  0.00    +0.074 HD
ATOM     28  H   UNL     1     131.034 167.586 201.396  0.00  0.00    +0.035 HD
ATOM     29  H   UNL     1     132.757 168.015 201.541  0.00  0.00    +0.035 HD
ATOM     30  H   UNL     1     129.176 164.261 199.013  0.00  0.00    +0.069 HD
ATOM     31  H   UNL     1     131.685 161.603 197.045  0.00  0.00    +0.031 HD
ATOM     32  H   UNL     1     132.498 162.790 198.041  0.00  0.00    +0.031 HD
ATOM     33  H   UNL     1     131.592 159.996 198.847  0.00  0.00    +0.031 HD
ATOM     34  H   UNL     1     131.903 161.202 200.071  0.00  0.00    +0.031 HD
ATOM     35  H   UNL     1     133.892 160.008 198.037  0.00  0.00    +0.057 HD
ATOM     36  H   UNL     1     135.618 160.592 199.524  0.00  0.00    +0.057 HD
ENDROOT
BRANCH   8  37
ATOM     37  C   UNL     1     132.084 167.223 204.029  0.00  0.00    +0.087 C 
ATOM     38  C   UNL     1     130.780 167.010 204.802  0.00  0.00    +0.026 C 
ATOM     39  S   UNL     1     130.616 168.527 205.792  0.00  0.00    -0.066 S 
ATOM     40  C   UNL     1     131.533 169.476 204.646  0.00  0.00    +0.272 C 
ATOM     41  O   UNL     1     131.594 170.692 204.640  0.00  0.00    -0.263 OA
ATOM     42  N   UNL     1     132.178 168.650 203.774  0.00  0.00    -0.298 N 
ATOM     43  H   UNL     1     132.922 166.969 204.695  0.00  0.00    +0.056 HD
ATOM     44  H   UNL     1     130.814 166.122 205.440  0.00  0.00    +0.040 HD
ATOM     45  H   UNL     1     129.908 166.944 204.144  0.00  0.00    +0.040 HD
ATOM     46  H   UNL     1     132.785 169.076 203.088  0.00  0.00    +0.150 HD
ENDBRANCH   8  37
BRANCH   1  47
ATOM     47  C   UNL     1     134.833 160.881 202.243  0.00  0.00    -0.059 C 
ATOM     48  H   UNL     1     134.805 161.465 203.169  0.00  0.00    +0.024 HD
ATOM     49  H   UNL     1     135.833 160.443 202.150  0.00  0.00    +0.024 HD
ATOM     50  H   UNL     1     134.117 160.058 202.354  0.00  0.00    +0.024 HD
ENDBRANCH   1  47
BRANCH  14  51
ATOM     51  C   UNL     1     129.207 161.644 198.357  0.00  0.00    -0.043 C 
ATOM     52  H   UNL     1     129.260 160.942 199.195  0.00  0.00    +0.027 HD
ATOM     53  H   UNL     1     129.201 161.056 197.434  0.00  0.00    +0.027 HD
ATOM     54  H   UNL     1     128.256 162.184 198.411  0.00  0.00    +0.027 HD
ENDBRANCH  14  51
BRANCH   8  55
ATOM     55  O   UNL     1     131.111 165.364 202.828  0.00  0.00    -0.363 OA
ATOM     56  H   UNL     1     131.320 164.745 203.551  0.00  0.00    +0.213 HD
ENDBRANCH   8  55
TORSDOF 4
ENDMDL
MODEL 3
REMARK VINA RESULT:      -6.3      3.018      4.935
REMARK  Name = Latrunculin B_conf2
REMARK  4 active torsions:
REMARK  status: ('A' for Active; 'I' for Inactive)
REMARK    1  A    between atoms: C_1  and  C_2
REMARK    2  A    between atoms: C_9  and  C_11
REMARK    3  A    between atoms: C_9  and  O_17
REMARK    4  A    between atoms: C_22  and  C_27
REMARK                            x       y       z     vdW  Elec       q    Type
REMARK                         _______ _______ _______ _____ _____    ______ ____
ROOT
ATOM      1  C   UNL     1     147.717 172.284 191.603  0.00  0.00    -0.026 C 
ATOM      2  C   UNL     1     148.332 171.375 192.688  0.00  0.00    -0.045 C 
ATOM      3  C   UNL     1     149.311 170.323 192.146  0.00  0.00    -0.026 C 
ATOM      4  C   UNL     1     148.667 169.221 191.290  0.00  0.00    +0.065 C 
ATOM      5  C   UNL     1     147.752 168.306 192.107  0.00  0.00    +0.011 C 
ATOM      6  C   UNL     1     147.201 167.177 191.232  0.00  0.00    +0.111 C 
ATOM      7  C   UNL     1     148.347 166.447 190.528  0.00  0.00    +0.040 C 
ATOM      8  C   UNL     1     149.298 167.426 189.817  0.00  0.00    +0.190 C 
ATOM      9  O   UNL     1     149.731 168.442 190.729  0.00  0.00    -0.344 OA
ATOM     10  O   UNL     1     146.321 167.712 190.218  0.00  0.00    -0.458 OA
ATOM     11  C   UNL     1     145.078 168.045 190.654  0.00  0.00    +0.332 C 
ATOM     12  O   UNL     1     144.628 167.879 191.774  0.00  0.00    -0.246 OA
ATOM     13  C   UNL     1     144.355 168.680 189.537  0.00  0.00    +0.021 C 
ATOM     14  C   UNL     1     143.852 169.930 189.589  0.00  0.00    -0.066 C 
ATOM     15  C   UNL     1     144.003 170.871 190.774  0.00  0.00    -0.028 C 
ATOM     16  C   UNL     1     144.782 172.146 190.419  0.00  0.00    -0.031 C 
ATOM     17  C   UNL     1     145.232 172.890 191.648  0.00  0.00    -0.087 C 
ATOM     18  C   UNL     1     146.479 172.966 192.143  0.00  0.00    -0.085 C 
ATOM     19  H   UNL     1     147.448 171.672 190.741  0.00  0.00    +0.034 HD
ATOM     20  H   UNL     1     148.867 171.997 193.419  0.00  0.00    +0.027 HD
ATOM     21  H   UNL     1     147.539 170.872 193.254  0.00  0.00    +0.027 HD
ATOM     22  H   UNL     1     150.105 170.812 191.569  0.00  0.00    +0.029 HD
ATOM     23  H   UNL     1     149.829 169.854 192.994  0.00  0.00    +0.029 HD
ATOM     24  H   UNL     1     148.113 169.685 190.468  0.00  0.00    +0.060 HD
ATOM     25  H   UNL     1     148.321 167.859 192.932  0.00  0.00    +0.033 HD
ATOM     26  H   UNL     1     146.932 168.883 192.540  0.00  0.00    +0.033 HD
ATOM     27  H   UNL     1     146.651 166.451 191.843  0.00  0.00    +0.074 HD
ATOM     28  H   UNL     1     147.924 165.741 189.803  0.00  0.00    +0.035 HD
ATOM     29  H   UNL     1     148.904 165.881 191.285  0.00  0.00    +0.035 HD
ATOM     30  H   UNL     1     144.252 168.060 188.654  0.00  0.00    +0.069 HD
ATOM     31  H   UNL     1     143.004 171.139 191.143  0.00  0.00    +0.031 HD
ATOM     32  H   UNL     1     144.506 170.373 191.609  0.00  0.00    +0.031 HD
ATOM     33  H   UNL     1     144.143 172.819 189.833  0.00  0.00    +0.031 HD
ATOM     34  H   UNL     1     145.629 171.904 189.768  0.00  0.00    +0.031 HD
ATOM     35  H   UNL     1     144.446 173.432 192.173  0.00  0.00    +0.057 HD
ATOM     36  H   UNL     1     146.629 173.569 193.040  0.00  0.00    +0.057 HD
ENDROOT
BRANCH   8  37
ATOM     37  C   UNL     1     150.580 166.684 189.331  0.00  0.00    +0.087 C 
ATOM     38  C   UNL     1     151.487 166.282 190.496  0.00  0.00    +0.026 C 
ATOM     39  S   UNL     1     153.113 166.051 189.713  0.00  0.00    -0.066 S 
ATOM     40  C   UNL     1     152.747 167.174 188.424  0.00  0.00    +0.272 C 
ATOM     41  O   UNL     1     153.566 167.637 187.651  0.00  0.00    -0.263 OA
ATOM     42  N   UNL     1     151.410 167.439 188.408  0.00  0.00    -0.298 N 
ATOM     43  H   UNL     1     150.277 165.769 188.802  0.00  0.00    +0.056 HD
ATOM     44  H   UNL     1     151.152 165.366 190.990  0.00  0.00    +0.040 HD
ATOM     45  H   UNL     1     151.587 167.075 191.243  0.00  0.00    +0.040 HD
ATOM     46  H   UNL     1     151.061 168.040 187.675  0.00  0.00    +0.150 HD
ENDBRANCH   8  37
BRANCH   1  47
ATOM     47  C   UNL     1     148.714 173.340 191.118  0.00  0.00    -0.059 C 
ATOM     48  H   UNL     1     149.642 172.876 190.767  0.00  0.00    +0.024 HD
ATOM     49  H   UNL     1     148.971 174.048 191.914  0.00  0.00    +0.024 HD
ATOM     50  H   UNL     1     148.299 173.914 190.282  0.00  0.00    +0.024 HD
ENDBRANCH   1  47
BRANCH  14  51
ATOM     51  C   UNL     1     143.072 170.474 188.420  0.00  0.00    -0.043 C 
ATOM     52  H   UNL     1     143.002 169.721 187.628  0.00  0.00    +0.027 HD
ATOM     53  H   UNL     1     143.545 171.363 187.988  0.00  0.00    +0.027 HD
ATOM     54  H   UNL     1     142.060 170.756 188.727  0.00  0.00    +0.027 HD
ENDBRANCH  14  51
BRANCH   8  55
ATOM     55  O   UNL     1     148.670 168.016 188.681  0.00  0.00    -0.363 OA
ATOM     56  H   UNL     1     148.013 167.381 188.342  0.00  0.00    +0.213 HD
ENDBRANCH   8  55
TORSDOF 4
ENDMDL
MODEL 4
REMARK VINA RESULT:      -6.0      4.512      7.803
REMARK  Name = Latrunculin B_conf2
REMARK  4 active torsions:
REMARK  status: ('A' for Active; 'I' for Inactive)
REMARK    1  A    between atoms: C_1  and  C_2
REMARK    2  A    between atoms: C_9  and  C_11
REMARK    3  A    between atoms: C_9  and  O_17
REMARK    4  A    between atoms: C_22  and  C_27
REMARK                            x       y       z     vdW  Elec       q    Type
REMARK                         _______ _______ _______ _____ _____    ______ ____
ROOT
ATOM      1  C   UNL     1     148.880 172.013 192.349  0.00  0.00    -0.026 C 
ATOM      2  C   UNL     1     148.559 173.006 191.212  0.00  0.00    -0.045 C 
ATOM      3  C   UNL     1     147.079 173.405 191.125  0.00  0.00    -0.026 C 
ATOM      4  C   UNL     1     146.130 172.276 190.690  0.00  0.00    +0.065 C 
ATOM      5  C   UNL     1     146.354 171.851 189.239  0.00  0.00    +0.011 C 
ATOM      6  C   UNL     1     145.333 170.787 188.826  0.00  0.00    +0.111 C 
ATOM      7  C   UNL     1     143.914 171.274 189.121  0.00  0.00    +0.040 C 
ATOM      8  C   UNL     1     143.776 171.796 190.563  0.00  0.00    +0.190 C 
ATOM      9  O   UNL     1     144.791 172.768 190.834  0.00  0.00    -0.344 OA
ATOM     10  O   UNL     1     145.552 169.568 189.571  0.00  0.00    -0.458 OA
ATOM     11  C   UNL     1     146.591 168.806 189.136  0.00  0.00    +0.332 C 
ATOM     12  O   UNL     1     147.294 169.019 188.165  0.00  0.00    -0.246 OA
ATOM     13  C   UNL     1     146.750 167.674 190.066  0.00  0.00    +0.021 C 
ATOM     14  C   UNL     1     147.884 167.429 190.755  0.00  0.00    -0.066 C 
ATOM     15  C   UNL     1     149.125 168.306 190.712  0.00  0.00    -0.028 C 
ATOM     16  C   UNL     1     149.468 168.911 192.080  0.00  0.00    -0.031 C 
ATOM     17  C   UNL     1     150.460 170.037 191.964  0.00  0.00    -0.087 C 
ATOM     18  C   UNL     1     150.218 171.353 192.096  0.00  0.00    -0.085 C 
ATOM     19  H   UNL     1     148.100 171.251 192.382  0.00  0.00    +0.034 HD
ATOM     20  H   UNL     1     149.153 173.919 191.354  0.00  0.00    +0.027 HD
ATOM     21  H   UNL     1     148.879 172.593 190.248  0.00  0.00    +0.027 HD
ATOM     22  H   UNL     1     146.743 173.810 192.087  0.00  0.00    +0.029 HD
ATOM     23  H   UNL     1     146.981 174.241 190.418  0.00  0.00    +0.029 HD
ATOM     24  H   UNL     1     146.255 171.425 191.366  0.00  0.00    +0.060 HD
ATOM     25  H   UNL     1     146.236 172.719 188.577  0.00  0.00    +0.033 HD
ATOM     26  H   UNL     1     147.371 171.469 189.111  0.00  0.00    +0.033 HD
ATOM     27  H   UNL     1     145.411 170.574 187.753  0.00  0.00    +0.074 HD
ATOM     28  H   UNL     1     143.213 170.448 188.952  0.00  0.00    +0.035 HD
ATOM     29  H   UNL     1     143.680 172.082 188.417  0.00  0.00    +0.035 HD
ATOM     30  H   UNL     1     145.878 167.038 190.159  0.00  0.00    +0.069 HD
ATOM     31  H   UNL     1     149.971 167.705 190.351  0.00  0.00    +0.031 HD
ATOM     32  H   UNL     1     149.006 169.119 189.988  0.00  0.00    +0.031 HD
ATOM     33  H   UNL     1     149.909 168.141 192.727  0.00  0.00    +0.031 HD
ATOM     34  H   UNL     1     148.556 169.236 192.592  0.00  0.00    +0.031 HD
ATOM     35  H   UNL     1     151.487 169.731 191.764  0.00  0.00    +0.057 HD
ATOM     36  H   UNL     1     151.065 172.033 191.996  0.00  0.00    +0.057 HD
ENDROOT
BRANCH   8  37
ATOM     37  C   UNL     1     142.405 172.514 190.754  0.00  0.00    +0.087 C 
ATOM     38  C   UNL     1     142.513 174.024 190.533  0.00  0.00    +0.026 C 
ATOM     39  S   UNL     1     141.058 174.688 191.400  0.00  0.00    -0.066 S 
ATOM     40  C   UNL     1     141.000 173.343 192.514  0.00  0.00    +0.272 C 
ATOM     41  O   UNL     1     140.337 173.311 193.534  0.00  0.00    -0.263 OA
ATOM     42  N   UNL     1     141.798 172.334 192.061  0.00  0.00    -0.298 N 
ATOM     43  H   UNL     1     141.692 172.111 190.020  0.00  0.00    +0.056 HD
ATOM     44  H   UNL     1     142.500 174.294 189.473  0.00  0.00    +0.040 HD
ATOM     45  H   UNL     1     143.404 174.454 191.000  0.00  0.00    +0.040 HD
ATOM     46  H   UNL     1     141.815 171.475 192.593  0.00  0.00    +0.150 HD
ENDBRANCH   8  37
BRANCH   1  47
ATOM     47  C   UNL     1     148.899 172.703 193.715  0.00  0.00    -0.059 C 
ATOM     48  H   UNL     1     148.219 173.561 193.734  0.00  0.00    +0.024 HD
ATOM     49  H   UNL     1     149.902 173.062 193.972  0.00  0.00    +0.024 HD
ATOM     50  H   UNL     1     148.578 172.015 194.505  0.00  0.00    +0.024 HD
ENDBRANCH   1  47
BRANCH  14  51
ATOM     51  C   UNL     1     147.977 166.210 191.637  0.00  0.00    -0.043 C 
ATOM     52  H   UNL     1     148.442 166.470 192.594  0.00  0.00    +0.027 HD
ATOM     53  H   UNL     1     148.582 165.418 191.182  0.00  0.00    +0.027 HD
ATOM     54  H   UNL     1     146.983 165.795 191.831  0.00  0.00    +0.027 HD
ENDBRANCH  14  51
BRANCH   8  55
ATOM     55  O   UNL     1     143.850 170.727 191.503  0.00  0.00    -0.363 OA
ATOM     56  H   UNL     1     144.097 171.106 192.366  0.00  0.00    +0.213 HD
ENDBRANCH   8  55
TORSDOF 4
ENDMDL
MODEL 5
REMARK VINA RESULT:      -6.0      4.167      7.752
REMARK  Name = Latrunculin B_conf2
REMARK  4 active torsions:
REMARK  status: ('A' for Active; 'I' for Inactive)
REMARK    1  A    between atoms: C_1  and  C_2
REMARK    2  A    between atoms: C_9  and  C_11
REMARK    3  A    between atoms: C_9  and  O_17
REMARK    4  A    between atoms: C_22  and  C_27
REMARK                            x       y       z     vdW  Elec       q    Type
REMARK                         _______ _______ _______ _____ _____    ______ ____
ROOT
ATOM      1  C   UNL     1     150.261 163.666 191.378  0.00  0.00    -0.026 C 
ATOM      2  C   UNL     1     150.896 164.344 192.610  0.00  0.00    -0.045 C 
ATOM      3  C   UNL     1     150.260 165.691 192.984  0.00  0.00    -0.026 C 
ATOM      4  C   UNL     1     150.505 166.824 191.973  0.00  0.00    +0.065 C 
ATOM      5  C   UNL     1     151.972 167.252 191.920  0.00  0.00    +0.011 C 
ATOM      6  C   UNL     1     152.153 168.435 190.966  0.00  0.00    +0.111 C 
ATOM      7  C   UNL     1     151.186 169.563 191.333  0.00  0.00    +0.040 C 
ATOM      8  C   UNL     1     149.742 169.052 191.483  0.00  0.00    +0.190 C 
ATOM      9  O   UNL     1     149.704 167.939 192.383  0.00  0.00    -0.344 OA
ATOM     10  O   UNL     1     151.872 168.030 189.607  0.00  0.00    -0.458 OA
ATOM     11  C   UNL     1     152.865 167.328 189.000  0.00  0.00    +0.332 C 
ATOM     12  O   UNL     1     153.963 167.071 189.460  0.00  0.00    -0.246 OA
ATOM     13  C   UNL     1     152.377 166.892 187.679  0.00  0.00    +0.021 C 
ATOM     14  C   UNL     1     152.304 165.600 187.299  0.00  0.00    -0.066 C 
ATOM     15  C   UNL     1     152.659 164.419 188.189  0.00  0.00    -0.028 C 
ATOM     16  C   UNL     1     151.461 163.495 188.450  0.00  0.00    -0.031 C 
ATOM     17  C   UNL     1     151.718 162.551 189.594  0.00  0.00    -0.087 C 
ATOM     18  C   UNL     1     151.196 162.609 190.832  0.00  0.00    -0.085 C 
ATOM     19  H   UNL     1     150.082 164.423 190.613  0.00  0.00    +0.034 HD
ATOM     20  H   UNL     1     150.809 163.672 193.475  0.00  0.00    +0.027 HD
ATOM     21  H   UNL     1     151.971 164.484 192.453  0.00  0.00    +0.027 HD
ATOM     22  H   UNL     1     149.181 165.567 193.134  0.00  0.00    +0.029 HD
ATOM     23  H   UNL     1     150.646 166.002 193.964  0.00  0.00    +0.029 HD
ATOM     24  H   UNL     1     150.161 166.501 190.986  0.00  0.00    +0.060 HD
ATOM     25  H   UNL     1     152.302 167.560 192.920  0.00  0.00    +0.033 HD
ATOM     26  H   UNL     1     152.598 166.413 191.605  0.00  0.00    +0.033 HD
ATOM     27  H   UNL     1     153.177 168.823 191.024  0.00  0.00    +0.074 HD
ATOM     28  H   UNL     1     151.232 170.336 190.556  0.00  0.00    +0.035 HD
ATOM     29  H   UNL     1     151.519 169.999 192.282  0.00  0.00    +0.035 HD
ATOM     30  H   UNL     1     152.077 167.698 187.019  0.00  0.00    +0.069 HD
ATOM     31  H   UNL     1     153.469 163.849 187.715  0.00  0.00    +0.031 HD
ATOM     32  H   UNL     1     153.057 164.759 189.152  0.00  0.00    +0.031 HD
ATOM     33  H   UNL     1     151.256 162.892 187.556  0.00  0.00    +0.031 HD
ATOM     34  H   UNL     1     150.555 164.087 188.619  0.00  0.00    +0.031 HD
ATOM     35  H   UNL     1     152.395 161.727 189.370  0.00  0.00    +0.057 HD
ATOM     36  H   UNL     1     151.481 161.826 191.535  0.00  0.00    +0.057 HD
ENDROOT
BRANCH   8  37
ATOM     37  C   UNL     1     148.834 170.159 192.100  0.00  0.00    +0.087 C 
ATOM     38  C   UNL     1     147.584 170.414 191.255  0.00  0.00    +0.026 C 
ATOM     39  S   UNL     1     147.056 172.079 191.763  0.00  0.00    -0.066 S 
ATOM     40  C   UNL     1     148.679 172.552 192.208  0.00  0.00    +0.272 C 
ATOM     41  O   UNL     1     149.034 173.694 192.434  0.00  0.00    -0.263 OA
ATOM     42  N   UNL     1     149.478 171.449 192.277  0.00  0.00    -0.298 N 
ATOM     43  H   UNL     1     148.510 169.832 193.099  0.00  0.00    +0.056 HD
ATOM     44  H   UNL     1     146.799 169.676 191.438  0.00  0.00    +0.040 HD
ATOM     45  H   UNL     1     147.802 170.445 190.182  0.00  0.00    +0.040 HD
ATOM     46  H   UNL     1     150.435 171.582 192.573  0.00  0.00    +0.150 HD
ENDBRANCH   8  37
BRANCH   1  47
ATOM     47  C   UNL     1     148.909 163.030 191.714  0.00  0.00    -0.059 C 
ATOM     48  H   UNL     1     148.946 161.942 191.603  0.00  0.00    +0.024 HD
ATOM     49  H   UNL     1     148.113 163.409 191.064  0.00  0.00    +0.024 HD
ATOM     50  H   UNL     1     148.625 163.244 192.751  0.00  0.00    +0.024 HD
ENDBRANCH   1  47
BRANCH  14  51
ATOM     51  C   UNL     1     151.850 165.251 185.905  0.00  0.00    -0.043 C 
ATOM     52  H   UNL     1     151.189 166.032 185.516  0.00  0.00    +0.027 HD
ATOM     53  H   UNL     1     151.298 164.306 185.876  0.00  0.00    +0.027 HD
ATOM     54  H   UNL     1     152.708 165.151 185.233  0.00  0.00    +0.027 HD
ENDBRANCH  14  51
BRANCH   8  55
ATOM     55  O   UNL     1     149.194 168.685 190.219  0.00  0.00    -0.363 OA
ATOM     56  H   UNL     1     148.576 167.947 190.365  0.00  0.00    +0.213 HD
ENDBRANCH   8  55
TORSDOF 4
ENDMDL
MODEL 6
REMARK VINA RESULT:      -6.0     16.065     18.058
REMARK  Name = Latrunculin B_conf2
REMARK  4 active torsions:
REMARK  status: ('A' for Active; 'I' for Inactive)
REMARK    1  A    between atoms: C_1  and  C_2
REMARK    2  A    between atoms: C_9  and  C_11
REMARK    3  A    between atoms: C_9  and  O_17
REMARK    4  A    between atoms: C_22  and  C_27
REMARK                            x       y       z     vdW  Elec       q    Type
REMARK                         _______ _______ _______ _____ _____    ______ ____
ROOT
ATOM      1  C   UNL     1     134.678 160.964 200.720  0.00  0.00    -0.026 C 
ATOM      2  C   UNL     1     135.442 162.241 200.311  0.00  0.00    -0.045 C 
ATOM      3  C   UNL     1     134.858 163.536 200.894  0.00  0.00    -0.026 C 
ATOM      4  C   UNL     1     133.479 163.930 200.340  0.00  0.00    +0.065 C 
ATOM      5  C   UNL     1     133.534 164.329 198.865  0.00  0.00    +0.011 C 
ATOM      6  C   UNL     1     132.158 164.793 198.380  0.00  0.00    +0.111 C 
ATOM      7  C   UNL     1     131.614 165.885 199.302  0.00  0.00    +0.040 C 
ATOM      8  C   UNL     1     131.687 165.473 200.783  0.00  0.00    +0.190 C 
ATOM      9  O   UNL     1     133.013 165.045 201.111  0.00  0.00    -0.344 OA
ATOM     10  O   UNL     1     131.224 163.690 198.394  0.00  0.00    -0.458 OA
ATOM     11  C   UNL     1     131.347 162.819 197.358  0.00  0.00    +0.332 C 
ATOM     12  O   UNL     1     132.108 162.914 196.411  0.00  0.00    -0.246 OA
ATOM     13  C   UNL     1     130.414 161.701 197.584  0.00  0.00    +0.021 C 
ATOM     14  C   UNL     1     130.802 160.413 197.685  0.00  0.00    -0.066 C 
ATOM     15  C   UNL     1     132.247 159.942 197.634  0.00  0.00    -0.028 C 
ATOM     16  C   UNL     1     132.691 159.260 198.935  0.00  0.00    -0.031 C 
ATOM     17  C   UNL     1     134.188 159.121 199.014  0.00  0.00    -0.087 C 
ATOM     18  C   UNL     1     135.033 159.829 199.784  0.00  0.00    -0.085 C 
ATOM     19  H   UNL     1     133.607 161.160 200.664  0.00  0.00    +0.034 HD
ATOM     20  H   UNL     1     136.486 162.157 200.641  0.00  0.00    +0.027 HD
ATOM     21  H   UNL     1     135.483 162.324 199.219  0.00  0.00    +0.027 HD
ATOM     22  H   UNL     1     134.801 163.463 201.987  0.00  0.00    +0.029 HD
ATOM     23  H   UNL     1     135.562 164.357 200.704  0.00  0.00    +0.029 HD
ATOM     24  H   UNL     1     132.783 163.098 200.488  0.00  0.00    +0.060 HD
ATOM     25  H   UNL     1     134.244 165.156 198.733  0.00  0.00    +0.033 HD
ATOM     26  H   UNL     1     133.884 163.488 198.260  0.00  0.00    +0.033 HD
ATOM     27  H   UNL     1     132.224 165.198 197.363  0.00  0.00    +0.074 HD
ATOM     28  H   UNL     1     130.576 166.100 199.023  0.00  0.00    +0.035 HD
ATOM     29  H   UNL     1     132.213 166.790 199.146  0.00  0.00    +0.035 HD
ATOM     30  H   UNL     1     129.372 161.990 197.664  0.00  0.00    +0.069 HD
ATOM     31  H   UNL     1     132.363 159.246 196.792  0.00  0.00    +0.031 HD
ATOM     32  H   UNL     1     132.924 160.778 197.426  0.00  0.00    +0.031 HD
ATOM     33  H   UNL     1     132.257 158.253 198.993  0.00  0.00    +0.031 HD
ATOM     34  H   UNL     1     132.296 159.800 199.802  0.00  0.00    +0.031 HD
ATOM     35  H   UNL     1     134.615 158.345 198.378  0.00  0.00    +0.057 HD
ATOM     36  H   UNL     1     136.093 159.582 199.727  0.00  0.00    +0.057 HD
ENDROOT
BRANCH   8  37
ATOM     37  C   UNL     1     131.368 166.690 201.704  0.00  0.00    +0.087 C 
ATOM     38  C   UNL     1     132.286 167.881 201.419  0.00  0.00    +0.026 C 
ATOM     39  S   UNL     1     132.191 168.869 202.943  0.00  0.00    -0.066 S 
ATOM     40  C   UNL     1     131.820 167.473 203.927  0.00  0.00    +0.272 C 
ATOM     41  O   UNL     1     131.853 167.450 205.144  0.00  0.00    -0.263 OA
ATOM     42  N   UNL     1     131.475 166.424 203.128  0.00  0.00    -0.298 N 
ATOM     43  H   UNL     1     130.331 167.006 201.523  0.00  0.00    +0.056 HD
ATOM     44  H   UNL     1     131.960 168.460 200.550  0.00  0.00    +0.040 HD
ATOM     45  H   UNL     1     133.329 167.583 201.278  0.00  0.00    +0.040 HD
ATOM     46  H   UNL     1     131.190 165.566 203.579  0.00  0.00    +0.150 HD
ENDBRANCH   8  37
BRANCH   1  47
ATOM     47  C   UNL     1     134.991 160.555 202.163  0.00  0.00    -0.059 C 
ATOM     48  H   UNL     1     134.773 161.369 202.860  0.00  0.00    +0.024 HD
ATOM     49  H   UNL     1     136.044 160.278 202.284  0.00  0.00    +0.024 HD
ATOM     50  H   UNL     1     134.382 159.694 202.464  0.00  0.00    +0.024 HD
ENDBRANCH   1  47
BRANCH  14  51
ATOM     51  C   UNL     1     129.769 159.329 197.855  0.00  0.00    -0.043 C 
ATOM     52  H   UNL     1     130.214 158.454 198.339  0.00  0.00    +0.027 HD
ATOM     53  H   UNL     1     129.357 159.000 196.894  0.00  0.00    +0.027 HD
ATOM     54  H   UNL     1     128.933 159.682 198.467  0.00  0.00    +0.027 HD
ENDBRANCH  14  51
BRANCH   8  55
ATOM     55  O   UNL     1     130.747 164.440 201.074  0.00  0.00    -0.363 OA
ATOM     56  H   UNL     1     129.871 164.743 200.775  0.00  0.00    +0.213 HD
ENDBRANCH   8  55
TORSDOF 4
ENDMDL
MODEL 7
REMARK VINA RESULT:      -5.9      6.011      9.030
REMARK  Name = Latrunculin B_conf2
REMARK  4 active torsions:
REMARK  status: ('A' for Active; 'I' for Inactive)
REMARK    1  A    between atoms: C_1  and  C_2
REMARK    2  A    between atoms: C_9  and  C_11
REMARK    3  A    between atoms: C_9  and  O_17
REMARK    4  A    between atoms: C_22  and  C_27
REMARK                            x       y       z     vdW  Elec       q    Type
REMARK                         _______ _______ _______ _____ _____    ______ ____
ROOT
ATOM      1  C   UNL     1     154.379 165.745 188.723  0.00  0.00    -0.026 C 
ATOM      2  C   UNL     1     153.322 166.851 188.922  0.00  0.00    -0.045 C 
ATOM      3  C   UNL     1     152.643 166.831 190.299  0.00  0.00    -0.026 C 
ATOM      4  C   UNL     1     151.729 165.620 190.552  0.00  0.00    +0.065 C 
ATOM      5  C   UNL     1     150.483 165.634 189.665  0.00  0.00    +0.011 C 
ATOM      6  C   UNL     1     149.565 164.458 190.010  0.00  0.00    +0.111 C 
ATOM      7  C   UNL     1     149.264 164.445 191.509  0.00  0.00    +0.040 C 
ATOM      8  C   UNL     1     150.548 164.547 192.352  0.00  0.00    +0.190 C 
ATOM      9  O   UNL     1     151.328 165.669 191.927  0.00  0.00    -0.344 OA
ATOM     10  O   UNL     1     150.204 163.207 189.671  0.00  0.00    -0.458 OA
ATOM     11  C   UNL     1     150.188 162.893 188.348  0.00  0.00    +0.332 C 
ATOM     12  O   UNL     1     149.644 163.519 187.457  0.00  0.00    -0.246 OA
ATOM     13  C   UNL     1     150.976 161.662 188.160  0.00  0.00    +0.021 C 
ATOM     14  C   UNL     1     152.059 161.585 187.360  0.00  0.00    -0.066 C 
ATOM     15  C   UNL     1     152.646 162.757 186.589  0.00  0.00    -0.028 C 
ATOM     16  C   UNL     1     154.082 163.088 187.022  0.00  0.00    -0.031 C 
ATOM     17  C   UNL     1     154.520 164.440 186.526  0.00  0.00    -0.087 C 
ATOM     18  C   UNL     1     154.666 165.565 187.248  0.00  0.00    -0.085 C 
ATOM     19  H   UNL     1     153.994 164.811 189.134  0.00  0.00    +0.034 HD
ATOM     20  H   UNL     1     153.798 167.832 188.789  0.00  0.00    +0.027 HD
ATOM     21  H   UNL     1     152.555 166.787 188.141  0.00  0.00    +0.027 HD
ATOM     22  H   UNL     1     153.400 166.883 191.091  0.00  0.00    +0.029 HD
ATOM     23  H   UNL     1     152.052 167.749 190.414  0.00  0.00    +0.029 HD
ATOM     24  H   UNL     1     152.303 164.701 190.396  0.00  0.00    +0.060 HD
ATOM     25  H   UNL     1     149.927 166.566 189.825  0.00  0.00    +0.033 HD
ATOM     26  H   UNL     1     150.770 165.592 188.611  0.00  0.00    +0.033 HD
ATOM     27  H   UNL     1     148.616 164.539 189.466  0.00  0.00    +0.074 HD
ATOM     28  H   UNL     1     148.726 163.522 191.755  0.00  0.00    +0.035 HD
ATOM     29  H   UNL     1     148.613 165.299 191.732  0.00  0.00    +0.035 HD
ATOM     30  H   UNL     1     150.618 160.805 188.718  0.00  0.00    +0.069 HD
ATOM     31  H   UNL     1     152.628 162.521 185.517  0.00  0.00    +0.031 HD
ATOM     32  H   UNL     1     152.028 163.653 186.708  0.00  0.00    +0.031 HD
ATOM     33  H   UNL     1     154.774 162.340 186.614  0.00  0.00    +0.031 HD
ATOM     34  H   UNL     1     154.177 163.014 188.110  0.00  0.00    +0.031 HD
ATOM     35  H   UNL     1     154.754 164.489 185.463  0.00  0.00    +0.057 HD
ATOM     36  H   UNL     1     155.012 166.457 186.725  0.00  0.00    +0.057 HD
ENDROOT
BRANCH   8  37
ATOM     37  C   UNL     1     150.197 164.787 193.852  0.00  0.00    +0.087 C 
ATOM     38  C   UNL     1     150.500 166.222 194.290  0.00  0.00    +0.026 C 
ATOM     39  S   UNL     1     150.638 166.097 196.100  0.00  0.00    -0.066 S 
ATOM     40  C   UNL     1     151.131 164.422 196.033  0.00  0.00    +0.272 C 
ATOM     41  O   UNL     1     151.606 163.798 196.964  0.00  0.00    -0.263 OA
ATOM     42  N   UNL     1     150.891 163.919 194.788  0.00  0.00    -0.298 N 
ATOM     43  H   UNL     1     149.122 164.605 193.996  0.00  0.00    +0.056 HD
ATOM     44  H   UNL     1     149.711 166.922 194.000  0.00  0.00    +0.040 HD
ATOM     45  H   UNL     1     151.458 166.585 193.906  0.00  0.00    +0.040 HD
ATOM     46  H   UNL     1     151.089 162.941 194.632  0.00  0.00    +0.150 HD
ENDBRANCH   8  37
BRANCH   1  47
ATOM     47  C   UNL     1     155.681 166.066 189.462  0.00  0.00    -0.059 C 
ATOM     48  H   UNL     1     156.152 165.155 189.846  0.00  0.00    +0.024 HD
ATOM     49  H   UNL     1     155.508 166.739 190.309  0.00  0.00    +0.024 HD
ATOM     50  H   UNL     1     156.401 166.549 188.793  0.00  0.00    +0.024 HD
ENDBRANCH   1  47
BRANCH  14  51
ATOM     51  C   UNL     1     152.767 160.266 187.179  0.00  0.00    -0.043 C 
ATOM     52  H   UNL     1     153.146 160.177 186.156  0.00  0.00    +0.027 HD
ATOM     53  H   UNL     1     152.103 159.415 187.360  0.00  0.00    +0.027 HD
ATOM     54  H   UNL     1     153.609 160.181 187.874  0.00  0.00    +0.027 HD
ENDBRANCH  14  51
BRANCH   8  55
ATOM     55  O   UNL     1     151.315 163.348 192.263  0.00  0.00    -0.363 OA
ATOM     56  H   UNL     1     151.790 163.362 191.413  0.00  0.00    +0.213 HD
ENDBRANCH   8  55
TORSDOF 4
ENDMDL
MODEL 8
REMARK VINA RESULT:      -5.9      1.989      2.840
REMARK  Name = Latrunculin B_conf2
REMARK  4 active torsions:
REMARK  status: ('A' for Active; 'I' for Inactive)
REMARK    1  A    between atoms: C_1  and  C_2
REMARK    2  A    between atoms: C_9  and  C_11
REMARK    3  A    between atoms: C_9  and  O_17
REMARK    4  A    between atoms: C_22  and  C_27
REMARK                            x       y       z     vdW  Elec       q    Type
REMARK                         _______ _______ _______ _____ _____    ______ ____
ROOT
ATOM      1  C   UNL     1     144.391 170.136 190.272  0.00  0.00    -0.026 C 
ATOM      2  C   UNL     1     145.292 169.359 189.288  0.00  0.00    -0.045 C 
ATOM      3  C   UNL     1     145.995 168.142 189.906  0.00  0.00    -0.026 C 
ATOM      4  C   UNL     1     147.071 168.480 190.952  0.00  0.00    +0.065 C 
ATOM      5  C   UNL     1     148.284 169.178 190.337  0.00  0.00    +0.011 C 
ATOM      6  C   UNL     1     149.362 169.418 191.398  0.00  0.00    +0.111 C 
ATOM      7  C   UNL     1     149.693 168.110 192.120  0.00  0.00    +0.040 C 
ATOM      8  C   UNL     1     148.424 167.395 192.619  0.00  0.00    +0.190 C 
ATOM      9  O   UNL     1     147.490 167.244 191.545  0.00  0.00    -0.344 OA
ATOM     10  O   UNL     1     148.893 170.366 192.383  0.00  0.00    -0.458 OA
ATOM     11  C   UNL     1     148.924 171.667 191.990  0.00  0.00    +0.332 C 
ATOM     12  O   UNL     1     149.359 172.100 190.937  0.00  0.00    -0.246 OA
ATOM     13  C   UNL     1     148.307 172.482 193.051  0.00  0.00    +0.021 C 
ATOM     14  C   UNL     1     147.229 173.268 192.857  0.00  0.00    -0.066 C 
ATOM     15  C   UNL     1     146.471 173.382 191.543  0.00  0.00    -0.028 C 
ATOM     16  C   UNL     1     145.013 172.915 191.659  0.00  0.00    -0.031 C 
ATOM     17  C   UNL     1     144.384 172.694 190.310  0.00  0.00    -0.087 C 
ATOM     18  C   UNL     1     144.102 171.517 189.726  0.00  0.00    -0.085 C 
ATOM     19  H   UNL     1     144.908 170.224 191.228  0.00  0.00    +0.034 HD
ATOM     20  H   UNL     1     144.683 169.011 188.442  0.00  0.00    +0.027 HD
ATOM     21  H   UNL     1     146.043 170.029 188.854  0.00  0.00    +0.027 HD
ATOM     22  H   UNL     1     145.255 167.468 190.354  0.00  0.00    +0.029 HD
ATOM     23  H   UNL     1     146.458 167.556 189.100  0.00  0.00    +0.029 HD
ATOM     24  H   UNL     1     146.625 169.100 191.735  0.00  0.00    +0.060 HD
ATOM     25  H   UNL     1     148.711 168.547 189.547  0.00  0.00    +0.033 HD
ATOM     26  H   UNL     1     147.984 170.126 189.883  0.00  0.00    +0.033 HD
ATOM     27  H   UNL     1     150.279 169.801 190.935  0.00  0.00    +0.074 HD
ATOM     28  H   UNL     1     150.357 168.330 192.964  0.00  0.00    +0.035 HD
ATOM     29  H   UNL     1     150.225 167.460 191.415  0.00  0.00    +0.035 HD
ATOM     30  H   UNL     1     148.791 172.407 194.018  0.00  0.00    +0.069 HD
ATOM     31  H   UNL     1     146.499 174.427 191.207  0.00  0.00    +0.031 HD
ATOM     32  H   UNL     1     146.964 172.802 190.755  0.00  0.00    +0.031 HD
ATOM     33  H   UNL     1     144.421 173.675 192.186  0.00  0.00    +0.031 HD
ATOM     34  H   UNL     1     144.952 172.015 192.279  0.00  0.00    +0.031 HD
ATOM     35  H   UNL     1     144.124 173.602 189.767  0.00  0.00    +0.057 HD
ATOM     36  H   UNL     1     143.626 171.543 188.744  0.00  0.00    +0.057 HD
ENDROOT
BRANCH   8  37
ATOM     37  C   UNL     1     148.770 165.958 193.117  0.00  0.00    +0.087 C 
ATOM     38  C   UNL     1     150.256 165.808 193.449  0.00  0.00    +0.026 C 
ATOM     39  S   UNL     1     150.532 164.012 193.371  0.00  0.00    -0.066 S 
ATOM     40  C   UNL     1     149.225 163.773 192.236  0.00  0.00    +0.272 C 
ATOM     41  O   UNL     1     149.032 162.753 191.601  0.00  0.00    -0.263 OA
ATOM     42  N   UNL     1     148.450 164.893 192.183  0.00  0.00    -0.298 N 
ATOM     43  H   UNL     1     148.193 165.756 194.032  0.00  0.00    +0.056 HD
ATOM     44  H   UNL     1     150.506 166.205 194.437  0.00  0.00    +0.040 HD
ATOM     45  H   UNL     1     150.903 166.278 192.702  0.00  0.00    +0.040 HD
ATOM     46  H   UNL     1     147.628 164.867 191.596  0.00  0.00    +0.150 HD
ENDBRANCH   8  37
BRANCH   1  47
ATOM     47  C   UNL     1     143.073 169.401 190.534  0.00  0.00    -0.059 C 
ATOM     48  H   UNL     1     142.669 169.654 191.519  0.00  0.00    +0.024 HD
ATOM     49  H   UNL     1     143.203 168.314 190.491  0.00  0.00    +0.024 HD
ATOM     50  H   UNL     1     142.318 169.677 189.789  0.00  0.00    +0.024 HD
ENDBRANCH   1  47
BRANCH  14  51
ATOM     51  C   UNL     1     146.703 174.116 193.987  0.00  0.00    -0.043 C 
ATOM     52  H   UNL     1     145.689 174.460 193.762  0.00  0.00    +0.027 HD
ATOM     53  H   UNL     1     147.322 175.003 194.157  0.00  0.00    +0.027 HD
ATOM     54  H   UNL     1     146.682 173.546 194.921  0.00  0.00    +0.027 HD
ENDBRANCH  14  51
BRANCH   8  55
ATOM     55  O   UNL     1     147.827 168.107 193.700  0.00  0.00    -0.363 OA
ATOM     56  H   UNL     1     146.868 168.152 193.532  0.00  0.00    +0.213 HD
ENDBRANCH   8  55
TORSDOF 4
ENDMDL
MODEL 9
REMARK VINA RESULT:      -5.9      4.049      7.491
REMARK  Name = Latrunculin B_conf2
REMARK  4 active torsions:
REMARK  status: ('A' for Active; 'I' for Inactive)
REMARK    1  A    between atoms: C_1  and  C_2
REMARK    2  A    between atoms: C_9  and  C_11
REMARK    3  A    between atoms: C_9  and  O_17
REMARK    4  A    between atoms: C_22  and  C_27
REMARK                            x       y       z     vdW  Elec       q    Type
REMARK                         _______ _______ _______ _____ _____    ______ ____
ROOT
ATOM      1  C   UNL     1     149.100 166.928 186.812  0.00  0.00    -0.026 C 
ATOM      2  C   UNL     1     147.881 166.539 187.675  0.00  0.00    -0.045 C 
ATOM      3  C   UNL     1     147.416 167.641 188.639  0.00  0.00    -0.026 C 
ATOM      4  C   UNL     1     148.394 167.951 189.785  0.00  0.00    +0.065 C 
ATOM      5  C   UNL     1     148.517 166.794 190.777  0.00  0.00    +0.011 C 
ATOM      6  C   UNL     1     149.433 167.180 191.942  0.00  0.00    +0.111 C 
ATOM      7  C   UNL     1     148.964 168.493 192.570  0.00  0.00    +0.040 C 
ATOM      8  C   UNL     1     148.748 169.589 191.511  0.00  0.00    +0.190 C 
ATOM      9  O   UNL     1     147.893 169.106 190.470  0.00  0.00    -0.344 OA
ATOM     10  O   UNL     1     150.788 167.366 191.474  0.00  0.00    -0.458 OA
ATOM     11  C   UNL     1     151.481 166.219 191.247  0.00  0.00    +0.332 C 
ATOM     12  O   UNL     1     151.098 165.082 191.457  0.00  0.00    -0.246 OA
ATOM     13  C   UNL     1     152.786 166.579 190.666  0.00  0.00    +0.021 C 
ATOM     14  C   UNL     1     153.212 166.146 189.462  0.00  0.00    -0.066 C 
ATOM     15  C   UNL     1     152.393 165.278 188.519  0.00  0.00    -0.028 C 
ATOM     16  C   UNL     1     152.098 165.974 187.183  0.00  0.00    -0.031 C 
ATOM     17  C   UNL     1     151.011 165.274 186.412  0.00  0.00    -0.087 C 
ATOM     18  C   UNL     1     149.742 165.684 186.238  0.00  0.00    -0.085 C 
ATOM     19  H   UNL     1     149.822 167.454 187.438  0.00  0.00    +0.034 HD
ATOM     20  H   UNL     1     147.040 166.283 187.016  0.00  0.00    +0.027 HD
ATOM     21  H   UNL     1     148.097 165.628 188.245  0.00  0.00    +0.027 HD
ATOM     22  H   UNL     1     147.207 168.562 188.083  0.00  0.00    +0.029 HD
ATOM     23  H   UNL     1     146.449 167.347 189.070  0.00  0.00    +0.029 HD
ATOM     24  H   UNL     1     149.371 168.203 189.362  0.00  0.00    +0.060 HD
ATOM     25  H   UNL     1     147.527 166.548 191.182  0.00  0.00    +0.033 HD
ATOM     26  H   UNL     1     148.902 165.904 190.272  0.00  0.00    +0.033 HD
ATOM     27  H   UNL     1     149.421 166.402 192.715  0.00  0.00    +0.074 HD
ATOM     28  H   UNL     1     149.710 168.821 193.304  0.00  0.00    +0.035 HD
ATOM     29  H   UNL     1     148.020 168.300 193.093  0.00  0.00    +0.035 HD
ATOM     30  H   UNL     1     153.395 167.227 191.286  0.00  0.00    +0.069 HD
ATOM     31  H   UNL     1     152.937 164.342 188.337  0.00  0.00    +0.031 HD
ATOM     32  H   UNL     1     151.443 164.987 188.981  0.00  0.00    +0.031 HD
ATOM     33  H   UNL     1     153.002 165.978 186.560  0.00  0.00    +0.031 HD
ATOM     34  H   UNL     1     151.852 167.028 187.349  0.00  0.00    +0.031 HD
ATOM     35  H   UNL     1     151.308 164.337 185.941  0.00  0.00    +0.057 HD
ATOM     36  H   UNL     1     149.089 165.056 185.631  0.00  0.00    +0.057 HD
ENDROOT
BRANCH   8  37
ATOM     37  C   UNL     1     148.034 170.823 192.142  0.00  0.00    +0.087 C 
ATOM     38  C   UNL     1     146.803 171.247 191.339  0.00  0.00    +0.026 C 
ATOM     39  S   UNL     1     146.540 172.976 191.837  0.00  0.00    -0.066 S 
ATOM     40  C   UNL     1     148.230 173.214 192.214  0.00  0.00    +0.272 C 
ATOM     41  O   UNL     1     148.755 174.295 192.407  0.00  0.00    -0.263 OA
ATOM     42  N   UNL     1     148.864 172.008 192.273  0.00  0.00    -0.298 N 
ATOM     43  H   UNL     1     147.706 170.558 193.158  0.00  0.00    +0.056 HD
ATOM     44  H   UNL     1     145.926 170.632 191.563  0.00  0.00    +0.040 HD
ATOM     45  H   UNL     1     146.981 171.233 190.259  0.00  0.00    +0.040 HD
ATOM     46  H   UNL     1     149.840 172.005 192.532  0.00  0.00    +0.150 HD
ENDBRANCH   8  37
BRANCH   1  47
ATOM     47  C   UNL     1     148.709 167.876 185.674  0.00  0.00    -0.059 C 
ATOM     48  H   UNL     1     147.624 167.901 185.536  0.00  0.00    +0.024 HD
ATOM     49  H   UNL     1     149.163 167.573 184.724  0.00  0.00    +0.024 HD
ATOM     50  H   UNL     1     149.035 168.899 185.890  0.00  0.00    +0.024 HD
ENDBRANCH   1  47
BRANCH  14  51
ATOM     51  C   UNL     1     154.590 166.515 188.975  0.00  0.00    -0.043 C 
ATOM     52  H   UNL     1     154.745 167.596 189.062  0.00  0.00    +0.027 HD
ATOM     53  H   UNL     1     154.741 166.244 187.924  0.00  0.00    +0.027 HD
ATOM     54  H   UNL     1     155.358 166.002 189.561  0.00  0.00    +0.027 HD
ENDBRANCH  14  51
BRANCH   8  55
ATOM     55  O   UNL     1     149.991 170.027 190.967  0.00  0.00    -0.363 OA
ATOM     56  H   UNL     1     150.703 169.542 191.423  0.00  0.00    +0.213 HD
ENDBRANCH   8  55
TORSDOF 4
ENDMDL
MODEL 10
REMARK VINA RESULT:      -5.8      3.284      6.892
REMARK  Name = Latrunculin B_conf2
REMARK  4 active torsions:
REMARK  status: ('A' for Active; 'I' for Inactive)
REMARK    1  A    between atoms: C_1  and  C_2
REMARK    2  A    between atoms: C_9  and  C_11
REMARK    3  A    between atoms: C_9  and  O_17
REMARK    4  A    between atoms: C_22  and  C_27
REMARK                            x       y       z     vdW  Elec       q    Type
REMARK                         _______ _______ _______ _____ _____    ______ ____
ROOT
ATOM      1  C   UNL     1     146.444 164.513 188.992  0.00  0.00    -0.026 C 
ATOM      2  C   UNL     1     145.463 165.152 189.998  0.00  0.00    -0.045 C 
ATOM      3  C   UNL     1     145.612 166.674 190.140  0.00  0.00    -0.026 C 
ATOM      4  C   UNL     1     146.921 167.136 190.802  0.00  0.00    +0.065 C 
ATOM      5  C   UNL     1     146.999 166.744 192.278  0.00  0.00    +0.011 C 
ATOM      6  C   UNL     1     148.277 167.296 192.914  0.00  0.00    +0.111 C 
ATOM      7  C   UNL     1     148.385 168.801 192.662  0.00  0.00    +0.040 C 
ATOM      8  C   UNL     1     148.186 169.148 191.176  0.00  0.00    +0.190 C 
ATOM      9  O   UNL     1     146.971 168.564 190.692  0.00  0.00    -0.344 OA
ATOM     10  O   UNL     1     149.440 166.661 192.336  0.00  0.00    -0.458 OA
ATOM     11  C   UNL     1     149.698 165.408 192.794  0.00  0.00    +0.332 C 
ATOM     12  O   UNL     1     149.094 164.812 193.668  0.00  0.00    -0.246 OA
ATOM     13  C   UNL     1     150.831 164.863 192.025  0.00  0.00    +0.021 C 
ATOM     14  C   UNL     1     150.761 163.732 191.293  0.00  0.00    -0.066 C 
ATOM     15  C   UNL     1     149.503 162.896 191.117  0.00  0.00    -0.028 C 
ATOM     16  C   UNL     1     149.042 162.825 189.654  0.00  0.00    -0.031 C 
ATOM     17  C   UNL     1     147.632 162.312 189.532  0.00  0.00    -0.087 C 
ATOM     18  C   UNL     1     146.530 163.022 189.234  0.00  0.00    -0.085 C 
ATOM     19  H   UNL     1     147.429 164.961 189.128  0.00  0.00    +0.034 HD
ATOM     20  H   UNL     1     144.433 164.937 189.683  0.00  0.00    +0.027 HD
ATOM     21  H   UNL     1     145.574 164.685 190.983  0.00  0.00    +0.027 HD
ATOM     22  H   UNL     1     145.514 167.154 189.159  0.00  0.00    +0.029 HD
ATOM     23  H   UNL     1     144.765 167.058 190.726  0.00  0.00    +0.029 HD
ATOM     24  H   UNL     1     147.767 166.721 190.247  0.00  0.00    +0.060 HD
ATOM     25  H   UNL     1     146.137 167.158 192.816  0.00  0.00    +0.033 HD
ATOM     26  H   UNL     1     146.966 165.656 192.381  0.00  0.00    +0.033 HD
ATOM     27  H   UNL     1     148.273 167.125 193.998  0.00  0.00    +0.074 HD
ATOM     28  H   UNL     1     149.369 169.148 193.000  0.00  0.00    +0.035 HD
ATOM     29  H   UNL     1     147.613 169.301 193.260  0.00  0.00    +0.035 HD
ATOM     30  H   UNL     1     151.744 165.443 192.090  0.00  0.00    +0.069 HD
ATOM     31  H   UNL     1     149.694 161.883 191.494  0.00  0.00    +0.031 HD
ATOM     32  H   UNL     1     148.681 163.291 191.724  0.00  0.00    +0.031 HD
ATOM     33  H   UNL     1     149.697 162.146 189.092  0.00  0.00    +0.031 HD
ATOM     34  H   UNL     1     149.153 163.803 189.173  0.00  0.00    +0.031 HD
ATOM     35  H   UNL     1     147.514 161.241 189.695  0.00  0.00    +0.057 HD
ATOM     36  H   UNL     1     145.585 162.481 189.170  0.00  0.00    +0.057 HD
ENDROOT
BRANCH   8  37
ATOM     37  C   UNL     1     148.047 170.690 190.990  0.00  0.00    +0.087 C 
ATOM     38  C   UNL     1     149.278 171.442 191.501  0.00  0.00    +0.026 C 
ATOM     39  S   UNL     1     148.662 173.131 191.781  0.00  0.00    -0.066 S 
ATOM     40  C   UNL     1     147.027 172.580 192.061  0.00  0.00    +0.272 C 
ATOM     41  O   UNL     1     146.135 173.258 192.536  0.00  0.00    -0.263 OA
ATOM     42  N   UNL     1     146.900 171.285 191.654  0.00  0.00    -0.298 N 
ATOM     43  H   UNL     1     147.935 170.906 189.918  0.00  0.00    +0.056 HD
ATOM     44  H   UNL     1     150.101 171.435 190.780  0.00  0.00    +0.040 HD
ATOM     45  H   UNL     1     149.639 171.055 192.459  0.00  0.00    +0.040 HD
ATOM     46  H   UNL     1     145.985 170.861 191.717  0.00  0.00    +0.150 HD
ENDBRANCH   8  37
BRANCH   1  47
ATOM     47  C   UNL     1     146.021 164.774 187.544  0.00  0.00    -0.059 C 
ATOM     48  H   UNL     1     146.442 164.025 186.868  0.00  0.00    +0.024 HD
ATOM     49  H   UNL     1     146.349 165.762 187.200  0.00  0.00    +0.024 HD
ATOM     50  H   UNL     1     144.930 164.731 187.442  0.00  0.00    +0.024 HD
ENDBRANCH   1  47
BRANCH  14  51
ATOM     51  C   UNL     1     151.990 163.216 190.589  0.00  0.00    -0.043 C 
ATOM     52  H   UNL     1     152.724 164.019 190.471  0.00  0.00    +0.027 HD
ATOM     53  H   UNL     1     151.759 162.830 189.590  0.00  0.00    +0.027 HD
ATOM     54  H   UNL     1     152.449 162.401 191.158  0.00  0.00    +0.027 HD
ENDBRANCH  14  51
BRANCH   8  55
ATOM     55  O   UNL     1     149.293 168.706 190.394  0.00  0.00    -0.363 OA
ATOM     56  H   UNL     1     149.204 169.095 189.506  0.00  0.00    +0.213 HD
ENDBRANCH   8  55
TORSDOF 4
ENDMDL
