MODEL 1
REMARK VINA RESULT:      -5.8      0.000      0.000
REMARK  Name = Lobophorolide_conf3
REMARK  23 active torsions:
REMARK  status: ('A' for Active; 'I' for Inactive)
REMARK    1  A    between atoms: C_1  and  C_2
REMARK    2  A    between atoms: C_4  and  O_53
REMARK    3  A    between atoms: C_6  and  C_8
REMARK    4  A    between atoms: C_8  and  C_9
REMARK    5  A    between atoms: C_9  and  C_10
REMARK    6  A    between atoms: C_10  and  C_11
REMARK    7  A    between atoms: C_10  and  C_12
REMARK    8  A    between atoms: C_12  and  C_13
REMARK    9  A    between atoms: C_12  and  O_52
REMARK   10  A    between atoms: C_13  and  C_14
REMARK   11  A    between atoms: C_13  and  C_15
REMARK   12  A    between atoms: C_16  and  C_51
REMARK   13  A    between atoms: C_17  and  O_49
REMARK   14  A    between atoms: C_19  and  O_47
REMARK   15  A    between atoms: C_23  and  O_45
REMARK   16  A    between atoms: C_32  and  O_43
REMARK   17  A    between atoms: C_33  and  O_42
REMARK   18  A    between atoms: C_35  and  C_41
REMARK   19  A    between atoms: O_43  and  C_44
REMARK   20  A    between atoms: O_45  and  C_46
REMARK   21  A    between atoms: O_47  and  C_48
REMARK   22  A    between atoms: O_49  and  C_50
REMARK   23  A    between atoms: O_53  and  C_54
REMARK                            x       y       z     vdW  Elec       q    Type
REMARK                         _______ _______ _______ _____ _____    ______ ____
ROOT
ATOM      1  C   UNL     1     152.584 165.110 188.552  0.00  0.00    +0.113 C 
ATOM      2  C   UNL     1     151.751 164.402 187.434  0.00  0.00    +0.020 C 
ATOM      3  C   UNL     1     150.724 163.315 187.861  0.00  0.00    +0.067 C 
ATOM      4  C   UNL     1     151.298 162.169 188.726  0.00  0.00    +0.003 C 
ATOM      5  C   UNL     1     150.235 161.083 189.020  0.00  0.00    +0.094 C 
ATOM      6  C   UNL     1     150.874 159.745 189.406  0.00  0.00    +0.145 C 
ATOM      7  C   UNL     1     151.158 159.464 190.878  0.00  0.00    +0.083 C 
ATOM      8  O   UNL     1     150.016 158.908 190.224  0.00  0.00    -0.363 OA
ATOM      9  C   UNL     1     151.557 158.910 188.317  0.00  0.00    +0.094 C 
ATOM     10  C   UNL     1     153.079 158.831 188.517  0.00  0.00    +0.003 C 
ATOM     11  C   UNL     1     153.837 158.066 187.411  0.00  0.00    +0.065 C 
ATOM     12  C   UNL     1     153.389 156.618 187.151  0.00  0.00    -0.008 C 
ATOM     13  C   UNL     1     153.865 155.692 188.226  0.00  0.00    -0.083 C 
ATOM     14  C   UNL     1     154.913 156.031 188.991  0.00  0.00    -0.059 C 
ATOM     15  C   UNL     1     155.677 157.331 188.825  0.00  0.00    +0.080 C 
ATOM     16  O   UNL     1     155.255 158.063 187.665  0.00  0.00    -0.369 OA
ATOM     17  C   UNL     1     157.180 157.036 188.717  0.00  0.00    +0.006 C 
ATOM     18  C   UNL     1     158.132 158.250 188.615  0.00  0.00    +0.090 C 
ATOM     19  C   UNL     1     157.958 159.335 189.720  0.00  0.00    +0.100 C 
ATOM     20  C   UNL     1     156.914 160.392 189.456  0.00  0.00    -0.051 C 
ATOM     21  C   UNL     1     156.942 161.679 189.862  0.00  0.00    -0.052 C 
ATOM     22  C   UNL     1     155.893 162.585 189.400  0.00  0.00    -0.052 C 
ATOM     23  C   UNL     1     155.942 163.921 189.491  0.00  0.00    +0.023 C 
ATOM     24  C   UNL     1     154.908 164.832 188.978  0.00  0.00    +0.332 C 
ATOM     25  O   UNL     1     155.168 165.994 188.707  0.00  0.00    -0.246 OA
ATOM     26  O   UNL     1     153.682 164.244 188.935  0.00  0.00    -0.458 OA
ATOM     27  H   UNL     1     152.989 166.003 188.065  0.00  0.00    +0.074 HD
ATOM     28  H   UNL     1     151.170 165.205 186.957  0.00  0.00    +0.036 HD
ATOM     29  H   UNL     1     150.333 162.846 186.948  0.00  0.00    +0.060 HD
ATOM     30  H   UNL     1     151.663 162.557 189.684  0.00  0.00    +0.032 HD
ATOM     31  H   UNL     1     152.151 161.727 188.202  0.00  0.00    +0.032 HD
ATOM     32  H   UNL     1     149.607 160.941 188.133  0.00  0.00    +0.063 HD
ATOM     33  H   UNL     1     151.939 158.776 191.170  0.00  0.00    +0.059 HD
ATOM     34  H   UNL     1     150.991 160.255 191.601  0.00  0.00    +0.059 HD
ATOM     35  H   UNL     1     151.153 157.889 188.360  0.00  0.00    +0.063 HD
ATOM     36  H   UNL     1     153.291 158.386 189.494  0.00  0.00    +0.032 HD
ATOM     37  H   UNL     1     153.498 159.844 188.568  0.00  0.00    +0.032 HD
ATOM     38  H   UNL     1     153.709 158.623 186.474  0.00  0.00    +0.060 HD
ATOM     39  H   UNL     1     153.835 156.272 186.210  0.00  0.00    +0.033 HD
ATOM     40  H   UNL     1     152.306 156.545 187.032  0.00  0.00    +0.033 HD
ATOM     41  H   UNL     1     153.363 154.739 188.363  0.00  0.00    +0.057 HD
ATOM     42  H   UNL     1     155.236 155.363 189.785  0.00  0.00    +0.059 HD
ATOM     43  H   UNL     1     155.486 157.939 189.714  0.00  0.00    +0.064 HD
ATOM     44  H   UNL     1     157.486 156.444 189.591  0.00  0.00    +0.032 HD
ATOM     45  H   UNL     1     157.338 156.400 187.838  0.00  0.00    +0.032 HD
ATOM     46  H   UNL     1     159.142 157.840 188.769  0.00  0.00    +0.063 HD
ATOM     47  H   UNL     1     158.931 159.835 189.798  0.00  0.00    +0.066 HD
ATOM     48  H   UNL     1     156.126 160.086 188.775  0.00  0.00    +0.060 HD
ATOM     49  H   UNL     1     155.042 162.123 188.903  0.00  0.00    +0.062 HD
ATOM     50  H   UNL     1     156.796 164.442 189.906  0.00  0.00    +0.069 HD
ENDROOT
BRANCH  21  51
ATOM     51  C   UNL     1     158.006 162.233 190.776  0.00  0.00    -0.040 C 
ATOM     52  H   UNL     1     157.695 163.149 191.290  0.00  0.00    +0.028 HD
ATOM     53  H   UNL     1     158.270 161.496 191.544  0.00  0.00    +0.028 HD
ATOM     54  H   UNL     1     158.911 162.496 190.216  0.00  0.00    +0.028 HD
ENDBRANCH  21  51
BRANCH   2  55
ATOM     55  C   UNL     1     152.677 163.851 186.337  0.00  0.00    -0.057 C 
ATOM     56  H   UNL     1     153.451 164.587 186.082  0.00  0.00    +0.023 HD
ATOM     57  H   UNL     1     153.180 162.930 186.643  0.00  0.00    +0.023 HD
ATOM     58  H   UNL     1     152.111 163.639 185.424  0.00  0.00    +0.023 HD
ENDBRANCH   2  55
BRANCH   1  59
ATOM     59  C   UNL     1     151.806 165.563 189.822  0.00  0.00    +0.020 C 
ATOM     60  H   UNL     1     150.745 165.561 189.554  0.00  0.00    +0.036 HD
BRANCH  59  61
ATOM     61  C   UNL     1     151.852 164.547 190.975  0.00  0.00    -0.057 C 
ATOM     62  H   UNL     1     152.498 164.906 191.784  0.00  0.00    +0.023 HD
ATOM     63  H   UNL     1     150.857 164.406 191.411  0.00  0.00    +0.023 HD
ATOM     64  H   UNL     1     152.218 163.569 190.653  0.00  0.00    +0.023 HD
ENDBRANCH  59  61
BRANCH  59  65
ATOM     65  C   UNL     1     152.170 167.001 190.297  0.00  0.00    +0.064 C 
ATOM     66  H   UNL     1     152.926 166.962 191.087  0.00  0.00    +0.060 HD
BRANCH  65  67
ATOM     67  C   UNL     1     151.015 167.930 190.793  0.00  0.00    -0.017 C 
ATOM     68  H   UNL     1     151.163 168.914 190.344  0.00  0.00    +0.032 HD
BRANCH  67  69
ATOM     69  C   UNL     1     149.644 167.401 190.367  0.00  0.00    -0.060 C 
ATOM     70  H   UNL     1     148.931 168.210 190.184  0.00  0.00    +0.023 HD
ATOM     71  H   UNL     1     149.219 166.741 191.130  0.00  0.00    +0.023 HD
ATOM     72  H   UNL     1     149.698 166.852 189.425  0.00  0.00    +0.023 HD
ENDBRANCH  67  69
BRANCH  67  73
ATOM     73  C   UNL     1     151.105 168.116 192.333  0.00  0.00    -0.046 C 
ATOM     74  H   UNL     1     151.606 169.076 192.518  0.00  0.00    +0.027 HD
ATOM     75  H   UNL     1     150.094 168.220 192.750  0.00  0.00    +0.027 HD
BRANCH  73  76
ATOM     76  C   UNL     1     151.849 167.061 193.160  0.00  0.00    -0.026 C 
ATOM     77  H   UNL     1     152.583 166.518 192.554  0.00  0.00    +0.029 HD
ATOM     78  H   UNL     1     152.471 167.611 193.882  0.00  0.00    +0.029 HD
BRANCH  76  83
ATOM     79  C   UNL     1     148.803 166.842 194.619  0.00  0.00    +0.059 C 
ATOM     80  C   UNL     1     148.720 165.834 195.761  0.00  0.00    -0.000 C 
ATOM     81  C   UNL     1     150.111 165.483 196.301  0.00  0.00    +0.063 C 
ATOM     82  C   UNL     1     151.234 166.140 195.496  0.00  0.00    -0.000 C 
ATOM     83  C   UNL     1     151.004 166.068 193.983  0.00  0.00    +0.061 C 
ATOM     84  O   UNL     1     149.638 166.306 193.596  0.00  0.00    -0.373 OA
ATOM     85  H   UNL     1     149.212 167.800 194.963  0.00  0.00    +0.059 HD
ATOM     86  H   UNL     1     148.101 166.235 196.571  0.00  0.00    +0.032 HD
ATOM     87  H   UNL     1     148.222 164.923 195.404  0.00  0.00    +0.032 HD
ATOM     88  H   UNL     1     150.204 165.825 197.339  0.00  0.00    +0.060 HD
ATOM     89  H   UNL     1     151.302 167.189 195.805  0.00  0.00    +0.032 HD
ATOM     90  H   UNL     1     152.184 165.660 195.745  0.00  0.00    +0.032 HD
ATOM     91  H   UNL     1     151.237 165.052 193.641  0.00  0.00    +0.060 HD
BRANCH  79  92
ATOM     92  C   UNL     1     147.429 167.101 194.014  0.00  0.00    -0.039 C 
ATOM     93  H   UNL     1     146.632 166.722 194.658  0.00  0.00    +0.025 HD
ATOM     94  H   UNL     1     147.278 168.172 193.862  0.00  0.00    +0.025 HD
ATOM     95  H   UNL     1     147.340 166.627 193.028  0.00  0.00    +0.025 HD
ENDBRANCH  79  92
BRANCH  81  96
ATOM     96  O   UNL     1     150.314 164.063 196.278  0.00  0.00    -0.380 OA
BRANCH  96  97
ATOM     97  C   UNL     1     151.602 163.676 196.745  0.00  0.00    +0.037 C 
ATOM     98  H   UNL     1     152.375 164.054 196.066  0.00  0.00    +0.052 HD
ATOM     99  H   UNL     1     151.651 162.583 196.754  0.00  0.00    +0.052 HD
ATOM    100  H   UNL     1     151.785 164.040 197.761  0.00  0.00    +0.052 HD
ENDBRANCH  96  97
ENDBRANCH  81  96
ENDBRANCH  76  83
ENDBRANCH  73  76
ENDBRANCH  67  73
ENDBRANCH  65  67
BRANCH  65 101
ATOM    101  O   UNL     1     152.802 167.651 189.182  0.00  0.00    -0.391 OA
ATOM    102  H   UNL     1     153.748 167.749 189.420  0.00  0.00    +0.210 HD
ENDBRANCH  65 101
ENDBRANCH  59  65
ENDBRANCH   1  59
BRANCH  19 103
ATOM    103  O   UNL     1     157.697 158.722 190.982  0.00  0.00    -0.385 OA
ATOM    104  H   UNL     1     158.094 159.288 191.668  0.00  0.00    +0.210 HD
ENDBRANCH  19 103
BRANCH  18 105
ATOM    105  O   UNL     1     158.098 158.871 187.322  0.00  0.00    -0.377 OA
BRANCH 105 106
ATOM    106  C   UNL     1     158.561 158.034 186.273  0.00  0.00    +0.037 C 
ATOM    107  H   UNL     1     158.284 156.986 186.430  0.00  0.00    +0.052 HD
ATOM    108  H   UNL     1     158.106 158.375 185.338  0.00  0.00    +0.052 HD
ATOM    109  H   UNL     1     159.648 158.123 186.180  0.00  0.00    +0.052 HD
ENDBRANCH 105 106
ENDBRANCH  18 105
BRANCH   9 110
ATOM    110  O   UNL     1     151.304 159.467 187.018  0.00  0.00    -0.377 OA
BRANCH 110 111
ATOM    111  C   UNL     1     150.364 158.704 186.271  0.00  0.00    +0.037 C 
ATOM    112  H   UNL     1     150.619 158.724 185.208  0.00  0.00    +0.052 HD
ATOM    113  H   UNL     1     149.377 159.157 186.397  0.00  0.00    +0.052 HD
ATOM    114  H   UNL     1     150.320 157.669 186.627  0.00  0.00    +0.052 HD
ENDBRANCH 110 111
ENDBRANCH   9 110
BRANCH   5 115
ATOM    115  O   UNL     1     149.419 161.575 190.104  0.00  0.00    -0.377 OA
BRANCH 115 116
ATOM    116  C   UNL     1     148.026 161.430 189.863  0.00  0.00    +0.037 C 
ATOM    117  H   UNL     1     147.465 162.224 190.365  0.00  0.00    +0.052 HD
ATOM    118  H   UNL     1     147.805 161.442 188.793  0.00  0.00    +0.052 HD
ATOM    119  H   UNL     1     147.707 160.469 190.274  0.00  0.00    +0.052 HD
ENDBRANCH 115 116
ENDBRANCH   5 115
BRANCH   3 120
ATOM    120  O   UNL     1     149.625 163.944 188.544  0.00  0.00    -0.379 OA
BRANCH 120 121
ATOM    121  C   UNL     1     148.831 164.763 187.695  0.00  0.00    +0.037 C 
ATOM    122  H   UNL     1     149.092 165.807 187.887  0.00  0.00    +0.052 HD
ATOM    123  H   UNL     1     147.770 164.627 187.919  0.00  0.00    +0.052 HD
ATOM    124  H   UNL     1     149.025 164.545 186.642  0.00  0.00    +0.052 HD
ENDBRANCH 120 121
ENDBRANCH   3 120
TORSDOF 23
ENDMDL
MODEL 2
REMARK VINA RESULT:      -5.7      2.400      3.460
REMARK  Name = Lobophorolide_conf3
REMARK  23 active torsions:
REMARK  status: ('A' for Active; 'I' for Inactive)
REMARK    1  A    between atoms: C_1  and  C_2
REMARK    2  A    between atoms: C_4  and  O_53
REMARK    3  A    between atoms: C_6  and  C_8
REMARK    4  A    between atoms: C_8  and  C_9
REMARK    5  A    between atoms: C_9  and  C_10
REMARK    6  A    between atoms: C_10  and  C_11
REMARK    7  A    between atoms: C_10  and  C_12
REMARK    8  A    between atoms: C_12  and  C_13
REMARK    9  A    between atoms: C_12  and  O_52
REMARK   10  A    between atoms: C_13  and  C_14
REMARK   11  A    between atoms: C_13  and  C_15
REMARK   12  A    between atoms: C_16  and  C_51
REMARK   13  A    between atoms: C_17  and  O_49
REMARK   14  A    between atoms: C_19  and  O_47
REMARK   15  A    between atoms: C_23  and  O_45
REMARK   16  A    between atoms: C_32  and  O_43
REMARK   17  A    between atoms: C_33  and  O_42
REMARK   18  A    between atoms: C_35  and  C_41
REMARK   19  A    between atoms: O_43  and  C_44
REMARK   20  A    between atoms: O_45  and  C_46
REMARK   21  A    between atoms: O_47  and  C_48
REMARK   22  A    between atoms: O_49  and  C_50
REMARK   23  A    between atoms: O_53  and  C_54
REMARK                            x       y       z     vdW  Elec       q    Type
REMARK                         _______ _______ _______ _____ _____    ______ ____
ROOT
ATOM      1  C   UNL     1     152.355 165.466 188.716  0.00  0.00    +0.113 C 
ATOM      2  C   UNL     1     151.456 164.796 187.626  0.00  0.00    +0.020 C 
ATOM      3  C   UNL     1     150.428 163.721 188.082  0.00  0.00    +0.067 C 
ATOM      4  C   UNL     1     151.018 162.547 188.898  0.00  0.00    +0.003 C 
ATOM      5  C   UNL     1     149.949 161.478 189.223  0.00  0.00    +0.094 C 
ATOM      6  C   UNL     1     150.577 160.120 189.554  0.00  0.00    +0.145 C 
ATOM      7  C   UNL     1     150.924 159.806 191.005  0.00  0.00    +0.083 C 
ATOM      8  O   UNL     1     149.741 159.284 190.396  0.00  0.00    -0.363 OA
ATOM      9  C   UNL     1     151.191 159.293 188.419  0.00  0.00    +0.094 C 
ATOM     10  C   UNL     1     152.719 159.180 188.546  0.00  0.00    +0.003 C 
ATOM     11  C   UNL     1     153.409 158.421 187.392  0.00  0.00    +0.065 C 
ATOM     12  C   UNL     1     152.919 156.987 187.127  0.00  0.00    -0.008 C 
ATOM     13  C   UNL     1     153.426 156.032 188.162  0.00  0.00    -0.083 C 
ATOM     14  C   UNL     1     154.515 156.336 188.882  0.00  0.00    -0.059 C 
ATOM     15  C   UNL     1     155.297 157.623 188.704  0.00  0.00    +0.080 C 
ATOM     16  O   UNL     1     154.837 158.385 187.578  0.00  0.00    -0.369 OA
ATOM     17  C   UNL     1     156.787 157.300 188.520  0.00  0.00    +0.006 C 
ATOM     18  C   UNL     1     157.758 158.497 188.395  0.00  0.00    +0.090 C 
ATOM     19  C   UNL     1     157.658 159.564 189.527  0.00  0.00    +0.100 C 
ATOM     20  C   UNL     1     156.624 160.647 189.331  0.00  0.00    -0.051 C 
ATOM     21  C   UNL     1     156.698 161.925 189.758  0.00  0.00    -0.052 C 
ATOM     22  C   UNL     1     155.648 162.860 189.362  0.00  0.00    -0.052 C 
ATOM     23  C   UNL     1     155.729 164.193 189.475  0.00  0.00    +0.023 C 
ATOM     24  C   UNL     1     154.690 165.134 189.027  0.00  0.00    +0.332 C 
ATOM     25  O   UNL     1     154.961 166.296 188.765  0.00  0.00    -0.246 OA
ATOM     26  O   UNL     1     153.452 164.571 189.032  0.00  0.00    -0.458 OA
ATOM     27  H   UNL     1     152.755 166.359 188.227  0.00  0.00    +0.074 HD
ATOM     28  H   UNL     1     150.870 165.618 187.192  0.00  0.00    +0.036 HD
ATOM     29  H   UNL     1     149.986 163.277 187.179  0.00  0.00    +0.060 HD
ATOM     30  H   UNL     1     151.436 162.910 189.844  0.00  0.00    +0.032 HD
ATOM     31  H   UNL     1     151.837 162.099 188.327  0.00  0.00    +0.032 HD
ATOM     32  H   UNL     1     149.277 161.364 188.364  0.00  0.00    +0.063 HD
ATOM     33  H   UNL     1     151.703 159.097 191.248  0.00  0.00    +0.059 HD
ATOM     34  H   UNL     1     150.807 160.586 191.749  0.00  0.00    +0.059 HD
ATOM     35  H   UNL     1     150.769 158.279 188.463  0.00  0.00    +0.063 HD
ATOM     36  H   UNL     1     152.967 158.712 189.503  0.00  0.00    +0.032 HD
ATOM     37  H   UNL     1     153.160 160.183 188.595  0.00  0.00    +0.032 HD
ATOM     38  H   UNL     1     153.248 158.998 186.472  0.00  0.00    +0.060 HD
ATOM     39  H   UNL     1     153.314 156.650 186.161  0.00  0.00    +0.033 HD
ATOM     40  H   UNL     1     151.830 156.938 187.058  0.00  0.00    +0.033 HD
ATOM     41  H   UNL     1     152.911 155.087 188.305  0.00  0.00    +0.057 HD
ATOM     42  H   UNL     1     154.861 155.646 189.648  0.00  0.00    +0.059 HD
ATOM     43  H   UNL     1     155.160 158.218 189.612  0.00  0.00    +0.064 HD
ATOM     44  H   UNL     1     157.121 156.687 189.368  0.00  0.00    +0.032 HD
ATOM     45  H   UNL     1     156.891 156.679 187.624  0.00  0.00    +0.032 HD
ATOM     46  H   UNL     1     158.765 158.064 188.494  0.00  0.00    +0.063 HD
ATOM     47  H   UNL     1     158.643 160.044 189.567  0.00  0.00    +0.066 HD
ATOM     48  H   UNL     1     155.799 160.369 188.682  0.00  0.00    +0.060 HD
ATOM     49  H   UNL     1     154.765 162.425 188.898  0.00  0.00    +0.062 HD
ATOM     50  H   UNL     1     156.612 164.689 189.858  0.00  0.00    +0.069 HD
ENDROOT
BRANCH  21  51
ATOM     51  C   UNL     1     157.815 162.441 190.630  0.00  0.00    -0.040 C 
ATOM     52  H   UNL     1     157.736 162.106 191.670  0.00  0.00    +0.028 HD
ATOM     53  H   UNL     1     158.785 162.102 190.247  0.00  0.00    +0.028 HD
ATOM     54  H   UNL     1     157.815 163.537 190.667  0.00  0.00    +0.028 HD
ENDBRANCH  21  51
BRANCH   2  55
ATOM     55  C   UNL     1     152.319 164.247 186.478  0.00  0.00    -0.057 C 
ATOM     56  H   UNL     1     151.700 163.691 185.763  0.00  0.00    +0.023 HD
ATOM     57  H   UNL     1     152.833 165.040 185.929  0.00  0.00    +0.023 HD
ATOM     58  H   UNL     1     153.079 163.556 186.861  0.00  0.00    +0.023 HD
ENDBRANCH   2  55
BRANCH   1  59
ATOM     59  C   UNL     1     151.647 165.910 190.030  0.00  0.00    +0.020 C 
ATOM     60  H   UNL     1     150.576 165.949 189.807  0.00  0.00    +0.036 HD
BRANCH  59  61
ATOM     61  C   UNL     1     151.708 164.863 191.154  0.00  0.00    -0.057 C 
ATOM     62  H   UNL     1     151.191 163.943 190.857  0.00  0.00    +0.023 HD
ATOM     63  H   UNL     1     152.745 164.581 191.370  0.00  0.00    +0.023 HD
ATOM     64  H   UNL     1     151.259 165.224 192.082  0.00  0.00    +0.023 HD
ENDBRANCH  59  61
BRANCH  59  65
ATOM     65  C   UNL     1     152.079 167.322 190.524  0.00  0.00    +0.064 C 
ATOM     66  H   UNL     1     152.982 167.252 191.137  0.00  0.00    +0.060 HD
BRANCH  65  67
ATOM     67  C   UNL     1     151.036 168.180 191.313  0.00  0.00    -0.017 C 
ATOM     68  H   UNL     1     150.072 168.075 190.812  0.00  0.00    +0.032 HD
BRANCH  67  69
ATOM     69  C   UNL     1     150.889 167.698 192.758  0.00  0.00    -0.060 C 
ATOM     70  H   UNL     1     149.852 167.455 193.006  0.00  0.00    +0.023 HD
ATOM     71  H   UNL     1     151.237 168.457 193.466  0.00  0.00    +0.023 HD
ATOM     72  H   UNL     1     151.447 166.778 192.935  0.00  0.00    +0.023 HD
ENDBRANCH  67  69
BRANCH  67  73
ATOM     73  C   UNL     1     151.422 169.683 191.246  0.00  0.00    -0.046 C 
ATOM     74  H   UNL     1     152.484 169.760 191.518  0.00  0.00    +0.027 HD
ATOM     75  H   UNL     1     151.353 170.034 190.208  0.00  0.00    +0.027 HD
BRANCH  73  76
ATOM     76  C   UNL     1     150.664 170.680 192.131  0.00  0.00    -0.026 C 
ATOM     77  H   UNL     1     150.408 170.242 193.102  0.00  0.00    +0.029 HD
ATOM     78  H   UNL     1     151.378 171.476 192.389  0.00  0.00    +0.029 HD
BRANCH  76  83
ATOM     79  C   UNL     1     147.957 172.458 193.113  0.00  0.00    +0.059 C 
ATOM     80  C   UNL     1     146.791 172.429 192.131  0.00  0.00    -0.000 C 
ATOM     81  C   UNL     1     146.910 171.252 191.155  0.00  0.00    +0.063 C 
ATOM     82  C   UNL     1     148.213 170.472 191.336  0.00  0.00    -0.000 C 
ATOM     83  C   UNL     1     149.431 171.381 191.526  0.00  0.00    +0.061 C 
ATOM     84  O   UNL     1     149.175 172.516 192.375  0.00  0.00    -0.373 OA
ATOM     85  H   UNL     1     147.959 171.570 193.756  0.00  0.00    +0.059 HD
ATOM     86  H   UNL     1     145.843 172.360 192.676  0.00  0.00    +0.032 HD
ATOM     87  H   UNL     1     146.766 173.372 191.570  0.00  0.00    +0.032 HD
ATOM     88  H   UNL     1     146.080 170.552 191.314  0.00  0.00    +0.060 HD
ATOM     89  H   UNL     1     148.101 169.824 192.212  0.00  0.00    +0.032 HD
ATOM     90  H   UNL     1     148.370 169.827 190.467  0.00  0.00    +0.032 HD
ATOM     91  H   UNL     1     149.714 171.797 190.552  0.00  0.00    +0.060 HD
BRANCH  79  92
ATOM     92  C   UNL     1     147.892 173.691 194.005  0.00  0.00    -0.039 C 
ATOM     93  H   UNL     1     147.409 173.467 194.960  0.00  0.00    +0.025 HD
ATOM     94  H   UNL     1     148.897 174.070 194.202  0.00  0.00    +0.025 HD
ATOM     95  H   UNL     1     147.340 174.502 193.513  0.00  0.00    +0.025 HD
ENDBRANCH  79  92
BRANCH  81  96
ATOM     96  O   UNL     1     146.849 171.717 189.799  0.00  0.00    -0.380 OA
BRANCH  96  97
ATOM     97  C   UNL     1     146.135 172.941 189.661  0.00  0.00    +0.037 C 
ATOM     98  H   UNL     1     145.554 172.932 188.732  0.00  0.00    +0.052 HD
ATOM     99  H   UNL     1     146.860 173.759 189.610  0.00  0.00    +0.052 HD
ATOM    100  H   UNL     1     145.472 173.116 190.515  0.00  0.00    +0.052 HD
ENDBRANCH  96  97
ENDBRANCH  81  96
ENDBRANCH  76  83
ENDBRANCH  73  76
ENDBRANCH  67  73
ENDBRANCH  65  67
BRANCH  65 101
ATOM    101  O   UNL     1     152.457 168.066 189.354  0.00  0.00    -0.391 OA
ATOM    102  H   UNL     1     151.966 168.913 189.396  0.00  0.00    +0.210 HD
ENDBRANCH  65 101
ENDBRANCH  59  65
ENDBRANCH   1  59
BRANCH  19 103
ATOM    103  O   UNL     1     157.444 158.933 190.788  0.00  0.00    -0.385 OA
ATOM    104  H   UNL     1     156.502 158.684 190.832  0.00  0.00    +0.210 HD
ENDBRANCH  19 103
BRANCH  18 105
ATOM    105  O   UNL     1     157.676 159.144 187.117  0.00  0.00    -0.377 OA
BRANCH 105 106
ATOM    106  C   UNL     1     158.072 158.317 186.032  0.00  0.00    +0.037 C 
ATOM    107  H   UNL     1     158.934 157.690 186.285  0.00  0.00    +0.052 HD
ATOM    108  H   UNL     1     157.233 157.664 185.776  0.00  0.00    +0.052 HD
ATOM    109  H   UNL     1     158.306 158.937 185.160  0.00  0.00    +0.052 HD
ENDBRANCH 105 106
ENDBRANCH  18 105
BRANCH   9 110
ATOM    110  O   UNL     1     150.889 159.879 187.143  0.00  0.00    -0.377 OA
BRANCH 110 111
ATOM    111  C   UNL     1     149.900 159.147 186.427  0.00  0.00    +0.037 C 
ATOM    112  H   UNL     1     148.904 159.533 186.657  0.00  0.00    +0.052 HD
ATOM    113  H   UNL     1     149.948 158.104 186.746  0.00  0.00    +0.052 HD
ATOM    114  H   UNL     1     150.080 159.190 185.348  0.00  0.00    +0.052 HD
ENDBRANCH 110 111
ENDBRANCH   9 110
BRANCH   5 115
ATOM    115  O   UNL     1     149.195 161.965 190.352  0.00  0.00    -0.377 OA
BRANCH 115 116
ATOM    116  C   UNL     1     147.789 161.845 190.178  0.00  0.00    +0.037 C 
ATOM    117  H   UNL     1     147.347 162.817 189.942  0.00  0.00    +0.052 HD
ATOM    118  H   UNL     1     147.548 161.129 189.388  0.00  0.00    +0.052 HD
ATOM    119  H   UNL     1     147.358 161.488 191.116  0.00  0.00    +0.052 HD
ENDBRANCH 115 116
ENDBRANCH   5 115
BRANCH   3 120
ATOM    120  O   UNL     1     149.376 164.358 188.827  0.00  0.00    -0.379 OA
BRANCH 120 121
ATOM    121  C   UNL     1     148.495 165.123 188.014  0.00  0.00    +0.037 C 
ATOM    122  H   UNL     1     149.095 165.822 187.426  0.00  0.00    +0.052 HD
ATOM    123  H   UNL     1     147.805 165.698 188.636  0.00  0.00    +0.052 HD
ATOM    124  H   UNL     1     147.937 164.482 187.326  0.00  0.00    +0.052 HD
ENDBRANCH 120 121
ENDBRANCH   3 120
TORSDOF 23
ENDMDL
MODEL 3
REMARK VINA RESULT:      -5.7      3.934      8.313
REMARK  Name = Lobophorolide_conf3
REMARK  23 active torsions:
REMARK  status: ('A' for Active; 'I' for Inactive)
REMARK    1  A    between atoms: C_1  and  C_2
REMARK    2  A    between atoms: C_4  and  O_53
REMARK    3  A    between atoms: C_6  and  C_8
REMARK    4  A    between atoms: C_8  and  C_9
REMARK    5  A    between atoms: C_9  and  C_10
REMARK    6  A    between atoms: C_10  and  C_11
REMARK    7  A    between atoms: C_10  and  C_12
REMARK    8  A    between atoms: C_12  and  C_13
REMARK    9  A    between atoms: C_12  and  O_52
REMARK   10  A    between atoms: C_13  and  C_14
REMARK   11  A    between atoms: C_13  and  C_15
REMARK   12  A    between atoms: C_16  and  C_51
REMARK   13  A    between atoms: C_17  and  O_49
REMARK   14  A    between atoms: C_19  and  O_47
REMARK   15  A    between atoms: C_23  and  O_45
REMARK   16  A    between atoms: C_32  and  O_43
REMARK   17  A    between atoms: C_33  and  O_42
REMARK   18  A    between atoms: C_35  and  C_41
REMARK   19  A    between atoms: O_43  and  C_44
REMARK   20  A    between atoms: O_45  and  C_46
REMARK   21  A    between atoms: O_47  and  C_48
REMARK   22  A    between atoms: O_49  and  C_50
REMARK   23  A    between atoms: O_53  and  C_54
REMARK                            x       y       z     vdW  Elec       q    Type
REMARK                         _______ _______ _______ _____ _____    ______ ____
ROOT
ATOM      1  C   UNL     1     148.825 166.861 191.937  0.00  0.00    +0.113 C 
ATOM      2  C   UNL     1     149.925 165.900 192.496  0.00  0.00    +0.020 C 
ATOM      3  C   UNL     1     151.094 165.495 191.553  0.00  0.00    +0.067 C 
ATOM      4  C   UNL     1     150.668 164.880 190.200  0.00  0.00    +0.003 C 
ATOM      5  C   UNL     1     151.889 164.415 189.370  0.00  0.00    +0.094 C 
ATOM      6  C   UNL     1     151.501 163.375 188.314  0.00  0.00    +0.145 C 
ATOM      7  C   UNL     1     151.097 163.855 186.924  0.00  0.00    +0.083 C 
ATOM      8  O   UNL     1     152.404 163.338 187.178  0.00  0.00    -0.363 OA
ATOM      9  C   UNL     1     151.154 161.953 188.768  0.00  0.00    +0.094 C 
ATOM     10  C   UNL     1     149.670 161.620 188.546  0.00  0.00    +0.003 C 
ATOM     11  C   UNL     1     149.237 160.227 189.053  0.00  0.00    +0.065 C 
ATOM     12  C   UNL     1     150.009 159.024 188.486  0.00  0.00    -0.008 C 
ATOM     13  C   UNL     1     149.605 158.723 187.077  0.00  0.00    -0.083 C 
ATOM     14  C   UNL     1     148.420 159.145 186.613  0.00  0.00    -0.059 C 
ATOM     15  C   UNL     1     147.428 159.926 187.453  0.00  0.00    +0.080 C 
ATOM     16  O   UNL     1     147.831 160.011 188.828  0.00  0.00    -0.369 OA
ATOM     17  C   UNL     1     146.047 159.259 187.372  0.00  0.00    +0.006 C 
ATOM     18  C   UNL     1     144.881 159.957 188.111  0.00  0.00    +0.090 C 
ATOM     19  C   UNL     1     144.681 161.466 187.776  0.00  0.00    +0.100 C 
ATOM     20  C   UNL     1     145.505 162.442 188.580  0.00  0.00    -0.051 C 
ATOM     21  C   UNL     1     145.155 163.695 188.939  0.00  0.00    -0.052 C 
ATOM     22  C   UNL     1     146.040 164.444 189.828  0.00  0.00    -0.052 C 
ATOM     23  C   UNL     1     145.700 165.566 190.477  0.00  0.00    +0.023 C 
ATOM     24  C   UNL     1     146.577 166.289 191.411  0.00  0.00    +0.332 C 
ATOM     25  O   UNL     1     146.116 167.025 192.269  0.00  0.00    -0.246 OA
ATOM     26  O   UNL     1     147.894 166.089 191.136  0.00  0.00    -0.458 OA
ATOM     27  H   UNL     1     148.308 167.229 192.828  0.00  0.00    +0.074 HD
ATOM     28  H   UNL     1     150.380 166.442 193.337  0.00  0.00    +0.036 HD
ATOM     29  H   UNL     1     151.689 164.727 192.068  0.00  0.00    +0.060 HD
ATOM     30  H   UNL     1     150.110 165.612 189.605  0.00  0.00    +0.032 HD
ATOM     31  H   UNL     1     150.001 164.034 190.393  0.00  0.00    +0.032 HD
ATOM     32  H   UNL     1     152.641 163.985 190.041  0.00  0.00    +0.063 HD
ATOM     33  H   UNL     1     150.447 163.259 186.298  0.00  0.00    +0.059 HD
ATOM     34  H   UNL     1     151.000 164.921 186.749  0.00  0.00    +0.059 HD
ATOM     35  H   UNL     1     151.754 161.245 188.180  0.00  0.00    +0.063 HD
ATOM     36  H   UNL     1     149.433 161.723 187.483  0.00  0.00    +0.032 HD
ATOM     37  H   UNL     1     149.045 162.367 189.052  0.00  0.00    +0.032 HD
ATOM     38  H   UNL     1     149.365 160.216 190.142  0.00  0.00    +0.060 HD
ATOM     39  H   UNL     1     149.770 158.136 189.084  0.00  0.00    +0.033 HD
ATOM     40  H   UNL     1     151.090 159.168 188.554  0.00  0.00    +0.033 HD
ATOM     41  H   UNL     1     150.274 158.145 186.448  0.00  0.00    +0.057 HD
ATOM     42  H   UNL     1     148.146 158.943 185.580  0.00  0.00    +0.059 HD
ATOM     43  H   UNL     1     147.372 160.937 187.039  0.00  0.00    +0.064 HD
ATOM     44  H   UNL     1     145.762 159.165 186.315  0.00  0.00    +0.032 HD
ATOM     45  H   UNL     1     146.139 158.239 187.763  0.00  0.00    +0.032 HD
ATOM     46  H   UNL     1     143.970 159.457 187.752  0.00  0.00    +0.063 HD
ATOM     47  H   UNL     1     143.623 161.674 187.976  0.00  0.00    +0.066 HD
ATOM     48  H   UNL     1     146.420 162.027 188.991  0.00  0.00    +0.060 HD
ATOM     49  H   UNL     1     147.026 164.015 189.999  0.00  0.00    +0.062 HD
ATOM     50  H   UNL     1     144.710 165.998 190.407  0.00  0.00    +0.069 HD
ENDROOT
BRANCH  21  51
ATOM     51  C   UNL     1     143.890 164.367 188.466  0.00  0.00    -0.040 C 
ATOM     52  H   UNL     1     143.308 163.746 187.778  0.00  0.00    +0.028 HD
ATOM     53  H   UNL     1     143.245 164.607 189.320  0.00  0.00    +0.028 HD
ATOM     54  H   UNL     1     144.113 165.292 187.922  0.00  0.00    +0.028 HD
ENDBRANCH  21  51
BRANCH   2  55
ATOM     55  C   UNL     1     149.283 164.644 193.109  0.00  0.00    -0.057 C 
ATOM     56  H   UNL     1     148.759 164.065 192.339  0.00  0.00    +0.023 HD
ATOM     57  H   UNL     1     150.020 163.987 193.578  0.00  0.00    +0.023 HD
ATOM     58  H   UNL     1     148.546 164.921 193.871  0.00  0.00    +0.023 HD
ENDBRANCH   2  55
BRANCH   1  59
ATOM     59  C   UNL     1     149.322 168.092 191.123  0.00  0.00    +0.020 C 
ATOM     60  H   UNL     1     150.415 168.070 191.163  0.00  0.00    +0.036 HD
BRANCH  59  61
ATOM     61  C   UNL     1     149.049 167.991 189.613  0.00  0.00    -0.057 C 
ATOM     62  H   UNL     1     149.902 168.368 189.038  0.00  0.00    +0.023 HD
ATOM     63  H   UNL     1     148.907 166.947 189.312  0.00  0.00    +0.023 HD
ATOM     64  H   UNL     1     148.159 168.549 189.314  0.00  0.00    +0.023 HD
ENDBRANCH  59  61
BRANCH  59  65
ATOM     65  C   UNL     1     148.855 169.457 191.710  0.00  0.00    +0.064 C 
ATOM     66  H   UNL     1     148.272 170.012 190.968  0.00  0.00    +0.060 HD
BRANCH  65  67
ATOM     67  C   UNL     1     149.942 170.426 192.280  0.00  0.00    -0.017 C 
ATOM     68  H   UNL     1     150.144 170.130 193.310  0.00  0.00    +0.032 HD
BRANCH  67  69
ATOM     69  C   UNL     1     151.245 170.343 191.483  0.00  0.00    -0.060 C 
ATOM     70  H   UNL     1     151.073 170.043 190.445  0.00  0.00    +0.023 HD
ATOM     71  H   UNL     1     151.939 169.624 191.931  0.00  0.00    +0.023 HD
ATOM     72  H   UNL     1     151.742 171.312 191.420  0.00  0.00    +0.023 HD
ENDBRANCH  67  69
BRANCH  67  73
ATOM     73  C   UNL     1     149.389 171.877 192.326  0.00  0.00    -0.046 C 
ATOM     74  H   UNL     1     148.908 172.013 193.304  0.00  0.00    +0.027 HD
ATOM     75  H   UNL     1     150.224 172.590 192.300  0.00  0.00    +0.027 HD
BRANCH  73  76
ATOM     76  C   UNL     1     148.369 172.312 191.266  0.00  0.00    -0.026 C 
ATOM     77  H   UNL     1     148.712 173.194 190.715  0.00  0.00    +0.029 HD
ATOM     78  H   UNL     1     148.357 171.521 190.500  0.00  0.00    +0.029 HD
BRANCH  76  83
ATOM     79  C   UNL     1     145.268 171.167 190.540  0.00  0.00    +0.059 C 
ATOM     80  C   UNL     1     144.137 172.113 190.931  0.00  0.00    -0.000 C 
ATOM     81  C   UNL     1     144.649 173.543 191.137  0.00  0.00    +0.063 C 
ATOM     82  C   UNL     1     146.170 173.645 191.006  0.00  0.00    -0.000 C 
ATOM     83  C   UNL     1     146.907 172.503 191.714  0.00  0.00    +0.061 C 
ATOM     84  O   UNL     1     146.277 171.220 191.545  0.00  0.00    -0.373 OA
ATOM     85  H   UNL     1     145.700 171.444 189.570  0.00  0.00    +0.059 HD
ATOM     86  H   UNL     1     143.360 172.107 190.160  0.00  0.00    +0.032 HD
ATOM     87  H   UNL     1     143.668 171.752 191.857  0.00  0.00    +0.032 HD
ATOM     88  H   UNL     1     144.207 174.207 190.383  0.00  0.00    +0.060 HD
ATOM     89  H   UNL     1     146.420 173.634 189.940  0.00  0.00    +0.032 HD
ATOM     90  H   UNL     1     146.503 174.603 191.413  0.00  0.00    +0.032 HD
ATOM     91  H   UNL     1     146.899 172.697 192.793  0.00  0.00    +0.060 HD
BRANCH  79  92
ATOM     92  C   UNL     1     144.773 169.729 190.447  0.00  0.00    -0.039 C 
ATOM     93  H   UNL     1     145.388 169.056 191.049  0.00  0.00    +0.025 HD
ATOM     94  H   UNL     1     143.739 169.661 190.791  0.00  0.00    +0.025 HD
ATOM     95  H   UNL     1     144.783 169.378 189.407  0.00  0.00    +0.025 HD
ENDBRANCH  79  92
BRANCH  81  96
ATOM     96  O   UNL     1     144.276 174.028 192.435  0.00  0.00    -0.380 OA
BRANCH  96  97
ATOM     97  C   UNL     1     143.012 174.682 192.444  0.00  0.00    +0.037 C 
ATOM     98  H   UNL     1     142.890 175.272 191.528  0.00  0.00    +0.052 HD
ATOM     99  H   UNL     1     142.981 175.360 193.301  0.00  0.00    +0.052 HD
ATOM    100  H   UNL     1     142.190 173.964 192.538  0.00  0.00    +0.052 HD
ENDBRANCH  96  97
ENDBRANCH  81  96
ENDBRANCH  76  83
ENDBRANCH  73  76
ENDBRANCH  67  73
ENDBRANCH  65  67
BRANCH  65 101
ATOM    101  O   UNL     1     147.942 169.152 192.777  0.00  0.00    -0.391 OA
ATOM    102  H   UNL     1     147.119 169.649 192.586  0.00  0.00    +0.210 HD
ENDBRANCH  65 101
ENDBRANCH  59  65
ENDBRANCH   1  59
BRANCH  19 103
ATOM    103  O   UNL     1     144.902 161.699 186.386  0.00  0.00    -0.385 OA
ATOM    104  H   UNL     1     144.569 162.593 186.184  0.00  0.00    +0.210 HD
ENDBRANCH  19 103
BRANCH  18 105
ATOM    105  O   UNL     1     144.950 159.787 189.534  0.00  0.00    -0.377 OA
BRANCH 105 106
ATOM    106  C   UNL     1     144.967 158.428 189.947  0.00  0.00    +0.037 C 
ATOM    107  H   UNL     1     145.973 157.996 189.899  0.00  0.00    +0.052 HD
ATOM    108  H   UNL     1     144.620 158.381 190.984  0.00  0.00    +0.052 HD
ATOM    109  H   UNL     1     144.280 157.843 189.327  0.00  0.00    +0.052 HD
ENDBRANCH 105 106
ENDBRANCH  18 105
BRANCH   9 110
ATOM    110  O   UNL     1     151.449 161.780 190.163  0.00  0.00    -0.377 OA
BRANCH 110 111
ATOM    111  C   UNL     1     152.568 160.930 190.384  0.00  0.00    +0.037 C 
ATOM    112  H   UNL     1     152.289 160.099 191.037  0.00  0.00    +0.052 HD
ATOM    113  H   UNL     1     153.348 161.512 190.880  0.00  0.00    +0.052 HD
ATOM    114  H   UNL     1     152.967 160.547 189.438  0.00  0.00    +0.052 HD
ENDBRANCH 110 111
ENDBRANCH   9 110
BRANCH   5 115
ATOM    115  O   UNL     1     152.437 165.588 188.735  0.00  0.00    -0.377 OA
BRANCH 115 116
ATOM    116  C   UNL     1     153.845 165.702 188.895  0.00  0.00    +0.037 C 
ATOM    117  H   UNL     1     154.099 166.638 189.400  0.00  0.00    +0.052 HD
ATOM    118  H   UNL     1     154.249 164.857 189.458  0.00  0.00    +0.052 HD
ATOM    119  H   UNL     1     154.302 165.711 187.902  0.00  0.00    +0.052 HD
ENDBRANCH 115 116
ENDBRANCH   5 115
BRANCH   3 120
ATOM    120  O   UNL     1     151.939 166.637 191.330  0.00  0.00    -0.379 OA
BRANCH 120 121
ATOM    121  C   UNL     1     152.563 167.114 192.516  0.00  0.00    +0.037 C 
ATOM    122  H   UNL     1     153.632 166.898 192.449  0.00  0.00    +0.052 HD
ATOM    123  H   UNL     1     152.161 166.599 193.392  0.00  0.00    +0.052 HD
ATOM    124  H   UNL     1     152.434 168.195 192.622  0.00  0.00    +0.052 HD
ENDBRANCH 120 121
ENDBRANCH   3 120
TORSDOF 23
ENDMDL
MODEL 4
REMARK VINA RESULT:      -5.3      4.175      6.888
REMARK  Name = Lobophorolide_conf3
REMARK  23 active torsions:
REMARK  status: ('A' for Active; 'I' for Inactive)
REMARK    1  A    between atoms: C_1  and  C_2
REMARK    2  A    between atoms: C_4  and  O_53
REMARK    3  A    between atoms: C_6  and  C_8
REMARK    4  A    between atoms: C_8  and  C_9
REMARK    5  A    between atoms: C_9  and  C_10
REMARK    6  A    between atoms: C_10  and  C_11
REMARK    7  A    between atoms: C_10  and  C_12
REMARK    8  A    between atoms: C_12  and  C_13
REMARK    9  A    between atoms: C_12  and  O_52
REMARK   10  A    between atoms: C_13  and  C_14
REMARK   11  A    between atoms: C_13  and  C_15
REMARK   12  A    between atoms: C_16  and  C_51
REMARK   13  A    between atoms: C_17  and  O_49
REMARK   14  A    between atoms: C_19  and  O_47
REMARK   15  A    between atoms: C_23  and  O_45
REMARK   16  A    between atoms: C_32  and  O_43
REMARK   17  A    between atoms: C_33  and  O_42
REMARK   18  A    between atoms: C_35  and  C_41
REMARK   19  A    between atoms: O_43  and  C_44
REMARK   20  A    between atoms: O_45  and  C_46
REMARK   21  A    between atoms: O_47  and  C_48
REMARK   22  A    between atoms: O_49  and  C_50
REMARK   23  A    between atoms: O_53  and  C_54
REMARK                            x       y       z     vdW  Elec       q    Type
REMARK                         _______ _______ _______ _____ _____    ______ ____
ROOT
ATOM      1  C   UNL     1     150.753 165.832 188.447  0.00  0.00    +0.113 C 
ATOM      2  C   UNL     1     149.986 166.059 187.103  0.00  0.00    +0.020 C 
ATOM      3  C   UNL     1     148.447 166.275 187.163  0.00  0.00    +0.067 C 
ATOM      4  C   UNL     1     147.653 165.172 187.901  0.00  0.00    +0.003 C 
ATOM      5  C   UNL     1     146.127 165.414 187.827  0.00  0.00    +0.094 C 
ATOM      6  C   UNL     1     145.330 164.129 188.076  0.00  0.00    +0.145 C 
ATOM      7  C   UNL     1     144.920 163.786 189.505  0.00  0.00    +0.083 C 
ATOM      8  O   UNL     1     143.993 164.367 188.586  0.00  0.00    -0.363 OA
ATOM      9  C   UNL     1     145.304 163.051 186.988  0.00  0.00    +0.094 C 
ATOM     10  C   UNL     1     146.046 161.775 187.419  0.00  0.00    +0.003 C 
ATOM     11  C   UNL     1     146.121 160.675 186.337  0.00  0.00    +0.065 C 
ATOM     12  C   UNL     1     144.781 160.188 185.763  0.00  0.00    -0.008 C 
ATOM     13  C   UNL     1     144.058 159.300 186.727  0.00  0.00    -0.083 C 
ATOM     14  C   UNL     1     144.735 158.672 187.700  0.00  0.00    -0.059 C 
ATOM     15  C   UNL     1     146.234 158.802 187.887  0.00  0.00    +0.080 C 
ATOM     16  O   UNL     1     146.853 159.531 186.817  0.00  0.00    -0.369 OA
ATOM     17  C   UNL     1     146.865 157.406 187.979  0.00  0.00    +0.006 C 
ATOM     18  C   UNL     1     148.387 157.335 188.244  0.00  0.00    +0.090 C 
ATOM     19  C   UNL     1     148.892 158.146 189.475  0.00  0.00    +0.100 C 
ATOM     20  C   UNL     1     149.211 159.600 189.228  0.00  0.00    -0.051 C 
ATOM     21  C   UNL     1     150.154 160.340 189.848  0.00  0.00    -0.052 C 
ATOM     22  C   UNL     1     150.396 161.703 189.382  0.00  0.00    -0.052 C 
ATOM     23  C   UNL     1     151.465 162.444 189.708  0.00  0.00    +0.023 C 
ATOM     24  C   UNL     1     151.731 163.797 189.196  0.00  0.00    +0.332 C 
ATOM     25  O   UNL     1     152.864 164.253 189.174  0.00  0.00    -0.246 OA
ATOM     26  O   UNL     1     150.588 164.449 188.852  0.00  0.00    -0.458 OA
ATOM     27  H   UNL     1     151.803 166.006 188.194  0.00  0.00    +0.074 HD
ATOM     28  H   UNL     1     150.411 166.981 186.682  0.00  0.00    +0.036 HD
ATOM     29  H   UNL     1     148.070 166.288 186.131  0.00  0.00    +0.060 HD
ATOM     30  H   UNL     1     147.942 165.134 188.958  0.00  0.00    +0.032 HD
ATOM     31  H   UNL     1     147.903 164.204 187.456  0.00  0.00    +0.032 HD
ATOM     32  H   UNL     1     145.871 165.810 186.837  0.00  0.00    +0.063 HD
ATOM     33  H   UNL     1     144.741 162.761 189.799  0.00  0.00    +0.059 HD
ATOM     34  H   UNL     1     145.285 164.408 190.315  0.00  0.00    +0.059 HD
ATOM     35  H   UNL     1     144.256 162.786 186.788  0.00  0.00    +0.063 HD
ATOM     36  H   UNL     1     145.581 161.378 188.326  0.00  0.00    +0.032 HD
ATOM     37  H   UNL     1     147.073 162.026 187.710  0.00  0.00    +0.032 HD
ATOM     38  H   UNL     1     146.712 161.072 185.502  0.00  0.00    +0.060 HD
ATOM     39  H   UNL     1     144.976 159.592 184.863  0.00  0.00    +0.033 HD
ATOM     40  H   UNL     1     144.145 161.021 185.457  0.00  0.00    +0.033 HD
ATOM     41  H   UNL     1     142.988 159.158 186.614  0.00  0.00    +0.057 HD
ATOM     42  H   UNL     1     144.197 158.048 188.410  0.00  0.00    +0.059 HD
ATOM     43  H   UNL     1     146.401 159.342 188.824  0.00  0.00    +0.064 HD
ATOM     44  H   UNL     1     146.361 156.843 188.776  0.00  0.00    +0.032 HD
ATOM     45  H   UNL     1     146.655 156.877 187.042  0.00  0.00    +0.032 HD
ATOM     46  H   UNL     1     148.589 156.281 188.489  0.00  0.00    +0.063 HD
ATOM     47  H   UNL     1     149.816 157.649 189.796  0.00  0.00    +0.066 HD
ATOM     48  H   UNL     1     148.687 160.039 188.385  0.00  0.00    +0.060 HD
ATOM     49  H   UNL     1     149.670 162.109 188.680  0.00  0.00    +0.062 HD
ATOM     50  H   UNL     1     152.259 162.068 190.340  0.00  0.00    +0.069 HD
ENDROOT
BRANCH  21  51
ATOM     51  C   UNL     1     150.975 159.830 191.005  0.00  0.00    -0.040 C 
ATOM     52  H   UNL     1     152.054 159.883 190.822  0.00  0.00    +0.028 HD
ATOM     53  H   UNL     1     150.765 160.415 191.909  0.00  0.00    +0.028 HD
ATOM     54  H   UNL     1     150.758 158.776 191.211  0.00  0.00    +0.028 HD
ENDBRANCH  21  51
BRANCH   2  55
ATOM     55  C   UNL     1     150.324 164.947 186.096  0.00  0.00    -0.057 C 
ATOM     56  H   UNL     1     150.082 165.267 185.075  0.00  0.00    +0.023 HD
ATOM     57  H   UNL     1     151.382 164.673 186.119  0.00  0.00    +0.023 HD
ATOM     58  H   UNL     1     149.738 164.045 186.306  0.00  0.00    +0.023 HD
ENDBRANCH   2  55
BRANCH   1  59
ATOM     59  C   UNL     1     150.379 166.772 189.632  0.00  0.00    +0.020 C 
ATOM     60  H   UNL     1     149.743 167.560 189.215  0.00  0.00    +0.036 HD
BRANCH  59  61
ATOM     61  C   UNL     1     149.452 166.123 190.672  0.00  0.00    -0.057 C 
ATOM     62  H   UNL     1     148.933 165.258 190.245  0.00  0.00    +0.023 HD
ATOM     63  H   UNL     1     150.026 165.751 191.528  0.00  0.00    +0.023 HD
ATOM     64  H   UNL     1     148.701 166.821 191.051  0.00  0.00    +0.023 HD
ENDBRANCH  59  61
BRANCH  59  65
ATOM     65  C   UNL     1     151.609 167.460 190.294  0.00  0.00    +0.064 C 
ATOM     66  H   UNL     1     152.428 166.743 190.414  0.00  0.00    +0.060 HD
BRANCH  65  67
ATOM     67  C   UNL     1     151.404 168.178 191.668  0.00  0.00    -0.017 C 
ATOM     68  H   UNL     1     150.350 168.085 191.937  0.00  0.00    +0.032 HD
BRANCH  67  69
ATOM     69  C   UNL     1     152.248 167.536 192.771  0.00  0.00    -0.060 C 
ATOM     70  H   UNL     1     153.318 167.594 192.554  0.00  0.00    +0.023 HD
ATOM     71  H   UNL     1     151.987 166.482 192.907  0.00  0.00    +0.023 HD
ATOM     72  H   UNL     1     152.123 168.050 193.725  0.00  0.00    +0.023 HD
ENDBRANCH  67  69
BRANCH  67  73
ATOM     73  C   UNL     1     151.704 169.696 191.525  0.00  0.00    -0.046 C 
ATOM     74  H   UNL     1     152.755 169.849 191.804  0.00  0.00    +0.027 HD
ATOM     75  H   UNL     1     151.627 169.988 190.469  0.00  0.00    +0.027 HD
BRANCH  73  76
ATOM     76  C   UNL     1     150.877 170.691 192.349  0.00  0.00    -0.026 C 
ATOM     77  H   UNL     1     150.609 170.279 193.328  0.00  0.00    +0.029 HD
ATOM     78  H   UNL     1     151.549 171.526 192.598  0.00  0.00    +0.029 HD
BRANCH  76  83
ATOM     79  C   UNL     1     148.087 172.419 193.178  0.00  0.00    +0.059 C 
ATOM     80  C   UNL     1     146.947 172.299 192.172  0.00  0.00    -0.000 C 
ATOM     81  C   UNL     1     147.131 171.080 191.259  0.00  0.00    +0.063 C 
ATOM     82  C   UNL     1     148.455 170.357 191.510  0.00  0.00    -0.000 C 
ATOM     83  C   UNL     1     149.636 171.317 191.682  0.00  0.00    +0.061 C 
ATOM     84  O   UNL     1     149.320 172.483 192.466  0.00  0.00    -0.373 OA
ATOM     85  H   UNL     1     148.104 171.564 193.865  0.00  0.00    +0.059 HD
ATOM     86  H   UNL     1     145.989 172.223 192.698  0.00  0.00    +0.032 HD
ATOM     87  H   UNL     1     146.903 173.212 191.564  0.00  0.00    +0.032 HD
ATOM     88  H   UNL     1     146.321 170.360 191.435  0.00  0.00    +0.060 HD
ATOM     89  H   UNL     1     148.343 169.749 192.414  0.00  0.00    +0.032 HD
ATOM     90  H   UNL     1     148.655 169.676 190.678  0.00  0.00    +0.032 HD
ATOM     91  H   UNL     1     149.928 171.694 190.694  0.00  0.00    +0.060 HD
BRANCH  79  92
ATOM     92  C   UNL     1     147.957 173.691 194.005  0.00  0.00    -0.039 C 
ATOM     93  H   UNL     1     148.661 173.696 194.841  0.00  0.00    +0.025 HD
ATOM     94  H   UNL     1     148.146 174.569 193.383  0.00  0.00    +0.025 HD
ATOM     95  H   UNL     1     146.939 173.799 194.401  0.00  0.00    +0.025 HD
ENDBRANCH  79  92
BRANCH  81  96
ATOM     96  O   UNL     1     147.088 171.475 189.881  0.00  0.00    -0.380 OA
BRANCH  96  97
ATOM     97  C   UNL     1     146.458 172.736 189.682  0.00  0.00    +0.037 C 
ATOM     98  H   UNL     1     146.593 173.366 190.568  0.00  0.00    +0.052 HD
ATOM     99  H   UNL     1     145.388 172.567 189.534  0.00  0.00    +0.052 HD
ATOM    100  H   UNL     1     146.854 173.246 188.797  0.00  0.00    +0.052 HD
ENDBRANCH  96  97
ENDBRANCH  81  96
ENDBRANCH  76  83
ENDBRANCH  73  76
ENDBRANCH  67  73
ENDBRANCH  65  67
BRANCH  65 101
ATOM    101  O   UNL     1     152.082 168.441 189.357  0.00  0.00    -0.391 OA
ATOM    102  H   UNL     1     151.459 169.196 189.410  0.00  0.00    +0.210 HD
ENDBRANCH  65 101
ENDBRANCH  59  65
ENDBRANCH   1  59
BRANCH  19 103
ATOM    103  O   UNL     1     147.963 158.045 190.552  0.00  0.00    -0.385 OA
ATOM    104  H   UNL     1     148.407 157.568 191.276  0.00  0.00    +0.210 HD
ENDBRANCH  19 103
BRANCH  18 105
ATOM    105  O   UNL     1     149.165 157.680 187.089  0.00  0.00    -0.377 OA
BRANCH 105 106
ATOM    106  C   UNL     1     150.301 156.849 186.896  0.00  0.00    +0.037 C 
ATOM    107  H   UNL     1     151.032 157.301 186.217  0.00  0.00    +0.052 HD
ATOM    108  H   UNL     1     150.781 156.695 187.867  0.00  0.00    +0.052 HD
ATOM    109  H   UNL     1     149.986 155.874 186.509  0.00  0.00    +0.052 HD
ENDBRANCH 105 106
ENDBRANCH  18 105
BRANCH   9 110
ATOM    110  O   UNL     1     145.910 163.536 185.780  0.00  0.00    -0.377 OA
BRANCH 110 111
ATOM    111  C   UNL     1     144.953 163.829 184.768  0.00  0.00    +0.037 C 
ATOM    112  H   UNL     1     145.125 164.830 184.364  0.00  0.00    +0.052 HD
ATOM    113  H   UNL     1     143.959 163.805 185.221  0.00  0.00    +0.052 HD
ATOM    114  H   UNL     1     144.987 163.087 183.963  0.00  0.00    +0.052 HD
ENDBRANCH 110 111
ENDBRANCH   9 110
BRANCH   5 115
ATOM    115  O   UNL     1     145.808 166.401 188.829  0.00  0.00    -0.377 OA
BRANCH 115 116
ATOM    116  C   UNL     1     144.889 167.384 188.371  0.00  0.00    +0.037 C 
ATOM    117  H   UNL     1     144.564 168.020 189.199  0.00  0.00    +0.052 HD
ATOM    118  H   UNL     1     145.328 168.000 187.583  0.00  0.00    +0.052 HD
ATOM    119  H   UNL     1     144.013 166.871 187.966  0.00  0.00    +0.052 HD
ENDBRANCH 115 116
ENDBRANCH   5 115
BRANCH   3 120
ATOM    120  O   UNL     1     148.172 167.557 187.754  0.00  0.00    -0.379 OA
BRANCH 120 121
ATOM    121  C   UNL     1     147.957 168.584 186.794  0.00  0.00    +0.037 C 
ATOM    122  H   UNL     1     148.902 168.772 186.278  0.00  0.00    +0.052 HD
ATOM    123  H   UNL     1     147.644 169.508 187.287  0.00  0.00    +0.052 HD
ATOM    124  H   UNL     1     147.212 168.282 186.053  0.00  0.00    +0.052 HD
ENDBRANCH 120 121
ENDBRANCH   3 120
TORSDOF 23
ENDMDL
MODEL 5
REMARK VINA RESULT:      -5.3      5.859     12.210
REMARK  Name = Lobophorolide_conf3
REMARK  23 active torsions:
REMARK  status: ('A' for Active; 'I' for Inactive)
REMARK    1  A    between atoms: C_1  and  C_2
REMARK    2  A    between atoms: C_4  and  O_53
REMARK    3  A    between atoms: C_6  and  C_8
REMARK    4  A    between atoms: C_8  and  C_9
REMARK    5  A    between atoms: C_9  and  C_10
REMARK    6  A    between atoms: C_10  and  C_11
REMARK    7  A    between atoms: C_10  and  C_12
REMARK    8  A    between atoms: C_12  and  C_13
REMARK    9  A    between atoms: C_12  and  O_52
REMARK   10  A    between atoms: C_13  and  C_14
REMARK   11  A    between atoms: C_13  and  C_15
REMARK   12  A    between atoms: C_16  and  C_51
REMARK   13  A    between atoms: C_17  and  O_49
REMARK   14  A    between atoms: C_19  and  O_47
REMARK   15  A    between atoms: C_23  and  O_45
REMARK   16  A    between atoms: C_32  and  O_43
REMARK   17  A    between atoms: C_33  and  O_42
REMARK   18  A    between atoms: C_35  and  C_41
REMARK   19  A    between atoms: O_43  and  C_44
REMARK   20  A    between atoms: O_45  and  C_46
REMARK   21  A    between atoms: O_47  and  C_48
REMARK   22  A    between atoms: O_49  and  C_50
REMARK   23  A    between atoms: O_53  and  C_54
REMARK                            x       y       z     vdW  Elec       q    Type
REMARK                         _______ _______ _______ _____ _____    ______ ____
ROOT
ATOM      1  C   UNL     1     147.875 166.851 190.351  0.00  0.00    +0.113 C 
ATOM      2  C   UNL     1     146.662 165.872 190.478  0.00  0.00    +0.020 C 
ATOM      3  C   UNL     1     145.838 165.554 189.197  0.00  0.00    +0.067 C 
ATOM      4  C   UNL     1     145.287 166.787 188.444  0.00  0.00    +0.003 C 
ATOM      5  C   UNL     1     144.399 166.379 187.245  0.00  0.00    +0.094 C 
ATOM      6  C   UNL     1     143.455 167.509 186.819  0.00  0.00    +0.145 C 
ATOM      7  C   UNL     1     143.930 168.503 185.764  0.00  0.00    +0.083 C 
ATOM      8  O   UNL     1     143.048 167.430 185.428  0.00  0.00    -0.363 OA
ATOM      9  C   UNL     1     142.255 167.846 187.710  0.00  0.00    +0.094 C 
ATOM     10  C   UNL     1     142.391 169.230 188.366  0.00  0.00    +0.003 C 
ATOM     11  C   UNL     1     141.249 169.600 189.336  0.00  0.00    +0.065 C 
ATOM     12  C   UNL     1     139.823 169.565 188.760  0.00  0.00    -0.008 C 
ATOM     13  C   UNL     1     139.558 170.743 187.875  0.00  0.00    -0.083 C 
ATOM     14  C   UNL     1     140.295 171.856 187.998  0.00  0.00    -0.059 C 
ATOM     15  C   UNL     1     141.411 172.007 189.014  0.00  0.00    +0.080 C 
ATOM     16  O   UNL     1     141.470 170.897 189.922  0.00  0.00    -0.369 OA
ATOM     17  C   UNL     1     141.209 173.303 189.812  0.00  0.00    +0.006 C 
ATOM     18  C   UNL     1     142.294 173.667 190.853  0.00  0.00    +0.090 C 
ATOM     19  C   UNL     1     143.758 173.681 190.320  0.00  0.00    +0.100 C 
ATOM     20  C   UNL     1     144.483 172.358 190.330  0.00  0.00    -0.051 C 
ATOM     21  C   UNL     1     145.807 172.159 190.507  0.00  0.00    -0.052 C 
ATOM     22  C   UNL     1     146.305 170.790 190.609  0.00  0.00    -0.052 C 
ATOM     23  C   UNL     1     147.523 170.451 191.053  0.00  0.00    +0.023 C 
ATOM     24  C   UNL     1     148.003 169.068 191.203  0.00  0.00    +0.332 C 
ATOM     25  O   UNL     1     148.911 168.794 191.973  0.00  0.00    -0.246 OA
ATOM     26  O   UNL     1     147.378 168.214 190.350  0.00  0.00    -0.458 OA
ATOM     27  H   UNL     1     148.455 166.685 191.263  0.00  0.00    +0.074 HD
ATOM     28  H   UNL     1     147.097 164.918 190.809  0.00  0.00    +0.036 HD
ATOM     29  H   UNL     1     144.964 164.961 189.500  0.00  0.00    +0.060 HD
ATOM     30  H   UNL     1     146.109 167.405 188.065  0.00  0.00    +0.032 HD
ATOM     31  H   UNL     1     144.712 167.399 189.146  0.00  0.00    +0.032 HD
ATOM     32  H   UNL     1     143.806 165.497 187.517  0.00  0.00    +0.063 HD
ATOM     33  H   UNL     1     143.523 169.504 185.723  0.00  0.00    +0.059 HD
ATOM     34  H   UNL     1     144.956 168.442 185.416  0.00  0.00    +0.059 HD
ATOM     35  H   UNL     1     141.351 167.852 187.085  0.00  0.00    +0.063 HD
ATOM     36  H   UNL     1     142.481 169.991 187.585  0.00  0.00    +0.032 HD
ATOM     37  H   UNL     1     143.333 169.281 188.925  0.00  0.00    +0.032 HD
ATOM     38  H   UNL     1     141.282 168.891 190.173  0.00  0.00    +0.060 HD
ATOM     39  H   UNL     1     139.105 169.618 189.587  0.00  0.00    +0.033 HD
ATOM     40  H   UNL     1     139.624 168.632 188.229  0.00  0.00    +0.033 HD
ATOM     41  H   UNL     1     138.752 170.688 187.150  0.00  0.00    +0.057 HD
ATOM     42  H   UNL     1     140.110 172.697 187.334  0.00  0.00    +0.059 HD
ATOM     43  H   UNL     1     142.353 172.060 188.461  0.00  0.00    +0.064 HD
ATOM     44  H   UNL     1     141.129 174.142 189.108  0.00  0.00    +0.032 HD
ATOM     45  H   UNL     1     140.246 173.236 190.330  0.00  0.00    +0.032 HD
ATOM     46  H   UNL     1     142.081 174.707 191.142  0.00  0.00    +0.063 HD
ATOM     47  H   UNL     1     144.304 174.369 190.977  0.00  0.00    +0.066 HD
ATOM     48  H   UNL     1     143.834 171.488 190.299  0.00  0.00    +0.060 HD
ATOM     49  H   UNL     1     145.602 170.001 190.349  0.00  0.00    +0.062 HD
ATOM     50  H   UNL     1     148.238 171.186 191.399  0.00  0.00    +0.069 HD
ENDROOT
BRANCH  21  51
ATOM     51  C   UNL     1     146.805 173.286 190.605  0.00  0.00    -0.040 C 
ATOM     52  H   UNL     1     146.413 174.238 190.233  0.00  0.00    +0.028 HD
ATOM     53  H   UNL     1     147.107 173.438 191.648  0.00  0.00    +0.028 HD
ATOM     54  H   UNL     1     147.699 173.076 190.007  0.00  0.00    +0.028 HD
ENDBRANCH  21  51
BRANCH   2  55
ATOM     55  C   UNL     1     145.725 166.320 191.611  0.00  0.00    -0.057 C 
ATOM     56  H   UNL     1     146.055 165.902 192.571  0.00  0.00    +0.023 HD
ATOM     57  H   UNL     1     145.687 167.407 191.714  0.00  0.00    +0.023 HD
ATOM     58  H   UNL     1     144.704 165.964 191.431  0.00  0.00    +0.023 HD
ENDBRANCH   2  55
BRANCH   1  59
ATOM     59  C   UNL     1     148.820 166.638 189.132  0.00  0.00    +0.020 C 
ATOM     60  H   UNL     1     148.482 165.724 188.633  0.00  0.00    +0.036 HD
BRANCH  59  61
ATOM     61  C   UNL     1     148.657 167.693 188.025  0.00  0.00    -0.057 C 
ATOM     62  H   UNL     1     147.795 167.460 187.390  0.00  0.00    +0.023 HD
ATOM     63  H   UNL     1     148.469 168.683 188.455  0.00  0.00    +0.023 HD
ATOM     64  H   UNL     1     149.542 167.767 187.388  0.00  0.00    +0.023 HD
ENDBRANCH  59  61
BRANCH  59  65
ATOM     65  C   UNL     1     150.313 166.434 189.528  0.00  0.00    +0.064 C 
ATOM     66  H   UNL     1     150.873 166.000 188.694  0.00  0.00    +0.060 HD
BRANCH  65  67
ATOM     67  C   UNL     1     150.630 165.588 190.803  0.00  0.00    -0.017 C 
ATOM     68  H   UNL     1     149.772 165.661 191.473  0.00  0.00    +0.032 HD
BRANCH  67  69
ATOM     69  C   UNL     1     150.856 164.114 190.459  0.00  0.00    -0.060 C 
ATOM     70  H   UNL     1     151.479 163.992 189.569  0.00  0.00    +0.023 HD
ATOM     71  H   UNL     1     149.907 163.598 190.281  0.00  0.00    +0.023 HD
ATOM     72  H   UNL     1     151.390 163.592 191.254  0.00  0.00    +0.023 HD
ENDBRANCH  67  69
BRANCH  67  73
ATOM     73  C   UNL     1     151.846 166.194 191.556  0.00  0.00    -0.046 C 
ATOM     74  H   UNL     1     152.620 165.415 191.609  0.00  0.00    +0.027 HD
ATOM     75  H   UNL     1     152.279 167.008 190.960  0.00  0.00    +0.027 HD
BRANCH  73  76
ATOM     76  C   UNL     1     151.644 166.715 192.985  0.00  0.00    -0.026 C 
ATOM     77  H   UNL     1     152.589 167.041 193.432  0.00  0.00    +0.029 HD
ATOM     78  H   UNL     1     151.067 167.648 192.899  0.00  0.00    +0.029 HD
BRANCH  76  83
ATOM     79  C   UNL     1     148.847 166.768 194.889  0.00  0.00    +0.059 C 
ATOM     80  C   UNL     1     148.875 165.816 196.080  0.00  0.00    -0.000 C 
ATOM     81  C   UNL     1     150.307 165.391 196.424  0.00  0.00    +0.063 C 
ATOM     82  C   UNL     1     151.334 165.936 195.429  0.00  0.00    -0.000 C 
ATOM     83  C   UNL     1     150.873 165.818 193.973  0.00  0.00    +0.061 C 
ATOM     84  O   UNL     1     149.482 166.135 193.782  0.00  0.00    -0.373 OA
ATOM     85  H   UNL     1     149.362 167.709 195.120  0.00  0.00    +0.059 HD
ATOM     86  H   UNL     1     148.413 166.291 196.952  0.00  0.00    +0.032 HD
ATOM     87  H   UNL     1     148.272 164.928 195.848  0.00  0.00    +0.032 HD
ATOM     88  H   UNL     1     150.578 165.768 197.419  0.00  0.00    +0.060 HD
ATOM     89  H   UNL     1     151.514 166.989 195.671  0.00  0.00    +0.032 HD
ATOM     90  H   UNL     1     152.278 165.401 195.559  0.00  0.00    +0.032 HD
ATOM     91  H   UNL     1     150.987 164.775 193.653  0.00  0.00    +0.060 HD
BRANCH  79  92
ATOM     92  C   UNL     1     147.416 167.098 194.483  0.00  0.00    -0.039 C 
ATOM     93  H   UNL     1     146.738 166.269 194.702  0.00  0.00    +0.025 HD
ATOM     94  H   UNL     1     147.066 167.986 195.014  0.00  0.00    +0.025 HD
ATOM     95  H   UNL     1     147.356 167.327 193.412  0.00  0.00    +0.025 HD
ENDBRANCH  79  92
BRANCH  81  96
ATOM     96  O   UNL     1     150.415 163.960 196.443  0.00  0.00    -0.380 OA
BRANCH  96  97
ATOM     97  C   UNL     1     151.709 163.503 196.820  0.00  0.00    +0.037 C 
ATOM     98  H   UNL     1     152.365 164.359 197.016  0.00  0.00    +0.052 HD
ATOM     99  H   UNL     1     152.126 162.927 195.989  0.00  0.00    +0.052 HD
ATOM    100  H   UNL     1     151.664 162.857 197.703  0.00  0.00    +0.052 HD
ENDBRANCH  96  97
ENDBRANCH  81  96
ENDBRANCH  76  83
ENDBRANCH  73  76
ENDBRANCH  67  73
ENDBRANCH  65  67
BRANCH  65 101
ATOM    101  O   UNL     1     150.864 167.746 189.729  0.00  0.00    -0.391 OA
ATOM    102  H   UNL     1     151.709 167.619 190.209  0.00  0.00    +0.210 HD
ENDBRANCH  65 101
ENDBRANCH  59  65
ENDBRANCH   1  59
BRANCH  19 103
ATOM    103  O   UNL     1     143.802 174.231 189.004  0.00  0.00    -0.385 OA
ATOM    104  H   UNL     1     142.882 174.360 188.712  0.00  0.00    +0.210 HD
ENDBRANCH  19 103
BRANCH  18 105
ATOM    105  O   UNL     1     142.221 172.854 192.033  0.00  0.00    -0.377 OA
BRANCH 105 106
ATOM    106  C   UNL     1     141.093 173.133 192.851  0.00  0.00    +0.037 C 
ATOM    107  H   UNL     1     141.032 174.193 193.120  0.00  0.00    +0.052 HD
ATOM    108  H   UNL     1     140.192 172.866 192.292  0.00  0.00    +0.052 HD
ATOM    109  H   UNL     1     141.131 172.519 193.757  0.00  0.00    +0.052 HD
ENDBRANCH 105 106
ENDBRANCH  18 105
BRANCH   9 110
ATOM    110  O   UNL     1     142.106 166.869 188.752  0.00  0.00    -0.377 OA
BRANCH 110 111
ATOM    111  C   UNL     1     141.242 165.801 188.379  0.00  0.00    +0.037 C 
ATOM    112  H   UNL     1     140.654 166.079 187.501  0.00  0.00    +0.052 HD
ATOM    113  H   UNL     1     140.556 165.611 189.208  0.00  0.00    +0.052 HD
ATOM    114  H   UNL     1     141.808 164.885 188.178  0.00  0.00    +0.052 HD
ENDBRANCH 110 111
ENDBRANCH   9 110
BRANCH   5 115
ATOM    115  O   UNL     1     145.286 166.036 186.161  0.00  0.00    -0.377 OA
BRANCH 115 116
ATOM    116  C   UNL     1     144.948 164.809 185.529  0.00  0.00    +0.037 C 
ATOM    117  H   UNL     1     145.850 164.240 185.287  0.00  0.00    +0.052 HD
ATOM    118  H   UNL     1     144.291 164.206 186.162  0.00  0.00    +0.052 HD
ATOM    119  H   UNL     1     144.423 165.036 184.598  0.00  0.00    +0.052 HD
ENDBRANCH 115 116
ENDBRANCH   5 115
BRANCH   3 120
ATOM    120  O   UNL     1     146.635 164.751 188.309  0.00  0.00    -0.379 OA
BRANCH 120 121
ATOM    121  C   UNL     1     146.943 163.467 188.837  0.00  0.00    +0.037 C 
ATOM    122  H   UNL     1     146.349 163.319 189.742  0.00  0.00    +0.052 HD
ATOM    123  H   UNL     1     148.001 163.410 189.105  0.00  0.00    +0.052 HD
ATOM    124  H   UNL     1     146.693 162.677 188.124  0.00  0.00    +0.052 HD
ENDBRANCH 120 121
ENDBRANCH   3 120
TORSDOF 23
ENDMDL
MODEL 6
REMARK VINA RESULT:      -5.2      3.658      8.192
REMARK  Name = Lobophorolide_conf3
REMARK  23 active torsions:
REMARK  status: ('A' for Active; 'I' for Inactive)
REMARK    1  A    between atoms: C_1  and  C_2
REMARK    2  A    between atoms: C_4  and  O_53
REMARK    3  A    between atoms: C_6  and  C_8
REMARK    4  A    between atoms: C_8  and  C_9
REMARK    5  A    between atoms: C_9  and  C_10
REMARK    6  A    between atoms: C_10  and  C_11
REMARK    7  A    between atoms: C_10  and  C_12
REMARK    8  A    between atoms: C_12  and  C_13
REMARK    9  A    between atoms: C_12  and  O_52
REMARK   10  A    between atoms: C_13  and  C_14
REMARK   11  A    between atoms: C_13  and  C_15
REMARK   12  A    between atoms: C_16  and  C_51
REMARK   13  A    between atoms: C_17  and  O_49
REMARK   14  A    between atoms: C_19  and  O_47
REMARK   15  A    between atoms: C_23  and  O_45
REMARK   16  A    between atoms: C_32  and  O_43
REMARK   17  A    between atoms: C_33  and  O_42
REMARK   18  A    between atoms: C_35  and  C_41
REMARK   19  A    between atoms: O_43  and  C_44
REMARK   20  A    between atoms: O_45  and  C_46
REMARK   21  A    between atoms: O_47  and  C_48
REMARK   22  A    between atoms: O_49  and  C_50
REMARK   23  A    between atoms: O_53  and  C_54
REMARK                            x       y       z     vdW  Elec       q    Type
REMARK                         _______ _______ _______ _____ _____    ______ ____
ROOT
ATOM      1  C   UNL     1     149.789 164.974 189.144  0.00  0.00    +0.113 C 
ATOM      2  C   UNL     1     149.800 163.802 190.179  0.00  0.00    +0.020 C 
ATOM      3  C   UNL     1     150.269 162.400 189.696  0.00  0.00    +0.067 C 
ATOM      4  C   UNL     1     149.522 161.843 188.461  0.00  0.00    +0.003 C 
ATOM      5  C   UNL     1     149.981 160.408 188.111  0.00  0.00    +0.094 C 
ATOM      6  C   UNL     1     148.941 159.664 187.264  0.00  0.00    +0.145 C 
ATOM      7  C   UNL     1     149.029 159.760 185.745  0.00  0.00    +0.083 C 
ATOM      8  O   UNL     1     149.508 158.610 186.445  0.00  0.00    -0.363 OA
ATOM      9  C   UNL     1     147.648 159.186 187.933  0.00  0.00    +0.094 C 
ATOM     10  C   UNL     1     146.415 159.944 187.417  0.00  0.00    +0.003 C 
ATOM     11  C   UNL     1     145.086 159.562 188.105  0.00  0.00    +0.065 C 
ATOM     12  C   UNL     1     144.695 158.075 188.058  0.00  0.00    -0.008 C 
ATOM     13  C   UNL     1     144.198 157.679 186.703  0.00  0.00    -0.083 C 
ATOM     14  C   UNL     1     143.727 158.609 185.861  0.00  0.00    -0.059 C 
ATOM     15  C   UNL     1     143.656 160.085 186.206  0.00  0.00    +0.080 C 
ATOM     16  O   UNL     1     143.991 160.336 187.579  0.00  0.00    -0.369 OA
ATOM     17  C   UNL     1     142.241 160.612 185.927  0.00  0.00    +0.006 C 
ATOM     18  C   UNL     1     141.994 162.122 186.153  0.00  0.00    +0.090 C 
ATOM     19  C   UNL     1     142.989 163.080 185.433  0.00  0.00    +0.100 C 
ATOM     20  C   UNL     1     144.269 163.389 186.172  0.00  0.00    -0.051 C 
ATOM     21  C   UNL     1     144.976 164.537 186.123  0.00  0.00    -0.052 C 
ATOM     22  C   UNL     1     146.127 164.692 187.010  0.00  0.00    -0.052 C 
ATOM     23  C   UNL     1     146.744 165.854 187.267  0.00  0.00    +0.023 C 
ATOM     24  C   UNL     1     147.869 166.014 188.200  0.00  0.00    +0.332 C 
ATOM     25  O   UNL     1     148.118 167.095 188.711  0.00  0.00    -0.246 OA
ATOM     26  O   UNL     1     148.592 164.869 188.332  0.00  0.00    -0.458 OA
ATOM     27  H   UNL     1     149.725 165.878 189.757  0.00  0.00    +0.074 HD
ATOM     28  H   UNL     1     150.511 164.113 190.958  0.00  0.00    +0.036 HD
ATOM     29  H   UNL     1     150.090 161.687 190.512  0.00  0.00    +0.060 HD
ATOM     30  H   UNL     1     149.698 162.481 187.587  0.00  0.00    +0.032 HD
ATOM     31  H   UNL     1     148.448 161.855 188.667  0.00  0.00    +0.032 HD
ATOM     32  H   UNL     1     150.159 159.848 189.036  0.00  0.00    +0.063 HD
ATOM     33  H   UNL     1     148.149 159.627 185.130  0.00  0.00    +0.059 HD
ATOM     34  H   UNL     1     149.762 160.427 185.306  0.00  0.00    +0.059 HD
ATOM     35  H   UNL     1     147.514 158.120 187.704  0.00  0.00    +0.063 HD
ATOM     36  H   UNL     1     146.331 159.802 186.336  0.00  0.00    +0.032 HD
ATOM     37  H   UNL     1     146.561 161.023 187.553  0.00  0.00    +0.032 HD
ATOM     38  H   UNL     1     145.166 159.847 189.162  0.00  0.00    +0.060 HD
ATOM     39  H   UNL     1     143.873 157.902 188.764  0.00  0.00    +0.033 HD
ATOM     40  H   UNL     1     145.519 157.429 188.369  0.00  0.00    +0.033 HD
ATOM     41  H   UNL     1     144.206 156.630 186.423  0.00  0.00    +0.057 HD
ATOM     42  H   UNL     1     143.390 158.314 184.870  0.00  0.00    +0.059 HD
ATOM     43  H   UNL     1     144.374 160.606 185.567  0.00  0.00    +0.064 HD
ATOM     44  H   UNL     1     141.979 160.383 184.885  0.00  0.00    +0.032 HD
ATOM     45  H   UNL     1     141.540 160.052 186.557  0.00  0.00    +0.032 HD
ATOM     46  H   UNL     1     141.014 162.326 185.696  0.00  0.00    +0.063 HD
ATOM     47  H   UNL     1     142.445 164.022 185.295  0.00  0.00    +0.066 HD
ATOM     48  H   UNL     1     144.566 162.633 186.892  0.00  0.00    +0.060 HD
ATOM     49  H   UNL     1     146.460 163.794 187.528  0.00  0.00    +0.062 HD
ATOM     50  H   UNL     1     146.410 166.792 186.842  0.00  0.00    +0.069 HD
ENDROOT
BRANCH  21  51
ATOM     51  C   UNL     1     144.640 165.676 185.193  0.00  0.00    -0.040 C 
ATOM     52  H   UNL     1     145.301 165.728 184.323  0.00  0.00    +0.028 HD
ATOM     53  H   UNL     1     143.612 165.574 184.822  0.00  0.00    +0.028 HD
ATOM     54  H   UNL     1     144.735 166.643 185.701  0.00  0.00    +0.028 HD
ENDBRANCH  21  51
BRANCH   2  55
ATOM     55  C   UNL     1     148.437 163.689 190.881  0.00  0.00    -0.057 C 
ATOM     56  H   UNL     1     147.898 162.798 190.534  0.00  0.00    +0.023 HD
ATOM     57  H   UNL     1     148.533 163.620 191.967  0.00  0.00    +0.023 HD
ATOM     58  H   UNL     1     147.812 164.560 190.653  0.00  0.00    +0.023 HD
ENDBRANCH   2  55
BRANCH   1  59
ATOM     59  C   UNL     1     151.037 165.104 188.222  0.00  0.00    +0.020 C 
ATOM     60  H   UNL     1     151.637 164.202 188.382  0.00  0.00    +0.036 HD
BRANCH  59  61
ATOM     61  C   UNL     1     150.714 165.017 186.721  0.00  0.00    -0.057 C 
ATOM     62  H   UNL     1     149.840 164.380 186.547  0.00  0.00    +0.023 HD
ATOM     63  H   UNL     1     150.464 166.006 186.319  0.00  0.00    +0.023 HD
ATOM     64  H   UNL     1     151.550 164.620 186.139  0.00  0.00    +0.023 HD
ENDBRANCH  59  61
BRANCH  59  65
ATOM     65  C   UNL     1     151.935 166.332 188.556  0.00  0.00    +0.064 C 
ATOM     66  H   UNL     1     152.611 166.547 187.724  0.00  0.00    +0.060 HD
BRANCH  65  67
ATOM     67  C   UNL     1     152.792 166.287 189.863  0.00  0.00    -0.017 C 
ATOM     68  H   UNL     1     152.640 165.311 190.327  0.00  0.00    +0.032 HD
BRANCH  67  69
ATOM     69  C   UNL     1     154.283 166.459 189.566  0.00  0.00    -0.060 C 
ATOM     70  H   UNL     1     154.740 167.229 190.194  0.00  0.00    +0.023 HD
ATOM     71  H   UNL     1     154.449 166.734 188.519  0.00  0.00    +0.023 HD
ATOM     72  H   UNL     1     154.844 165.548 189.779  0.00  0.00    +0.023 HD
ENDBRANCH  67  69
BRANCH  67  73
ATOM     73  C   UNL     1     152.281 167.353 190.871  0.00  0.00    -0.046 C 
ATOM     74  H   UNL     1     152.780 168.301 190.627  0.00  0.00    +0.027 HD
ATOM     75  H   UNL     1     151.209 167.528 190.710  0.00  0.00    +0.027 HD
BRANCH  73  76
ATOM     76  C   UNL     1     152.496 167.113 192.371  0.00  0.00    -0.026 C 
ATOM     77  H   UNL     1     153.531 166.826 192.588  0.00  0.00    +0.029 HD
ATOM     78  H   UNL     1     152.394 168.092 192.863  0.00  0.00    +0.029 HD
BRANCH  76  83
ATOM     79  C   UNL     1     149.259 166.976 193.347  0.00  0.00    +0.059 C 
ATOM     80  C   UNL     1     148.986 166.018 194.502  0.00  0.00    -0.000 C 
ATOM     81  C   UNL     1     150.273 165.680 195.265  0.00  0.00    +0.063 C 
ATOM     82  C   UNL     1     151.515 166.296 194.618  0.00  0.00    -0.000 C 
ATOM     83  C   UNL     1     151.521 166.161 193.092  0.00  0.00    +0.061 C 
ATOM     84  O   UNL     1     150.235 166.392 192.489  0.00  0.00    -0.373 OA
ATOM     85  H   UNL     1     149.622 167.945 193.711  0.00  0.00    +0.059 HD
ATOM     86  H   UNL     1     148.256 166.457 195.190  0.00  0.00    +0.032 HD
ATOM     87  H   UNL     1     148.538 165.096 194.109  0.00  0.00    +0.032 HD
ATOM     88  H   UNL     1     150.208 166.065 196.291  0.00  0.00    +0.060 HD
ATOM     89  H   UNL     1     151.549 167.356 194.891  0.00  0.00    +0.032 HD
ATOM     90  H   UNL     1     152.408 165.820 195.031  0.00  0.00    +0.032 HD
ATOM     91  H   UNL     1     151.790 165.130 192.832  0.00  0.00    +0.060 HD
BRANCH  79  92
ATOM     92  C   UNL     1     147.998 167.219 192.527  0.00  0.00    -0.039 C 
ATOM     93  H   UNL     1     147.947 168.251 192.170  0.00  0.00    +0.025 HD
ATOM     94  H   UNL     1     147.972 166.548 191.665  0.00  0.00    +0.025 HD
ATOM     95  H   UNL     1     147.099 167.007 193.119  0.00  0.00    +0.025 HD
ENDBRANCH  79  92
BRANCH  81  96
ATOM     96  O   UNL     1     150.458 164.259 195.331  0.00  0.00    -0.380 OA
BRANCH  96  97
ATOM     97  C   UNL     1     151.212 163.847 196.466  0.00  0.00    +0.037 C 
ATOM     98  H   UNL     1     150.539 163.495 197.255  0.00  0.00    +0.052 HD
ATOM     99  H   UNL     1     151.768 164.710 196.841  0.00  0.00    +0.052 HD
ATOM    100  H   UNL     1     151.928 163.059 196.206  0.00  0.00    +0.052 HD
ENDBRANCH  96  97
ENDBRANCH  81  96
ENDBRANCH  76  83
ENDBRANCH  73  76
ENDBRANCH  67  73
ENDBRANCH  65  67
BRANCH  65 101
ATOM    101  O   UNL     1     151.057 167.465 188.650  0.00  0.00    -0.391 OA
ATOM    102  H   UNL     1     151.332 167.962 189.449  0.00  0.00    +0.210 HD
ENDBRANCH  65 101
ENDBRANCH  59  65
ENDBRANCH   1  59
BRANCH  19 103
ATOM    103  O   UNL     1     143.306 162.583 184.133  0.00  0.00    -0.385 OA
ATOM    104  H   UNL     1     142.662 161.882 183.925  0.00  0.00    +0.210 HD
ENDBRANCH  19 103
BRANCH  18 105
ATOM    105  O   UNL     1     141.916 162.467 187.543  0.00  0.00    -0.377 OA
BRANCH 105 106
ATOM    106  C   UNL     1     140.964 163.482 187.828  0.00  0.00    +0.037 C 
ATOM    107  H   UNL     1     140.926 163.722 188.896  0.00  0.00    +0.052 HD
ATOM    108  H   UNL     1     141.252 164.384 187.281  0.00  0.00    +0.052 HD
ATOM    109  H   UNL     1     139.974 163.169 187.481  0.00  0.00    +0.052 HD
ENDBRANCH 105 106
ENDBRANCH  18 105
BRANCH   9 110
ATOM    110  O   UNL     1     147.719 159.361 189.357  0.00  0.00    -0.377 OA
BRANCH 110 111
ATOM    111  C   UNL     1     147.891 158.130 190.050  0.00  0.00    +0.037 C 
ATOM    112  H   UNL     1     148.696 157.549 189.594  0.00  0.00    +0.052 HD
ATOM    113  H   UNL     1     146.963 157.559 189.968  0.00  0.00    +0.052 HD
ATOM    114  H   UNL     1     148.103 158.300 191.111  0.00  0.00    +0.052 HD
ENDBRANCH 110 111
ENDBRANCH   9 110
BRANCH   5 115
ATOM    115  O   UNL     1     151.221 160.527 187.383  0.00  0.00    -0.377 OA
BRANCH 115 116
ATOM    116  C   UNL     1     152.214 159.610 187.821  0.00  0.00    +0.037 C 
ATOM    117  H   UNL     1     153.068 159.615 187.137  0.00  0.00    +0.052 HD
ATOM    118  H   UNL     1     152.552 159.844 188.833  0.00  0.00    +0.052 HD
ATOM    119  H   UNL     1     151.778 158.608 187.821  0.00  0.00    +0.052 HD
ENDBRANCH 115 116
ENDBRANCH   5 115
BRANCH   3 120
ATOM    120  O   UNL     1     151.684 162.436 189.439  0.00  0.00    -0.379 OA
BRANCH 120 121
ATOM    121  C   UNL     1     152.471 162.149 190.588  0.00  0.00    +0.037 C 
ATOM    122  H   UNL     1     152.619 161.067 190.637  0.00  0.00    +0.052 HD
ATOM    123  H   UNL     1     151.952 162.467 191.495  0.00  0.00    +0.052 HD
ATOM    124  H   UNL     1     153.450 162.630 190.526  0.00  0.00    +0.052 HD
ENDBRANCH 120 121
ENDBRANCH   3 120
TORSDOF 23
ENDMDL
MODEL 7
REMARK VINA RESULT:      -5.2      3.929      6.176
REMARK  Name = Lobophorolide_conf3
REMARK  23 active torsions:
REMARK  status: ('A' for Active; 'I' for Inactive)
REMARK    1  A    between atoms: C_1  and  C_2
REMARK    2  A    between atoms: C_4  and  O_53
REMARK    3  A    between atoms: C_6  and  C_8
REMARK    4  A    between atoms: C_8  and  C_9
REMARK    5  A    between atoms: C_9  and  C_10
REMARK    6  A    between atoms: C_10  and  C_11
REMARK    7  A    between atoms: C_10  and  C_12
REMARK    8  A    between atoms: C_12  and  C_13
REMARK    9  A    between atoms: C_12  and  O_52
REMARK   10  A    between atoms: C_13  and  C_14
REMARK   11  A    between atoms: C_13  and  C_15
REMARK   12  A    between atoms: C_16  and  C_51
REMARK   13  A    between atoms: C_17  and  O_49
REMARK   14  A    between atoms: C_19  and  O_47
REMARK   15  A    between atoms: C_23  and  O_45
REMARK   16  A    between atoms: C_32  and  O_43
REMARK   17  A    between atoms: C_33  and  O_42
REMARK   18  A    between atoms: C_35  and  C_41
REMARK   19  A    between atoms: O_43  and  C_44
REMARK   20  A    between atoms: O_45  and  C_46
REMARK   21  A    between atoms: O_47  and  C_48
REMARK   22  A    between atoms: O_49  and  C_50
REMARK   23  A    between atoms: O_53  and  C_54
REMARK                            x       y       z     vdW  Elec       q    Type
REMARK                         _______ _______ _______ _____ _____    ______ ____
ROOT
ATOM      1  C   UNL     1     149.692 165.947 190.602  0.00  0.00    +0.113 C 
ATOM      2  C   UNL     1     148.719 166.023 189.380  0.00  0.00    +0.020 C 
ATOM      3  C   UNL     1     148.425 164.715 188.592  0.00  0.00    +0.067 C 
ATOM      4  C   UNL     1     149.673 163.964 188.070  0.00  0.00    +0.003 C 
ATOM      5  C   UNL     1     149.288 162.734 187.216  0.00  0.00    +0.094 C 
ATOM      6  C   UNL     1     150.430 162.297 186.292  0.00  0.00    +0.145 C 
ATOM      7  C   UNL     1     151.437 161.272 186.804  0.00  0.00    +0.083 C 
ATOM      8  O   UNL     1     150.375 160.894 185.926  0.00  0.00    -0.363 OA
ATOM      9  C   UNL     1     150.761 163.157 185.068  0.00  0.00    +0.094 C 
ATOM     10  C   UNL     1     152.134 163.838 185.193  0.00  0.00    +0.003 C 
ATOM     11  C   UNL     1     152.497 164.780 184.025  0.00  0.00    +0.065 C 
ATOM     12  C   UNL     1     152.480 164.161 182.617  0.00  0.00    -0.008 C 
ATOM     13  C   UNL     1     153.673 163.287 182.385  0.00  0.00    -0.083 C 
ATOM     14  C   UNL     1     154.780 163.448 183.124  0.00  0.00    -0.059 C 
ATOM     15  C   UNL     1     154.908 164.499 184.211  0.00  0.00    +0.080 C 
ATOM     16  O   UNL     1     153.784 165.391 184.236  0.00  0.00    -0.369 OA
ATOM     17  C   UNL     1     156.193 165.310 183.993  0.00  0.00    +0.006 C 
ATOM     18  C   UNL     1     156.534 166.388 185.049  0.00  0.00    +0.090 C 
ATOM     19  C   UNL     1     156.548 165.898 186.528  0.00  0.00    +0.100 C 
ATOM     20  C   UNL     1     155.219 165.910 187.245  0.00  0.00    -0.051 C 
ATOM     21  C   UNL     1     155.010 166.123 188.561  0.00  0.00    -0.052 C 
ATOM     22  C   UNL     1     153.636 166.219 189.048  0.00  0.00    -0.052 C 
ATOM     23  C   UNL     1     153.283 166.693 190.251  0.00  0.00    +0.023 C 
ATOM     24  C   UNL     1     151.895 166.837 190.717  0.00  0.00    +0.332 C 
ATOM     25  O   UNL     1     151.604 167.628 191.601  0.00  0.00    -0.246 OA
ATOM     26  O   UNL     1     151.057 165.952 190.113  0.00  0.00    -0.458 OA
ATOM     27  H   UNL     1     149.508 166.874 191.154  0.00  0.00    +0.074 HD
ATOM     28  H   UNL     1     147.757 166.353 189.799  0.00  0.00    +0.036 HD
ATOM     29  H   UNL     1     147.834 164.983 187.706  0.00  0.00    +0.060 HD
ATOM     30  H   UNL     1     150.290 163.619 188.907  0.00  0.00    +0.032 HD
ATOM     31  H   UNL     1     150.278 164.659 187.479  0.00  0.00    +0.032 HD
ATOM     32  H   UNL     1     148.406 162.974 186.610  0.00  0.00    +0.063 HD
ATOM     33  H   UNL     1     152.441 161.234 186.404  0.00  0.00    +0.059 HD
ATOM     34  H   UNL     1     151.375 160.953 187.839  0.00  0.00    +0.059 HD
ATOM     35  H   UNL     1     150.783 162.506 184.183  0.00  0.00    +0.063 HD
ATOM     36  H   UNL     1     152.907 163.072 185.311  0.00  0.00    +0.032 HD
ATOM     37  H   UNL     1     152.172 164.426 186.118  0.00  0.00    +0.032 HD
ATOM     38  H   UNL     1     151.776 165.606 184.029  0.00  0.00    +0.060 HD
ATOM     39  H   UNL     1     152.526 164.968 181.875  0.00  0.00    +0.033 HD
ATOM     40  H   UNL     1     151.557 163.610 182.428  0.00  0.00    +0.033 HD
ATOM     41  H   UNL     1     153.634 162.538 181.600  0.00  0.00    +0.057 HD
ATOM     42  H   UNL     1     155.632 162.792 182.964  0.00  0.00    +0.059 HD
ATOM     43  H   UNL     1     154.963 163.974 185.169  0.00  0.00    +0.064 HD
ATOM     44  H   UNL     1     157.043 164.616 183.939  0.00  0.00    +0.032 HD
ATOM     45  H   UNL     1     156.124 165.798 183.014  0.00  0.00    +0.032 HD
ATOM     46  H   UNL     1     157.571 166.686 184.833  0.00  0.00    +0.063 HD
ATOM     47  H   UNL     1     157.222 166.581 187.059  0.00  0.00    +0.066 HD
ATOM     48  H   UNL     1     154.355 165.847 186.592  0.00  0.00    +0.060 HD
ATOM     49  H   UNL     1     152.856 165.926 188.348  0.00  0.00    +0.062 HD
ATOM     50  H   UNL     1     154.008 167.071 190.960  0.00  0.00    +0.069 HD
ENDROOT
BRANCH  21  51
ATOM     51  C   UNL     1     156.129 166.267 189.562  0.00  0.00    -0.040 C 
ATOM     52  H   UNL     1     157.112 166.375 189.093  0.00  0.00    +0.028 HD
ATOM     53  H   UNL     1     155.965 167.150 190.193  0.00  0.00    +0.028 HD
ATOM     54  H   UNL     1     156.200 165.383 190.207  0.00  0.00    +0.028 HD
ENDBRANCH  21  51
BRANCH   2  55
ATOM     55  C   UNL     1     149.155 167.136 188.412  0.00  0.00    -0.057 C 
ATOM     56  H   UNL     1     150.162 166.936 188.025  0.00  0.00    +0.023 HD
ATOM     57  H   UNL     1     148.481 167.230 187.556  0.00  0.00    +0.023 HD
ATOM     58  H   UNL     1     149.186 168.104 188.924  0.00  0.00    +0.023 HD
ENDBRANCH   2  55
BRANCH   1  59
ATOM     59  C   UNL     1     149.491 164.753 191.581  0.00  0.00    +0.020 C 
ATOM     60  H   UNL     1     148.713 164.120 191.143  0.00  0.00    +0.036 HD
BRANCH  59  61
ATOM     61  C   UNL     1     150.691 163.795 191.650  0.00  0.00    -0.057 C 
ATOM     62  H   UNL     1     150.470 162.857 191.130  0.00  0.00    +0.023 HD
ATOM     63  H   UNL     1     151.565 164.229 191.151  0.00  0.00    +0.023 HD
ATOM     64  H   UNL     1     150.975 163.559 192.678  0.00  0.00    +0.023 HD
ENDBRANCH  59  61
BRANCH  59  65
ATOM     65  C   UNL     1     149.006 165.184 192.998  0.00  0.00    +0.064 C 
ATOM     66  H   UNL     1     148.763 164.304 193.601  0.00  0.00    +0.060 HD
BRANCH  65  67
ATOM     67  C   UNL     1     147.800 166.174 193.097  0.00  0.00    -0.017 C 
ATOM     68  H   UNL     1     147.266 166.144 192.145  0.00  0.00    +0.032 HD
BRANCH  67  69
ATOM     69  C   UNL     1     146.832 165.773 194.212  0.00  0.00    -0.060 C 
ATOM     70  H   UNL     1     146.123 165.008 193.884  0.00  0.00    +0.023 HD
ATOM     71  H   UNL     1     146.259 166.635 194.568  0.00  0.00    +0.023 HD
ATOM     72  H   UNL     1     147.356 165.330 195.060  0.00  0.00    +0.023 HD
ENDBRANCH  67  69
BRANCH  67  73
ATOM     73  C   UNL     1     148.317 167.627 193.281  0.00  0.00    -0.046 C 
ATOM     74  H   UNL     1     147.751 168.073 194.111  0.00  0.00    +0.027 HD
ATOM     75  H   UNL     1     149.365 167.605 193.610  0.00  0.00    +0.027 HD
BRANCH  73  76
ATOM     76  C   UNL     1     148.216 168.601 192.100  0.00  0.00    -0.026 C 
ATOM     77  H   UNL     1     148.971 168.386 191.336  0.00  0.00    +0.029 HD
ATOM     78  H   UNL     1     147.266 168.378 191.592  0.00  0.00    +0.029 HD
BRANCH  76  83
ATOM     79  C   UNL     1     147.310 171.532 190.672  0.00  0.00    +0.059 C 
ATOM     80  C   UNL     1     148.027 172.756 191.231  0.00  0.00    -0.000 C 
ATOM     81  C   UNL     1     149.310 172.364 191.974  0.00  0.00    +0.063 C 
ATOM     82  C   UNL     1     149.493 170.848 192.063  0.00  0.00    -0.000 C 
ATOM     83  C   UNL     1     148.198 170.110 192.415  0.00  0.00    +0.061 C 
ATOM     84  O   UNL     1     147.037 170.632 191.743  0.00  0.00    -0.373 OA
ATOM     85  H   UNL     1     147.920 171.026 189.914  0.00  0.00    +0.059 HD
ATOM     86  H   UNL     1     148.269 173.452 190.421  0.00  0.00    +0.032 HD
ATOM     87  H   UNL     1     147.353 173.289 191.915  0.00  0.00    +0.032 HD
ATOM     88  H   UNL     1     150.182 172.773 191.449  0.00  0.00    +0.060 HD
ATOM     89  H   UNL     1     149.863 170.494 191.094  0.00  0.00    +0.032 HD
ATOM     90  H   UNL     1     150.258 170.621 192.811  0.00  0.00    +0.032 HD
ATOM     91  H   UNL     1     148.002 170.236 193.487  0.00  0.00    +0.060 HD
BRANCH  79  92
ATOM     92  C   UNL     1     145.982 171.917 190.033  0.00  0.00    -0.039 C 
ATOM     93  H   UNL     1     145.409 172.589 190.678  0.00  0.00    +0.025 HD
ATOM     94  H   UNL     1     146.151 172.412 189.074  0.00  0.00    +0.025 HD
ATOM     95  H   UNL     1     145.374 171.027 189.825  0.00  0.00    +0.025 HD
ENDBRANCH  79  92
BRANCH  81  96
ATOM     96  O   UNL     1     149.299 172.894 193.307  0.00  0.00    -0.380 OA
BRANCH  96  97
ATOM     97  C   UNL     1     148.105 173.604 193.615  0.00  0.00    +0.037 C 
ATOM     98  H   UNL     1     147.429 172.966 194.195  0.00  0.00    +0.052 HD
ATOM     99  H   UNL     1     147.612 173.872 192.677  0.00  0.00    +0.052 HD
ATOM    100  H   UNL     1     148.318 174.524 194.171  0.00  0.00    +0.052 HD
ENDBRANCH  96  97
ENDBRANCH  81  96
ENDBRANCH  76  83
ENDBRANCH  73  76
ENDBRANCH  67  73
ENDBRANCH  65  67
BRANCH  65 101
ATOM    101  O   UNL     1     150.131 165.803 193.644  0.00  0.00    -0.391 OA
ATOM    102  H   UNL     1     149.931 165.804 194.603  0.00  0.00    +0.210 HD
ENDBRANCH  65 101
ENDBRANCH  59  65
ENDBRANCH   1  59
BRANCH  19 103
ATOM    103  O   UNL     1     157.116 164.593 186.614  0.00  0.00    -0.385 OA
ATOM    104  H   UNL     1     156.932 164.254 187.509  0.00  0.00    +0.210 HD
ENDBRANCH  19 103
BRANCH  18 105
ATOM    105  O   UNL     1     155.704 167.553 184.936  0.00  0.00    -0.377 OA
BRANCH 105 106
ATOM    106  C   UNL     1     156.425 168.742 184.644  0.00  0.00    +0.037 C 
ATOM    107  H   UNL     1     157.158 168.593 183.844  0.00  0.00    +0.052 HD
ATOM    108  H   UNL     1     155.710 169.504 184.321  0.00  0.00    +0.052 HD
ATOM    109  H   UNL     1     156.927 169.103 185.548  0.00  0.00    +0.052 HD
ENDBRANCH 105 106
ENDBRANCH  18 105
BRANCH   9 110
ATOM    110  O   UNL     1     149.770 164.179 184.883  0.00  0.00    -0.377 OA
BRANCH 110 111
ATOM    111  C   UNL     1     148.900 163.904 183.791  0.00  0.00    +0.037 C 
ATOM    112  H   UNL     1     148.528 164.837 183.359  0.00  0.00    +0.052 HD
ATOM    113  H   UNL     1     148.047 163.334 184.169  0.00  0.00    +0.052 HD
ATOM    114  H   UNL     1     149.404 163.308 183.023  0.00  0.00    +0.052 HD
ENDBRANCH 110 111
ENDBRANCH   9 110
BRANCH   5 115
ATOM    115  O   UNL     1     148.956 161.671 188.133  0.00  0.00    -0.377 OA
BRANCH 115 116
ATOM    116  C   UNL     1     147.744 161.006 187.802  0.00  0.00    +0.037 C 
ATOM    117  H   UNL     1     147.059 161.690 187.292  0.00  0.00    +0.052 HD
ATOM    118  H   UNL     1     147.931 160.133 187.171  0.00  0.00    +0.052 HD
ATOM    119  H   UNL     1     147.272 160.673 188.729  0.00  0.00    +0.052 HD
ENDBRANCH 115 116
ENDBRANCH   5 115
BRANCH   3 120
ATOM    120  O   UNL     1     147.631 163.838 189.410  0.00  0.00    -0.379 OA
BRANCH 120 121
ATOM    121  C   UNL     1     146.272 164.246 189.515  0.00  0.00    +0.037 C 
ATOM    122  H   UNL     1     146.254 165.307 189.773  0.00  0.00    +0.052 HD
ATOM    123  H   UNL     1     145.768 163.689 190.309  0.00  0.00    +0.052 HD
ATOM    124  H   UNL     1     145.745 164.110 188.567  0.00  0.00    +0.052 HD
ENDBRANCH 120 121
ENDBRANCH   3 120
TORSDOF 23
ENDMDL
MODEL 8
REMARK VINA RESULT:      -5.2      1.350      2.445
REMARK  Name = Lobophorolide_conf3
REMARK  23 active torsions:
REMARK  status: ('A' for Active; 'I' for Inactive)
REMARK    1  A    between atoms: C_1  and  C_2
REMARK    2  A    between atoms: C_4  and  O_53
REMARK    3  A    between atoms: C_6  and  C_8
REMARK    4  A    between atoms: C_8  and  C_9
REMARK    5  A    between atoms: C_9  and  C_10
REMARK    6  A    between atoms: C_10  and  C_11
REMARK    7  A    between atoms: C_10  and  C_12
REMARK    8  A    between atoms: C_12  and  C_13
REMARK    9  A    between atoms: C_12  and  O_52
REMARK   10  A    between atoms: C_13  and  C_14
REMARK   11  A    between atoms: C_13  and  C_15
REMARK   12  A    between atoms: C_16  and  C_51
REMARK   13  A    between atoms: C_17  and  O_49
REMARK   14  A    between atoms: C_19  and  O_47
REMARK   15  A    between atoms: C_23  and  O_45
REMARK   16  A    between atoms: C_32  and  O_43
REMARK   17  A    between atoms: C_33  and  O_42
REMARK   18  A    between atoms: C_35  and  C_41
REMARK   19  A    between atoms: O_43  and  C_44
REMARK   20  A    between atoms: O_45  and  C_46
REMARK   21  A    between atoms: O_47  and  C_48
REMARK   22  A    between atoms: O_49  and  C_50
REMARK   23  A    between atoms: O_53  and  C_54
REMARK                            x       y       z     vdW  Elec       q    Type
REMARK                         _______ _______ _______ _____ _____    ______ ____
ROOT
ATOM      1  C   UNL     1     152.586 165.376 188.498  0.00  0.00    +0.113 C 
ATOM      2  C   UNL     1     151.713 164.690 187.395  0.00  0.00    +0.020 C 
ATOM      3  C   UNL     1     150.651 163.646 187.844  0.00  0.00    +0.067 C 
ATOM      4  C   UNL     1     151.191 162.487 188.714  0.00  0.00    +0.003 C 
ATOM      5  C   UNL     1     150.091 161.446 189.030  0.00  0.00    +0.094 C 
ATOM      6  C   UNL     1     150.684 160.087 189.421  0.00  0.00    +0.145 C 
ATOM      7  C   UNL     1     150.974 159.809 190.892  0.00  0.00    +0.083 C 
ATOM      8  O   UNL     1     149.804 159.290 190.255  0.00  0.00    -0.363 OA
ATOM      9  C   UNL     1     151.322 159.218 188.332  0.00  0.00    +0.094 C 
ATOM     10  C   UNL     1     152.842 159.083 188.516  0.00  0.00    +0.003 C 
ATOM     11  C   UNL     1     153.558 158.280 187.408  0.00  0.00    +0.065 C 
ATOM     12  C   UNL     1     153.053 156.847 187.167  0.00  0.00    -0.008 C 
ATOM     13  C   UNL     1     153.506 155.914 188.246  0.00  0.00    -0.083 C 
ATOM     14  C   UNL     1     154.575 156.220 188.995  0.00  0.00    -0.059 C 
ATOM     15  C   UNL     1     155.385 157.488 188.809  0.00  0.00    +0.080 C 
ATOM     16  O   UNL     1     154.978 158.225 187.647  0.00  0.00    -0.369 OA
ATOM     17  C   UNL     1     156.874 157.135 188.687  0.00  0.00    +0.006 C 
ATOM     18  C   UNL     1     157.871 158.311 188.563  0.00  0.00    +0.090 C 
ATOM     19  C   UNL     1     157.750 159.412 189.660  0.00  0.00    +0.100 C 
ATOM     20  C   UNL     1     156.744 160.505 189.398  0.00  0.00    -0.051 C 
ATOM     21  C   UNL     1     156.825 161.794 189.791  0.00  0.00    -0.052 C 
ATOM     22  C   UNL     1     155.806 162.734 189.332  0.00  0.00    -0.052 C 
ATOM     23  C   UNL     1     155.907 164.069 189.411  0.00  0.00    +0.023 C 
ATOM     24  C   UNL     1     154.902 165.014 188.901  0.00  0.00    +0.332 C 
ATOM     25  O   UNL     1     155.202 166.163 188.616  0.00  0.00    -0.246 OA
ATOM     26  O   UNL     1     153.655 164.472 188.877  0.00  0.00    -0.458 OA
ATOM     27  H   UNL     1     153.018 166.249 187.998  0.00  0.00    +0.074 HD
ATOM     28  H   UNL     1     151.157 165.510 186.918  0.00  0.00    +0.036 HD
ATOM     29  H   UNL     1     150.232 163.185 186.940  0.00  0.00    +0.060 HD
ATOM     30  H   UNL     1     151.582 162.870 189.663  0.00  0.00    +0.032 HD
ATOM     31  H   UNL     1     152.021 162.009 188.184  0.00  0.00    +0.032 HD
ATOM     32  H   UNL     1     149.449 161.319 188.151  0.00  0.00    +0.063 HD
ATOM     33  H   UNL     1     151.731 159.094 191.182  0.00  0.00    +0.059 HD
ATOM     34  H   UNL     1     150.845 160.612 191.609  0.00  0.00    +0.059 HD
ATOM     35  H   UNL     1     150.881 158.213 188.389  0.00  0.00    +0.063 HD
ATOM     36  H   UNL     1     153.049 158.639 189.494  0.00  0.00    +0.032 HD
ATOM     37  H   UNL     1     153.299 160.079 188.552  0.00  0.00    +0.032 HD
ATOM     38  H   UNL     1     153.440 158.832 186.468  0.00  0.00    +0.060 HD
ATOM     39  H   UNL     1     153.475 156.477 186.225  0.00  0.00    +0.033 HD
ATOM     40  H   UNL     1     151.966 156.814 187.061  0.00  0.00    +0.033 HD
ATOM     41  H   UNL     1     152.970 154.982 188.397  0.00  0.00    +0.057 HD
ATOM     42  H   UNL     1     154.881 155.546 189.792  0.00  0.00    +0.059 HD
ATOM     43  H   UNL     1     155.227 158.111 189.694  0.00  0.00    +0.064 HD
ATOM     44  H   UNL     1     157.168 156.540 189.563  0.00  0.00    +0.032 HD
ATOM     45  H   UNL     1     156.998 156.486 187.812  0.00  0.00    +0.032 HD
ATOM     46  H   UNL     1     158.865 157.864 188.710  0.00  0.00    +0.063 HD
ATOM     47  H   UNL     1     158.742 159.875 189.722  0.00  0.00    +0.066 HD
ATOM     48  H   UNL     1     155.937 160.223 188.728  0.00  0.00    +0.060 HD
ATOM     49  H   UNL     1     154.933 162.301 188.849  0.00  0.00    +0.062 HD
ATOM     50  H   UNL     1     156.785 164.560 189.811  0.00  0.00    +0.069 HD
ENDROOT
BRANCH  21  51
ATOM     51  C   UNL     1     157.920 162.316 190.688  0.00  0.00    -0.040 C 
ATOM     52  H   UNL     1     158.051 163.400 190.617  0.00  0.00    +0.028 HD
ATOM     53  H   UNL     1     157.699 162.077 191.736  0.00  0.00    +0.028 HD
ATOM     54  H   UNL     1     158.890 161.878 190.425  0.00  0.00    +0.028 HD
ENDBRANCH  21  51
BRANCH   2  55
ATOM     55  C   UNL     1     152.606 164.095 186.294  0.00  0.00    -0.057 C 
ATOM     56  H   UNL     1     152.356 164.531 185.319  0.00  0.00    +0.023 HD
ATOM     57  H   UNL     1     153.668 164.274 186.478  0.00  0.00    +0.023 HD
ATOM     58  H   UNL     1     152.455 163.012 186.219  0.00  0.00    +0.023 HD
ENDBRANCH   2  55
BRANCH   1  59
ATOM     59  C   UNL     1     151.840 165.869 189.773  0.00  0.00    +0.020 C 
ATOM     60  H   UNL     1     150.770 165.797 189.554  0.00  0.00    +0.036 HD
BRANCH  59  61
ATOM     61  C   UNL     1     151.988 164.932 190.982  0.00  0.00    -0.057 C 
ATOM     62  H   UNL     1     151.945 163.883 190.669  0.00  0.00    +0.023 HD
ATOM     63  H   UNL     1     152.961 165.072 191.467  0.00  0.00    +0.023 HD
ATOM     64  H   UNL     1     151.213 165.098 191.734  0.00  0.00    +0.023 HD
ENDBRANCH  59  61
BRANCH  59  65
ATOM     65  C   UNL     1     152.147 167.351 190.141  0.00  0.00    +0.064 C 
ATOM     66  H   UNL     1     153.189 167.456 190.461  0.00  0.00    +0.060 HD
BRANCH  65  67
ATOM     67  C   UNL     1     151.249 168.048 191.214  0.00  0.00    -0.017 C 
ATOM     68  H   UNL     1     151.403 167.531 192.163  0.00  0.00    +0.032 HD
BRANCH  67  69
ATOM     69  C   UNL     1     151.624 169.520 191.393  0.00  0.00    -0.060 C 
ATOM     70  H   UNL     1     152.091 169.709 192.364  0.00  0.00    +0.023 HD
ATOM     71  H   UNL     1     150.745 170.167 191.309  0.00  0.00    +0.023 HD
ATOM     72  H   UNL     1     152.362 169.841 190.656  0.00  0.00    +0.023 HD
ENDBRANCH  67  69
BRANCH  67  73
ATOM     73  C   UNL     1     149.750 167.878 190.844  0.00  0.00    -0.046 C 
ATOM     74  H   UNL     1     149.680 167.888 189.747  0.00  0.00    +0.027 HD
ATOM     75  H   UNL     1     149.403 166.885 191.159  0.00  0.00    +0.027 HD
BRANCH  73  76
ATOM     76  C   UNL     1     148.741 168.913 191.361  0.00  0.00    -0.026 C 
ATOM     77  H   UNL     1     149.220 169.648 192.018  0.00  0.00    +0.029 HD
ATOM     78  H   UNL     1     148.432 169.511 190.491  0.00  0.00    +0.029 HD
BRANCH  76  83
ATOM     79  C   UNL     1     147.734 166.661 193.679  0.00  0.00    +0.059 C 
ATOM     80  C   UNL     1     146.293 166.189 193.516  0.00  0.00    -0.000 C 
ATOM     81  C   UNL     1     145.768 166.468 192.103  0.00  0.00    +0.063 C 
ATOM     82  C   UNL     1     146.772 167.242 191.248  0.00  0.00    -0.000 C 
ATOM     83  C   UNL     1     147.445 168.388 192.010  0.00  0.00    +0.061 C 
ATOM     84  O   UNL     1     147.798 168.050 193.364  0.00  0.00    -0.373 OA
ATOM     85  H   UNL     1     148.412 166.104 193.021  0.00  0.00    +0.059 HD
ATOM     86  H   UNL     1     146.223 165.117 193.729  0.00  0.00    +0.032 HD
ATOM     87  H   UNL     1     145.659 166.700 194.253  0.00  0.00    +0.032 HD
ATOM     88  H   UNL     1     145.558 165.520 191.591  0.00  0.00    +0.060 HD
ATOM     89  H   UNL     1     147.535 166.538 190.900  0.00  0.00    +0.032 HD
ATOM     90  H   UNL     1     146.263 167.639 190.366  0.00  0.00    +0.032 HD
ATOM     91  H   UNL     1     146.737 169.222 192.087  0.00  0.00    +0.060 HD
BRANCH  79  92
ATOM     92  C   UNL     1     148.212 166.483 195.114  0.00  0.00    -0.039 C 
ATOM     93  H   UNL     1     149.283 166.678 195.205  0.00  0.00    +0.025 HD
ATOM     94  H   UNL     1     147.674 167.163 195.779  0.00  0.00    +0.025 HD
ATOM     95  H   UNL     1     148.007 165.466 195.472  0.00  0.00    +0.025 HD
ENDBRANCH  79  92
BRANCH  81  96
ATOM     96  O   UNL     1     144.550 167.224 192.161  0.00  0.00    -0.380 OA
BRANCH  96  97
ATOM     97  C   UNL     1     143.965 167.439 190.881  0.00  0.00    +0.037 C 
ATOM     98  H   UNL     1     143.162 166.713 190.710  0.00  0.00    +0.052 HD
ATOM     99  H   UNL     1     144.737 167.291 190.121  0.00  0.00    +0.052 HD
ATOM    100  H   UNL     1     143.574 168.458 190.786  0.00  0.00    +0.052 HD
ENDBRANCH  96  97
ENDBRANCH  81  96
ENDBRANCH  76  83
ENDBRANCH  73  76
ENDBRANCH  67  73
ENDBRANCH  65  67
BRANCH  65 101
ATOM    101  O   UNL     1     152.035 168.106 188.923  0.00  0.00    -0.391 OA
ATOM    102  H   UNL     1     152.316 167.506 188.200  0.00  0.00    +0.210 HD
ENDBRANCH  65 101
ENDBRANCH  59  65
ENDBRANCH   1  59
BRANCH  19 103
ATOM    103  O   UNL     1     157.480 158.820 190.930  0.00  0.00    -0.385 OA
ATOM    104  H   UNL     1     157.092 157.942 190.765  0.00  0.00    +0.210 HD
ENDBRANCH  19 103
BRANCH  18 105
ATOM    105  O   UNL     1     157.845 158.922 187.265  0.00  0.00    -0.377 OA
BRANCH 105 106
ATOM    106  C   UNL     1     158.264 158.058 186.219  0.00  0.00    +0.037 C 
ATOM    107  H   UNL     1     158.422 157.033 186.569  0.00  0.00    +0.052 HD
ATOM    108  H   UNL     1     157.482 158.045 185.453  0.00  0.00    +0.052 HD
ATOM    109  H   UNL     1     159.184 158.443 185.765  0.00  0.00    +0.052 HD
ENDBRANCH 105 106
ENDBRANCH  18 105
BRANCH   9 110
ATOM    110  O   UNL     1     151.075 159.772 187.030  0.00  0.00    -0.377 OA
BRANCH 110 111
ATOM    111  C   UNL     1     150.100 159.037 186.300  0.00  0.00    +0.037 C 
ATOM    112  H   UNL     1     150.465 158.029 186.089  0.00  0.00    +0.052 HD
ATOM    113  H   UNL     1     149.927 159.548 185.350  0.00  0.00    +0.052 HD
ATOM    114  H   UNL     1     149.151 158.987 186.846  0.00  0.00    +0.052 HD
ENDBRANCH 110 111
ENDBRANCH   9 110
BRANCH   5 115
ATOM    115  O   UNL     1     149.307 161.978 190.117  0.00  0.00    -0.377 OA
BRANCH 115 116
ATOM    116  C   UNL     1     147.907 161.880 189.895  0.00  0.00    +0.037 C 
ATOM    117  H   UNL     1     147.446 161.221 190.637  0.00  0.00    +0.052 HD
ATOM    118  H   UNL     1     147.431 162.863 189.929  0.00  0.00    +0.052 HD
ATOM    119  H   UNL     1     147.747 161.448 188.904  0.00  0.00    +0.052 HD
ENDBRANCH 115 116
ENDBRANCH   5 115
BRANCH   3 120
ATOM    120  O   UNL     1     149.585 164.323 188.534  0.00  0.00    -0.379 OA
BRANCH 120 121
ATOM    121  C   UNL     1     148.781 165.124 187.677  0.00  0.00    +0.037 C 
ATOM    122  H   UNL     1     148.451 164.504 186.840  0.00  0.00    +0.052 HD
ATOM    123  H   UNL     1     149.364 165.959 187.278  0.00  0.00    +0.052 HD
ATOM    124  H   UNL     1     147.898 165.499 188.201  0.00  0.00    +0.052 HD
ENDBRANCH 120 121
ENDBRANCH   3 120
TORSDOF 23
ENDMDL
MODEL 9
REMARK VINA RESULT:      -5.2      5.219     11.345
REMARK  Name = Lobophorolide_conf3
REMARK  23 active torsions:
REMARK  status: ('A' for Active; 'I' for Inactive)
REMARK    1  A    between atoms: C_1  and  C_2
REMARK    2  A    between atoms: C_4  and  O_53
REMARK    3  A    between atoms: C_6  and  C_8
REMARK    4  A    between atoms: C_8  and  C_9
REMARK    5  A    between atoms: C_9  and  C_10
REMARK    6  A    between atoms: C_10  and  C_11
REMARK    7  A    between atoms: C_10  and  C_12
REMARK    8  A    between atoms: C_12  and  C_13
REMARK    9  A    between atoms: C_12  and  O_52
REMARK   10  A    between atoms: C_13  and  C_14
REMARK   11  A    between atoms: C_13  and  C_15
REMARK   12  A    between atoms: C_16  and  C_51
REMARK   13  A    between atoms: C_17  and  O_49
REMARK   14  A    between atoms: C_19  and  O_47
REMARK   15  A    between atoms: C_23  and  O_45
REMARK   16  A    between atoms: C_32  and  O_43
REMARK   17  A    between atoms: C_33  and  O_42
REMARK   18  A    between atoms: C_35  and  C_41
REMARK   19  A    between atoms: O_43  and  C_44
REMARK   20  A    between atoms: O_45  and  C_46
REMARK   21  A    between atoms: O_47  and  C_48
REMARK   22  A    between atoms: O_49  and  C_50
REMARK   23  A    between atoms: O_53  and  C_54
REMARK                            x       y       z     vdW  Elec       q    Type
REMARK                         _______ _______ _______ _____ _____    ______ ____
ROOT
ATOM      1  C   UNL     1     147.597 166.306 190.901  0.00  0.00    +0.113 C 
ATOM      2  C   UNL     1     148.251 167.545 190.206  0.00  0.00    +0.020 C 
ATOM      3  C   UNL     1     147.463 168.886 190.204  0.00  0.00    +0.067 C 
ATOM      4  C   UNL     1     146.028 168.808 189.631  0.00  0.00    +0.003 C 
ATOM      5  C   UNL     1     145.356 170.200 189.574  0.00  0.00    +0.094 C 
ATOM      6  C   UNL     1     144.196 170.237 188.573  0.00  0.00    +0.145 C 
ATOM      7  C   UNL     1     142.793 169.892 189.063  0.00  0.00    +0.083 C 
ATOM      8  O   UNL     1     143.201 171.249 188.876  0.00  0.00    -0.363 OA
ATOM      9  C   UNL     1     144.512 170.228 187.074  0.00  0.00    +0.094 C 
ATOM     10  C   UNL     1     144.061 168.924 186.395  0.00  0.00    +0.003 C 
ATOM     11  C   UNL     1     144.418 168.820 184.896  0.00  0.00    +0.065 C 
ATOM     12  C   UNL     1     143.899 169.948 183.989  0.00  0.00    -0.008 C 
ATOM     13  C   UNL     1     142.431 169.814 183.729  0.00  0.00    -0.083 C 
ATOM     14  C   UNL     1     141.827 168.626 183.875  0.00  0.00    -0.059 C 
ATOM     15  C   UNL     1     142.562 167.366 184.293  0.00  0.00    +0.080 C 
ATOM     16  O   UNL     1     143.983 167.561 184.349  0.00  0.00    -0.369 OA
ATOM     17  C   UNL     1     142.245 166.234 183.306  0.00  0.00    +0.006 C 
ATOM     18  C   UNL     1     142.850 164.843 183.610  0.00  0.00    +0.090 C 
ATOM     19  C   UNL     1     142.578 164.291 185.041  0.00  0.00    +0.100 C 
ATOM     20  C   UNL     1     143.547 164.720 186.115  0.00  0.00    -0.051 C 
ATOM     21  C   UNL     1     143.926 164.008 187.198  0.00  0.00    -0.052 C 
ATOM     22  C   UNL     1     144.974 164.546 188.062  0.00  0.00    -0.052 C 
ATOM     23  C   UNL     1     145.633 163.842 188.993  0.00  0.00    +0.023 C 
ATOM     24  C   UNL     1     146.723 164.373 189.825  0.00  0.00    +0.332 C 
ATOM     25  O   UNL     1     147.548 163.631 190.335  0.00  0.00    -0.246 OA
ATOM     26  O   UNL     1     146.628 165.719 189.996  0.00  0.00    -0.458 OA
ATOM     27  H   UNL     1     148.425 165.604 191.040  0.00  0.00    +0.074 HD
ATOM     28  H   UNL     1     149.178 167.732 190.765  0.00  0.00    +0.036 HD
ATOM     29  H   UNL     1     148.011 169.595 189.569  0.00  0.00    +0.060 HD
ATOM     30  H   UNL     1     145.404 168.152 190.248  0.00  0.00    +0.032 HD
ATOM     31  H   UNL     1     146.075 168.372 188.628  0.00  0.00    +0.032 HD
ATOM     32  H   UNL     1     146.102 170.952 189.289  0.00  0.00    +0.063 HD
ATOM     33  H   UNL     1     142.047 169.507 188.381  0.00  0.00    +0.059 HD
ATOM     34  H   UNL     1     142.669 169.538 190.080  0.00  0.00    +0.059 HD
ATOM     35  H   UNL     1     143.975 171.062 186.602  0.00  0.00    +0.063 HD
ATOM     36  H   UNL     1     142.983 168.801 186.533  0.00  0.00    +0.032 HD
ATOM     37  H   UNL     1     144.515 168.066 186.905  0.00  0.00    +0.032 HD
ATOM     38  H   UNL     1     145.513 168.811 184.815  0.00  0.00    +0.060 HD
ATOM     39  H   UNL     1     144.403 169.882 183.017  0.00  0.00    +0.033 HD
ATOM     40  H   UNL     1     144.129 170.934 184.398  0.00  0.00    +0.033 HD
ATOM     41  H   UNL     1     141.871 170.685 183.403  0.00  0.00    +0.057 HD
ATOM     42  H   UNL     1     140.756 168.544 183.707  0.00  0.00    +0.059 HD
ATOM     43  H   UNL     1     142.204 167.094 185.290  0.00  0.00    +0.064 HD
ATOM     44  H   UNL     1     141.155 166.116 183.242  0.00  0.00    +0.032 HD
ATOM     45  H   UNL     1     142.585 166.546 182.312  0.00  0.00    +0.032 HD
ATOM     46  H   UNL     1     142.335 164.149 182.929  0.00  0.00    +0.063 HD
ATOM     47  H   UNL     1     142.636 163.200 184.952  0.00  0.00    +0.066 HD
ATOM     48  H   UNL     1     144.060 165.655 185.912  0.00  0.00    +0.060 HD
ATOM     49  H   UNL     1     145.259 165.581 187.886  0.00  0.00    +0.062 HD
ATOM     50  H   UNL     1     145.447 162.789 189.161  0.00  0.00    +0.069 HD
ENDROOT
BRANCH  21  51
ATOM     51  C   UNL     1     143.317 162.677 187.565  0.00  0.00    -0.040 C 
ATOM     52  H   UNL     1     143.661 161.858 186.925  0.00  0.00    +0.028 HD
ATOM     53  H   UNL     1     143.568 162.416 188.600  0.00  0.00    +0.028 HD
ATOM     54  H   UNL     1     142.226 162.699 187.463  0.00  0.00    +0.028 HD
ENDBRANCH  21  51
BRANCH   2  55
ATOM     55  C   UNL     1     148.691 167.190 188.776  0.00  0.00    -0.057 C 
ATOM     56  H   UNL     1     148.463 168.013 188.088  0.00  0.00    +0.023 HD
ATOM     57  H   UNL     1     149.763 166.986 188.710  0.00  0.00    +0.023 HD
ATOM     58  H   UNL     1     148.157 166.304 188.416  0.00  0.00    +0.023 HD
ENDBRANCH   2  55
BRANCH   1  59
ATOM     59  C   UNL     1     146.936 166.552 192.289  0.00  0.00    +0.020 C 
ATOM     60  H   UNL     1     147.047 167.620 192.501  0.00  0.00    +0.036 HD
BRANCH  59  61
ATOM     61  C   UNL     1     145.408 166.378 192.291  0.00  0.00    -0.057 C 
ATOM     62  H   UNL     1     144.937 167.087 192.979  0.00  0.00    +0.023 HD
ATOM     63  H   UNL     1     144.992 166.583 191.298  0.00  0.00    +0.023 HD
ATOM     64  H   UNL     1     145.106 165.368 192.579  0.00  0.00    +0.023 HD
ENDBRANCH  59  61
BRANCH  59  65
ATOM     65  C   UNL     1     147.614 165.767 193.451  0.00  0.00    +0.064 C 
ATOM     66  H   UNL     1     146.856 165.318 194.101  0.00  0.00    +0.060 HD
BRANCH  65  67
ATOM     67  C   UNL     1     148.629 166.529 194.364  0.00  0.00    -0.017 C 
ATOM     68  H   UNL     1     148.642 167.573 194.048  0.00  0.00    +0.032 HD
BRANCH  67  69
ATOM     69  C   UNL     1     148.217 166.471 195.837  0.00  0.00    -0.060 C 
ATOM     70  H   UNL     1     147.853 167.437 196.199  0.00  0.00    +0.023 HD
ATOM     71  H   UNL     1     149.054 166.166 196.471  0.00  0.00    +0.023 HD
ATOM     72  H   UNL     1     147.390 165.778 195.996  0.00  0.00    +0.023 HD
ENDBRANCH  67  69
BRANCH  67  73
ATOM     73  C   UNL     1     150.063 165.971 194.148  0.00  0.00    -0.046 C 
ATOM     74  H   UNL     1     150.445 165.662 195.130  0.00  0.00    +0.027 HD
ATOM     75  H   UNL     1     150.014 165.057 193.543  0.00  0.00    +0.027 HD
BRANCH  73  76
ATOM     76  C   UNL     1     151.125 166.888 193.527  0.00  0.00    -0.026 C 
ATOM     77  H   UNL     1     151.023 167.920 193.883  0.00  0.00    +0.029 HD
ATOM     78  H   UNL     1     152.093 166.570 193.941  0.00  0.00    +0.029 HD
BRANCH  76  83
ATOM     79  C   UNL     1     151.764 164.711 191.016  0.00  0.00    +0.059 C 
ATOM     80  C   UNL     1     152.338 165.351 189.756  0.00  0.00    -0.000 C 
ATOM     81  C   UNL     1     152.927 166.736 190.049  0.00  0.00    +0.063 C 
ATOM     82  C   UNL     1     152.697 167.175 191.496  0.00  0.00    -0.000 C 
ATOM     83  C   UNL     1     151.281 166.870 191.994  0.00  0.00    +0.061 C 
ATOM     84  O   UNL     1     150.785 165.587 191.568  0.00  0.00    -0.373 OA
ATOM     85  H   UNL     1     152.548 164.523 191.759  0.00  0.00    +0.059 HD
ATOM     86  H   UNL     1     153.112 164.705 189.327  0.00  0.00    +0.032 HD
ATOM     87  H   UNL     1     151.545 165.439 189.002  0.00  0.00    +0.032 HD
ATOM     88  H   UNL     1     154.010 166.723 189.875  0.00  0.00    +0.060 HD
ATOM     89  H   UNL     1     153.426 166.655 192.128  0.00  0.00    +0.032 HD
ATOM     90  H   UNL     1     152.892 168.247 191.582  0.00  0.00    +0.032 HD
ATOM     91  H   UNL     1     150.593 167.610 191.569  0.00  0.00    +0.060 HD
BRANCH  79  92
ATOM     92  C   UNL     1     151.082 163.387 190.698  0.00  0.00    -0.039 C 
ATOM     93  H   UNL     1     151.776 162.548 190.792  0.00  0.00    +0.025 HD
ATOM     94  H   UNL     1     150.240 163.223 191.374  0.00  0.00    +0.025 HD
ATOM     95  H   UNL     1     150.672 163.393 189.680  0.00  0.00    +0.025 HD
ENDBRANCH  79  92
BRANCH  81  96
ATOM     96  O   UNL     1     152.346 167.721 189.183  0.00  0.00    -0.380 OA
BRANCH  96  97
ATOM     97  C   UNL     1     152.308 167.312 187.820  0.00  0.00    +0.037 C 
ATOM     98  H   UNL     1     153.324 167.117 187.459  0.00  0.00    +0.052 HD
ATOM     99  H   UNL     1     151.878 168.125 187.228  0.00  0.00    +0.052 HD
ATOM    100  H   UNL     1     151.687 166.419 187.687  0.00  0.00    +0.052 HD
ENDBRANCH  96  97
ENDBRANCH  81  96
ENDBRANCH  76  83
ENDBRANCH  73  76
ENDBRANCH  67  73
ENDBRANCH  65  67
BRANCH  65 101
ATOM    101  O   UNL     1     148.313 164.667 192.847  0.00  0.00    -0.391 OA
ATOM    102  H   UNL     1     149.046 164.438 193.457  0.00  0.00    +0.210 HD
ENDBRANCH  65 101
ENDBRANCH  59  65
ENDBRANCH   1  59
BRANCH  19 103
ATOM    103  O   UNL     1     141.250 164.610 185.453  0.00  0.00    -0.385 OA
ATOM    104  H   UNL     1     140.886 165.238 184.802  0.00  0.00    +0.210 HD
ENDBRANCH  19 103
BRANCH  18 105
ATOM    105  O   UNL     1     144.256 164.779 183.330  0.00  0.00    -0.377 OA
BRANCH 105 106
ATOM    106  C   UNL     1     144.574 164.958 181.957  0.00  0.00    +0.037 C 
ATOM    107  H   UNL     1     145.322 165.743 181.806  0.00  0.00    +0.052 HD
ATOM    108  H   UNL     1     144.979 164.017 181.575  0.00  0.00    +0.052 HD
ATOM    109  H   UNL     1     143.665 165.196 181.393  0.00  0.00    +0.052 HD
ENDBRANCH 105 106
ENDBRANCH  18 105
BRANCH   9 110
ATOM    110  O   UNL     1     145.923 170.384 186.852  0.00  0.00    -0.377 OA
BRANCH 110 111
ATOM    111  C   UNL     1     146.252 171.659 186.311  0.00  0.00    +0.037 C 
ATOM    112  H   UNL     1     146.516 171.565 185.254  0.00  0.00    +0.052 HD
ATOM    113  H   UNL     1     147.119 172.046 186.850  0.00  0.00    +0.052 HD
ATOM    114  H   UNL     1     145.424 172.365 186.430  0.00  0.00    +0.052 HD
ENDBRANCH 110 111
ENDBRANCH   9 110
BRANCH   5 115
ATOM    115  O   UNL     1     144.876 170.490 190.903  0.00  0.00    -0.377 OA
BRANCH 115 116
ATOM    116  C   UNL     1     145.118 171.833 191.303  0.00  0.00    +0.037 C 
ATOM    117  H   UNL     1     146.185 171.992 191.483  0.00  0.00    +0.052 HD
ATOM    118  H   UNL     1     144.760 172.541 190.551  0.00  0.00    +0.052 HD
ATOM    119  H   UNL     1     144.580 172.013 192.237  0.00  0.00    +0.052 HD
ENDBRANCH 115 116
ENDBRANCH   5 115
BRANCH   3 120
ATOM    120  O   UNL     1     147.430 169.417 191.540  0.00  0.00    -0.379 OA
BRANCH 120 121
ATOM    121  C   UNL     1     148.697 169.879 191.993  0.00  0.00    +0.037 C 
ATOM    122  H   UNL     1     149.310 169.008 192.235  0.00  0.00    +0.052 HD
ATOM    123  H   UNL     1     148.582 170.482 192.897  0.00  0.00    +0.052 HD
ATOM    124  H   UNL     1     149.206 170.456 191.217  0.00  0.00    +0.052 HD
ENDBRANCH 120 121
ENDBRANCH   3 120
TORSDOF 23
ENDMDL
MODEL 10
REMARK VINA RESULT:      -5.2      4.508     11.563
REMARK  Name = Lobophorolide_conf3
REMARK  23 active torsions:
REMARK  status: ('A' for Active; 'I' for Inactive)
REMARK    1  A    between atoms: C_1  and  C_2
REMARK    2  A    between atoms: C_4  and  O_53
REMARK    3  A    between atoms: C_6  and  C_8
REMARK    4  A    between atoms: C_8  and  C_9
REMARK    5  A    between atoms: C_9  and  C_10
REMARK    6  A    between atoms: C_10  and  C_11
REMARK    7  A    between atoms: C_10  and  C_12
REMARK    8  A    between atoms: C_12  and  C_13
REMARK    9  A    between atoms: C_12  and  O_52
REMARK   10  A    between atoms: C_13  and  C_14
REMARK   11  A    between atoms: C_13  and  C_15
REMARK   12  A    between atoms: C_16  and  C_51
REMARK   13  A    between atoms: C_17  and  O_49
REMARK   14  A    between atoms: C_19  and  O_47
REMARK   15  A    between atoms: C_23  and  O_45
REMARK   16  A    between atoms: C_32  and  O_43
REMARK   17  A    between atoms: C_33  and  O_42
REMARK   18  A    between atoms: C_35  and  C_41
REMARK   19  A    between atoms: O_43  and  C_44
REMARK   20  A    between atoms: O_45  and  C_46
REMARK   21  A    between atoms: O_47  and  C_48
REMARK   22  A    between atoms: O_49  and  C_50
REMARK   23  A    between atoms: O_53  and  C_54
REMARK                            x       y       z     vdW  Elec       q    Type
REMARK                         _______ _______ _______ _____ _____    ______ ____
ROOT
ATOM      1  C   UNL     1     148.944 165.201 190.933  0.00  0.00    +0.113 C 
ATOM      2  C   UNL     1     147.805 164.578 190.062  0.00  0.00    +0.020 C 
ATOM      3  C   UNL     1     147.862 164.783 188.521  0.00  0.00    +0.067 C 
ATOM      4  C   UNL     1     147.971 166.254 188.055  0.00  0.00    +0.003 C 
ATOM      5  C   UNL     1     147.921 166.374 186.513  0.00  0.00    +0.094 C 
ATOM      6  C   UNL     1     147.513 167.779 186.060  0.00  0.00    +0.145 C 
ATOM      7  C   UNL     1     148.603 168.819 185.822  0.00  0.00    +0.083 C 
ATOM      8  O   UNL     1     147.992 168.123 184.734  0.00  0.00    -0.363 OA
ATOM      9  C   UNL     1     146.055 168.218 186.232  0.00  0.00    +0.094 C 
ATOM     10  C   UNL     1     145.906 169.334 187.279  0.00  0.00    +0.003 C 
ATOM     11  C   UNL     1     144.450 169.771 187.555  0.00  0.00    +0.065 C 
ATOM     12  C   UNL     1     143.637 170.246 186.339  0.00  0.00    -0.008 C 
ATOM     13  C   UNL     1     144.048 171.618 185.903  0.00  0.00    -0.083 C 
ATOM     14  C   UNL     1     144.670 172.438 186.761  0.00  0.00    -0.059 C 
ATOM     15  C   UNL     1     144.987 172.057 188.195  0.00  0.00    +0.080 C 
ATOM     16  O   UNL     1     144.402 170.799 188.563  0.00  0.00    -0.369 OA
ATOM     17  C   UNL     1     144.475 173.149 189.144  0.00  0.00    +0.006 C 
ATOM     18  C   UNL     1     144.772 172.970 190.652  0.00  0.00    +0.090 C 
ATOM     19  C   UNL     1     146.264 172.712 191.016  0.00  0.00    +0.100 C 
ATOM     20  C   UNL     1     146.723 171.275 190.965  0.00  0.00    -0.051 C 
ATOM     21  C   UNL     1     147.667 170.697 191.737  0.00  0.00    -0.052 C 
ATOM     22  C   UNL     1     147.884 169.257 191.622  0.00  0.00    -0.052 C 
ATOM     23  C   UNL     1     148.575 168.515 192.499  0.00  0.00    +0.023 C 
ATOM     24  C   UNL     1     148.748 167.057 192.407  0.00  0.00    +0.332 C 
ATOM     25  O   UNL     1     149.004 166.388 193.396  0.00  0.00    -0.246 OA
ATOM     26  O   UNL     1     148.667 166.612 191.125  0.00  0.00    -0.458 OA
ATOM     27  H   UNL     1     148.862 164.688 191.896  0.00  0.00    +0.074 HD
ATOM     28  H   UNL     1     147.874 163.494 190.231  0.00  0.00    +0.036 HD
ATOM     29  H   UNL     1     146.927 164.393 188.096  0.00  0.00    +0.060 HD
ATOM     30  H   UNL     1     148.911 166.698 188.401  0.00  0.00    +0.032 HD
ATOM     31  H   UNL     1     147.152 166.825 188.503  0.00  0.00    +0.032 HD
ATOM     32  H   UNL     1     147.205 165.645 186.116  0.00  0.00    +0.063 HD
ATOM     33  H   UNL     1     148.390 169.876 185.909  0.00  0.00    +0.059 HD
ATOM     34  H   UNL     1     149.628 168.566 186.073  0.00  0.00    +0.059 HD
ATOM     35  H   UNL     1     145.693 168.603 185.268  0.00  0.00    +0.063 HD
ATOM     36  H   UNL     1     146.504 170.197 186.972  0.00  0.00    +0.032 HD
ATOM     37  H   UNL     1     146.341 169.008 188.231  0.00  0.00    +0.032 HD
ATOM     38  H   UNL     1     143.922 168.912 187.987  0.00  0.00    +0.060 HD
ATOM     39  H   UNL     1     142.578 170.304 186.621  0.00  0.00    +0.033 HD
ATOM     40  H   UNL     1     143.703 169.542 185.507  0.00  0.00    +0.033 HD
ATOM     41  H   UNL     1     143.818 171.942 184.893  0.00  0.00    +0.057 HD
ATOM     42  H   UNL     1     144.987 173.424 186.428  0.00  0.00    +0.059 HD
ATOM     43  H   UNL     1     146.075 171.978 188.280  0.00  0.00    +0.064 HD
ATOM     44  H   UNL     1     144.899 174.114 188.833  0.00  0.00    +0.032 HD
ATOM     45  H   UNL     1     143.389 173.228 189.015  0.00  0.00    +0.032 HD
ATOM     46  H   UNL     1     144.525 173.938 191.112  0.00  0.00    +0.063 HD
ATOM     47  H   UNL     1     146.382 173.065 192.047  0.00  0.00    +0.066 HD
ATOM     48  H   UNL     1     146.139 170.639 190.306  0.00  0.00    +0.060 HD
ATOM     49  H   UNL     1     147.400 168.762 190.782  0.00  0.00    +0.062 HD
ATOM     50  H   UNL     1     149.015 168.938 193.394  0.00  0.00    +0.069 HD
ENDROOT
BRANCH  21  51
ATOM     51  C   UNL     1     148.515 171.466 192.719  0.00  0.00    -0.040 C 
ATOM     52  H   UNL     1     149.309 170.859 193.166  0.00  0.00    +0.028 HD
ATOM     53  H   UNL     1     148.993 172.319 192.222  0.00  0.00    +0.028 HD
ATOM     54  H   UNL     1     147.914 171.838 193.556  0.00  0.00    +0.028 HD
ENDBRANCH  21  51
BRANCH   2  55
ATOM     55  C   UNL     1     146.426 164.997 190.599  0.00  0.00    -0.057 C 
ATOM     56  H   UNL     1     146.015 165.821 190.003  0.00  0.00    +0.023 HD
ATOM     57  H   UNL     1     145.705 164.175 190.577  0.00  0.00    +0.023 HD
ATOM     58  H   UNL     1     146.505 165.347 191.634  0.00  0.00    +0.023 HD
ENDBRANCH   2  55
BRANCH   1  59
ATOM     59  C   UNL     1     150.400 165.020 190.412  0.00  0.00    +0.020 C 
ATOM     60  H   UNL     1     150.327 164.460 189.474  0.00  0.00    +0.036 HD
BRANCH  59  61
ATOM     61  C   UNL     1     151.067 166.328 189.958  0.00  0.00    -0.057 C 
ATOM     62  H   UNL     1     150.696 167.177 190.543  0.00  0.00    +0.023 HD
ATOM     63  H   UNL     1     152.151 166.290 190.117  0.00  0.00    +0.023 HD
ATOM     64  H   UNL     1     150.891 166.539 188.900  0.00  0.00    +0.023 HD
ENDBRANCH  59  61
BRANCH  59  65
ATOM     65  C   UNL     1     151.311 164.205 191.377  0.00  0.00    +0.064 C 
ATOM     66  H   UNL     1     152.181 164.800 191.674  0.00  0.00    +0.060 HD
BRANCH  65  67
ATOM     67  C   UNL     1     151.832 162.809 190.901  0.00  0.00    -0.017 C 
ATOM     68  H   UNL     1     152.190 162.270 191.780  0.00  0.00    +0.032 HD
BRANCH  67  69
ATOM     69  C   UNL     1     150.722 161.988 190.243  0.00  0.00    -0.060 C 
ATOM     70  H   UNL     1     149.847 162.599 190.002  0.00  0.00    +0.023 HD
ATOM     71  H   UNL     1     150.394 161.171 190.893  0.00  0.00    +0.023 HD
ATOM     72  H   UNL     1     151.044 161.565 189.290  0.00  0.00    +0.023 HD
ENDBRANCH  67  69
BRANCH  67  73
ATOM     73  C   UNL     1     153.050 162.991 189.954  0.00  0.00    -0.046 C 
ATOM     74  H   UNL     1     153.390 164.031 190.053  0.00  0.00    +0.027 HD
ATOM     75  H   UNL     1     153.884 162.368 190.303  0.00  0.00    +0.027 HD
BRANCH  73  76
ATOM     76  C   UNL     1     152.864 162.727 188.454  0.00  0.00    -0.026 C 
ATOM     77  H   UNL     1     153.225 161.731 188.173  0.00  0.00    +0.029 HD
ATOM     78  H   UNL     1     151.779 162.663 188.280  0.00  0.00    +0.029 HD
BRANCH  76  83
ATOM     79  C   UNL     1     154.380 165.753 188.473  0.00  0.00    +0.059 C 
ATOM     80  C   UNL     1     154.182 166.567 187.199  0.00  0.00    -0.000 C 
ATOM     81  C   UNL     1     152.984 166.056 186.388  0.00  0.00    +0.063 C 
ATOM     82  C   UNL     1     152.358 164.801 186.998  0.00  0.00    -0.000 C 
ATOM     83  C   UNL     1     153.401 163.782 187.468  0.00  0.00    +0.061 C 
ATOM     84  O   UNL     1     154.537 164.381 188.120  0.00  0.00    -0.373 OA
ATOM     85  H   UNL     1     153.525 165.861 189.152  0.00  0.00    +0.059 HD
ATOM     86  H   UNL     1     154.034 167.623 187.447  0.00  0.00    +0.032 HD
ATOM     87  H   UNL     1     155.092 166.509 186.587  0.00  0.00    +0.032 HD
ATOM     88  H   UNL     1     152.206 166.829 186.349  0.00  0.00    +0.060 HD
ATOM     89  H   UNL     1     151.740 165.109 187.848  0.00  0.00    +0.032 HD
ATOM     90  H   UNL     1     151.698 164.335 186.261  0.00  0.00    +0.032 HD
ATOM     91  H   UNL     1     153.803 163.262 186.590  0.00  0.00    +0.060 HD
BRANCH  79  92
ATOM     92  C   UNL     1     155.635 166.192 189.216  0.00  0.00    -0.039 C 
ATOM     93  H   UNL     1     156.280 166.805 188.581  0.00  0.00    +0.025 HD
ATOM     94  H   UNL     1     155.368 166.768 190.105  0.00  0.00    +0.025 HD
ATOM     95  H   UNL     1     156.208 165.323 189.565  0.00  0.00    +0.025 HD
ENDBRANCH  79  92
BRANCH  81  96
ATOM     96  O   UNL     1     153.382 165.753 185.043  0.00  0.00    -0.380 OA
BRANCH  96  97
ATOM     97  C   UNL     1     154.720 166.143 184.756  0.00  0.00    +0.037 C 
ATOM     98  H   UNL     1     154.752 166.711 183.819  0.00  0.00    +0.052 HD
ATOM     99  H   UNL     1     155.324 165.240 184.637  0.00  0.00    +0.052 HD
ATOM    100  H   UNL     1     155.146 166.741 185.570  0.00  0.00    +0.052 HD
ENDBRANCH  96  97
ENDBRANCH  81  96
ENDBRANCH  76  83
ENDBRANCH  73  76
ENDBRANCH  67  73
ENDBRANCH  65  67
BRANCH  65 101
ATOM    101  O   UNL     1     150.550 163.998 192.579  0.00  0.00    -0.391 OA
ATOM    102  H   UNL     1     150.774 163.098 192.895  0.00  0.00    +0.210 HD
ENDBRANCH  65 101
ENDBRANCH  59  65
ENDBRANCH   1  59
BRANCH  19 103
ATOM    103  O   UNL     1     147.121 173.507 190.197  0.00  0.00    -0.385 OA
ATOM    104  H   UNL     1     147.688 172.897 189.692  0.00  0.00    +0.210 HD
ENDBRANCH  19 103
BRANCH  18 105
ATOM    105  O   UNL     1     143.948 171.966 191.261  0.00  0.00    -0.377 OA
BRANCH 105 106
ATOM    106  C   UNL     1     142.563 172.283 191.259  0.00  0.00    +0.037 C 
ATOM    107  H   UNL     1     142.311 173.029 192.020  0.00  0.00    +0.052 HD
ATOM    108  H   UNL     1     142.308 172.691 190.277  0.00  0.00    +0.052 HD
ATOM    109  H   UNL     1     141.974 171.374 191.418  0.00  0.00    +0.052 HD
ENDBRANCH 105 106
ENDBRANCH  18 105
BRANCH   9 110
ATOM    110  O   UNL     1     145.236 167.110 186.638  0.00  0.00    -0.377 OA
BRANCH 110 111
ATOM    111  C   UNL     1     144.409 166.628 185.586  0.00  0.00    +0.037 C 
ATOM    112  H   UNL     1     144.956 165.905 184.975  0.00  0.00    +0.052 HD
ATOM    113  H   UNL     1     144.132 167.474 184.953  0.00  0.00    +0.052 HD
ATOM    114  H   UNL     1     143.494 166.172 185.978  0.00  0.00    +0.052 HD
ENDBRANCH 110 111
ENDBRANCH   9 110
BRANCH   5 115
ATOM    115  O   UNL     1     149.240 166.056 186.023  0.00  0.00    -0.377 OA
BRANCH 115 116
ATOM    116  C   UNL     1     149.221 165.230 184.867  0.00  0.00    +0.037 C 
ATOM    117  H   UNL     1     149.982 164.448 184.942  0.00  0.00    +0.052 HD
ATOM    118  H   UNL     1     148.238 164.776 184.720  0.00  0.00    +0.052 HD
ATOM    119  H   UNL     1     149.452 165.852 183.999  0.00  0.00    +0.052 HD
ENDBRANCH 115 116
ENDBRANCH   5 115
BRANCH   3 120
ATOM    120  O   UNL     1     148.951 164.015 187.982  0.00  0.00    -0.379 OA
BRANCH 120 121
ATOM    121  C   UNL     1     148.549 162.748 187.476  0.00  0.00    +0.037 C 
ATOM    122  H   UNL     1     149.339 162.026 187.698  0.00  0.00    +0.052 HD
ATOM    123  H   UNL     1     148.419 162.795 186.392  0.00  0.00    +0.052 HD
ATOM    124  H   UNL     1     147.625 162.409 187.952  0.00  0.00    +0.052 HD
ENDBRANCH 120 121
ENDBRANCH   3 120
TORSDOF 23
ENDMDL
