MODEL 1
REMARK VINA RESULT:      -6.5      0.000      0.000
REMARK  Name = Lobophorolide_conf1
REMARK  23 active torsions:
REMARK  status: ('A' for Active; 'I' for Inactive)
REMARK    1  A    between atoms: C_1  and  C_2
REMARK    2  A    between atoms: C_4  and  O_53
REMARK    3  A    between atoms: C_6  and  C_8
REMARK    4  A    between atoms: C_8  and  C_9
REMARK    5  A    between atoms: C_9  and  C_10
REMARK    6  A    between atoms: C_10  and  C_11
REMARK    7  A    between atoms: C_10  and  C_12
REMARK    8  A    between atoms: C_12  and  C_13
REMARK    9  A    between atoms: C_12  and  O_52
REMARK   10  A    between atoms: C_13  and  C_14
REMARK   11  A    between atoms: C_13  and  C_15
REMARK   12  A    between atoms: C_16  and  C_51
REMARK   13  A    between atoms: C_17  and  O_49
REMARK   14  A    between atoms: C_19  and  O_47
REMARK   15  A    between atoms: C_23  and  O_45
REMARK   16  A    between atoms: C_32  and  O_43
REMARK   17  A    between atoms: C_33  and  O_42
REMARK   18  A    between atoms: C_35  and  C_41
REMARK   19  A    between atoms: O_43  and  C_44
REMARK   20  A    between atoms: O_45  and  C_46
REMARK   21  A    between atoms: O_47  and  C_48
REMARK   22  A    between atoms: O_49  and  C_50
REMARK   23  A    between atoms: O_53  and  C_54
REMARK                            x       y       z     vdW  Elec       q    Type
REMARK                         _______ _______ _______ _____ _____    ______ ____
ROOT
ATOM      1  C   UNL     1     138.897 176.418 195.244  0.00  0.00    +0.113 C 
ATOM      2  C   UNL     1     139.317 177.900 195.498  0.00  0.00    +0.020 C 
ATOM      3  C   UNL     1     138.161 178.709 196.202  0.00  0.00    +0.067 C 
ATOM      4  C   UNL     1     138.607 180.145 196.539  0.00  0.00    +0.003 C 
ATOM      5  C   UNL     1     137.766 180.848 197.613  0.00  0.00    +0.094 C 
ATOM      6  C   UNL     1     137.937 180.368 199.060  0.00  0.00    +0.145 C 
ATOM      7  C   UNL     1     136.858 180.878 200.009  0.00  0.00    +0.083 C 
ATOM      8  O   UNL     1     136.851 179.534 199.519  0.00  0.00    -0.363 OA
ATOM      9  C   UNL     1     139.307 179.898 199.567  0.00  0.00    +0.094 C 
ATOM     10  C   UNL     1     139.532 179.959 201.092  0.00  0.00    +0.003 C 
ATOM     11  C   UNL     1     138.801 178.949 201.989  0.00  0.00    +0.065 C 
ATOM     12  C   UNL     1     139.362 179.076 203.426  0.00  0.00    -0.008 C 
ATOM     13  C   UNL     1     139.045 177.893 204.282  0.00  0.00    -0.083 C 
ATOM     14  C   UNL     1     138.560 176.767 203.744  0.00  0.00    -0.059 C 
ATOM     15  C   UNL     1     138.290 176.606 202.270  0.00  0.00    +0.080 C 
ATOM     16  O   UNL     1     138.984 177.618 201.498  0.00  0.00    -0.369 OA
ATOM     17  C   UNL     1     136.786 176.611 201.946  0.00  0.00    +0.006 C 
ATOM     18  C   UNL     1     135.947 175.482 202.585  0.00  0.00    +0.090 C 
ATOM     19  C   UNL     1     136.338 174.033 202.167  0.00  0.00    +0.100 C 
ATOM     20  C   UNL     1     136.656 173.904 200.706  0.00  0.00    -0.051 C 
ATOM     21  C   UNL     1     135.802 173.667 199.691  0.00  0.00    -0.052 C 
ATOM     22  C   UNL     1     136.257 173.777 198.313  0.00  0.00    -0.052 C 
ATOM     23  C   UNL     1     136.993 174.815 197.898  0.00  0.00    +0.023 C 
ATOM     24  C   UNL     1     137.421 174.979 196.499  0.00  0.00    +0.332 C 
ATOM     25  O   UNL     1     136.982 174.376 195.537  0.00  0.00    -0.246 OA
ATOM     26  O   UNL     1     138.372 175.942 196.509  0.00  0.00    -0.458 OA
ATOM     27  H   UNL     1     138.066 176.428 194.528  0.00  0.00    +0.074 HD
ATOM     28  H   UNL     1     140.147 177.907 196.214  0.00  0.00    +0.036 HD
ATOM     29  H   UNL     1     137.883 178.196 197.133  0.00  0.00    +0.060 HD
ATOM     30  H   UNL     1     138.543 180.751 195.625  0.00  0.00    +0.032 HD
ATOM     31  H   UNL     1     139.663 180.157 196.813  0.00  0.00    +0.032 HD
ATOM     32  H   UNL     1     136.707 180.725 197.348  0.00  0.00    +0.063 HD
ATOM     33  H   UNL     1     137.074 181.055 201.051  0.00  0.00    +0.059 HD
ATOM     34  H   UNL     1     136.105 181.556 199.624  0.00  0.00    +0.059 HD
ATOM     35  H   UNL     1     139.463 178.875 199.200  0.00  0.00    +0.063 HD
ATOM     36  H   UNL     1     140.605 179.811 201.267  0.00  0.00    +0.032 HD
ATOM     37  H   UNL     1     139.334 180.979 201.450  0.00  0.00    +0.032 HD
ATOM     38  H   UNL     1     137.733 179.176 202.007  0.00  0.00    +0.060 HD
ATOM     39  H   UNL     1     140.456 179.161 203.411  0.00  0.00    +0.033 HD
ATOM     40  H   UNL     1     138.971 179.989 203.891  0.00  0.00    +0.033 HD
ATOM     41  H   UNL     1     139.252 177.943 205.347  0.00  0.00    +0.057 HD
ATOM     42  H   UNL     1     138.372 175.903 204.376  0.00  0.00    +0.059 HD
ATOM     43  H   UNL     1     138.737 175.662 201.943  0.00  0.00    +0.064 HD
ATOM     44  H   UNL     1     136.340 177.564 202.262  0.00  0.00    +0.032 HD
ATOM     45  H   UNL     1     136.646 176.620 200.856  0.00  0.00    +0.032 HD
ATOM     46  H   UNL     1     136.042 175.573 203.674  0.00  0.00    +0.063 HD
ATOM     47  H   UNL     1     135.544 173.334 202.444  0.00  0.00    +0.066 HD
ATOM     48  H   UNL     1     137.705 174.099 200.471  0.00  0.00    +0.060 HD
ATOM     49  H   UNL     1     135.936 173.009 197.615  0.00  0.00    +0.062 HD
ATOM     50  H   UNL     1     137.291 175.610 198.574  0.00  0.00    +0.069 HD
ENDROOT
BRANCH  21  51
ATOM     51  C   UNL     1     134.336 173.369 199.837  0.00  0.00    -0.040 C 
ATOM     52  H   UNL     1     133.966 173.742 200.796  0.00  0.00    +0.028 HD
ATOM     53  H   UNL     1     134.105 172.304 199.788  0.00  0.00    +0.028 HD
ATOM     54  H   UNL     1     133.770 173.856 199.037  0.00  0.00    +0.028 HD
ENDBRANCH  21  51
BRANCH   2  55
ATOM     55  C   UNL     1     139.773 178.594 194.209  0.00  0.00    -0.057 C 
ATOM     56  H   UNL     1     140.188 179.587 194.413  0.00  0.00    +0.023 HD
ATOM     57  H   UNL     1     138.950 178.701 193.508  0.00  0.00    +0.023 HD
ATOM     58  H   UNL     1     140.529 178.019 193.671  0.00  0.00    +0.023 HD
ENDBRANCH   2  55
BRANCH   1  59
ATOM     59  C   UNL     1     139.970 175.393 194.741  0.00  0.00    +0.020 C 
ATOM     60  H   UNL     1     140.092 174.669 195.555  0.00  0.00    +0.036 HD
BRANCH  59  61
ATOM     61  C   UNL     1     139.454 174.543 193.572  0.00  0.00    -0.057 C 
ATOM     62  H   UNL     1     138.361 174.546 193.538  0.00  0.00    +0.023 HD
ATOM     63  H   UNL     1     139.829 174.863 192.602  0.00  0.00    +0.023 HD
ATOM     64  H   UNL     1     139.771 173.503 193.702  0.00  0.00    +0.023 HD
ENDBRANCH  59  61
BRANCH  59  65
ATOM     65  C   UNL     1     141.398 175.940 194.448  0.00  0.00    +0.064 C 
ATOM     66  H   UNL     1     141.358 177.036 194.512  0.00  0.00    +0.060 HD
BRANCH  65  67
ATOM     67  C   UNL     1     141.969 175.600 193.044  0.00  0.00    -0.017 C 
ATOM     68  H   UNL     1     141.261 174.969 192.501  0.00  0.00    +0.032 HD
BRANCH  67  69
ATOM     69  C   UNL     1     142.185 176.879 192.222  0.00  0.00    -0.060 C 
ATOM     70  H   UNL     1     142.170 177.765 192.869  0.00  0.00    +0.023 HD
ATOM     71  H   UNL     1     141.397 176.998 191.470  0.00  0.00    +0.023 HD
ATOM     72  H   UNL     1     143.147 176.885 191.707  0.00  0.00    +0.023 HD
ENDBRANCH  67  69
BRANCH  67  73
ATOM     73  C   UNL     1     143.310 174.823 193.095  0.00  0.00    -0.046 C 
ATOM     74  H   UNL     1     144.136 175.528 192.937  0.00  0.00    +0.027 HD
ATOM     75  H   UNL     1     143.458 174.395 194.094  0.00  0.00    +0.027 HD
BRANCH  73  76
ATOM     76  C   UNL     1     143.415 173.735 192.020  0.00  0.00    -0.026 C 
ATOM     77  H   UNL     1     142.934 172.809 192.352  0.00  0.00    +0.029 HD
ATOM     78  H   UNL     1     142.868 174.047 191.121  0.00  0.00    +0.029 HD
BRANCH  76  83
ATOM     79  C   UNL     1     146.162 171.736 190.554  0.00  0.00    +0.059 C 
ATOM     80  C   UNL     1     147.350 172.566 191.051  0.00  0.00    -0.000 C 
ATOM     81  C   UNL     1     147.168 172.909 192.526  0.00  0.00    +0.063 C 
ATOM     82  C   UNL     1     145.870 173.706 192.729  0.00  0.00    -0.000 C 
ATOM     83  C   UNL     1     144.861 173.444 191.608  0.00  0.00    +0.061 C 
ATOM     84  O   UNL     1     144.937 172.067 191.221  0.00  0.00    -0.373 OA
ATOM     85  H   UNL     1     146.353 170.683 190.793  0.00  0.00    +0.059 HD
ATOM     86  H   UNL     1     148.293 172.029 190.888  0.00  0.00    +0.032 HD
ATOM     87  H   UNL     1     147.448 173.500 190.478  0.00  0.00    +0.032 HD
ATOM     88  H   UNL     1     147.123 171.972 193.097  0.00  0.00    +0.060 HD
ATOM     89  H   UNL     1     145.443 173.409 193.699  0.00  0.00    +0.032 HD
ATOM     90  H   UNL     1     146.068 174.783 192.805  0.00  0.00    +0.032 HD
ATOM     91  H   UNL     1     145.097 174.068 190.734  0.00  0.00    +0.060 HD
BRANCH  79  92
ATOM     92  C   UNL     1     145.971 171.850 189.049  0.00  0.00    -0.039 C 
ATOM     93  H   UNL     1     145.506 172.804 188.781  0.00  0.00    +0.025 HD
ATOM     94  H   UNL     1     146.938 171.772 188.541  0.00  0.00    +0.025 HD
ATOM     95  H   UNL     1     145.348 171.036 188.663  0.00  0.00    +0.025 HD
ENDBRANCH  79  92
BRANCH  81  96
ATOM     96  O   UNL     1     148.307 173.665 192.953  0.00  0.00    -0.380 OA
BRANCH  96  97
ATOM     97  C   UNL     1     149.345 172.851 193.487  0.00  0.00    +0.037 C 
ATOM     98  H   UNL     1     149.724 173.336 194.390  0.00  0.00    +0.052 HD
ATOM     99  H   UNL     1     150.167 172.756 192.772  0.00  0.00    +0.052 HD
ATOM    100  H   UNL     1     148.965 171.862 193.761  0.00  0.00    +0.052 HD
ENDBRANCH  96  97
ENDBRANCH  81  96
ENDBRANCH  76  83
ENDBRANCH  73  76
ENDBRANCH  67  73
ENDBRANCH  65  67
BRANCH  65 101
ATOM    101  O   UNL     1     142.308 175.524 195.458  0.00  0.00    -0.391 OA
ATOM    102  H   UNL     1     141.815 174.989 196.103  0.00  0.00    +0.210 HD
ENDBRANCH  65 101
ENDBRANCH  59  65
ENDBRANCH   1  59
BRANCH  19 103
ATOM    103  O   UNL     1     137.508 173.634 202.886  0.00  0.00    -0.385 OA
ATOM    104  H   UNL     1     138.233 174.216 202.600  0.00  0.00    +0.210 HD
ENDBRANCH  19 103
BRANCH  18 105
ATOM    105  O   UNL     1     134.577 175.744 202.221  0.00  0.00    -0.377 OA
BRANCH 105 106
ATOM    106  C   UNL     1     134.429 176.869 201.362  0.00  0.00    +0.037 C 
ATOM    107  H   UNL     1     133.620 177.513 201.723  0.00  0.00    +0.052 HD
ATOM    108  H   UNL     1     134.231 176.559 200.334  0.00  0.00    +0.052 HD
ATOM    109  H   UNL     1     135.361 177.441 201.380  0.00  0.00    +0.052 HD
ENDBRANCH 105 106
ENDBRANCH  18 105
BRANCH   9 110
ATOM    110  O   UNL     1     140.311 180.765 198.999  0.00  0.00    -0.377 OA
BRANCH 110 111
ATOM    111  C   UNL     1     140.786 181.763 199.897  0.00  0.00    +0.037 C 
ATOM    112  H   UNL     1     140.304 182.712 199.641  0.00  0.00    +0.052 HD
ATOM    113  H   UNL     1     141.867 181.892 199.793  0.00  0.00    +0.052 HD
ATOM    114  H   UNL     1     140.528 181.519 200.930  0.00  0.00    +0.052 HD
ENDBRANCH 110 111
ENDBRANCH   9 110
BRANCH   5 115
ATOM    115  O   UNL     1     138.054 182.261 197.601  0.00  0.00    -0.377 OA
BRANCH 115 116
ATOM    116  C   UNL     1     138.782 182.676 196.454  0.00  0.00    +0.037 C 
ATOM    117  H   UNL     1     139.846 182.602 196.684  0.00  0.00    +0.052 HD
ATOM    118  H   UNL     1     138.566 182.038 195.596  0.00  0.00    +0.052 HD
ATOM    119  H   UNL     1     138.553 183.719 196.215  0.00  0.00    +0.052 HD
ENDBRANCH 115 116
ENDBRANCH   5 115
BRANCH   3 120
ATOM    120  O   UNL     1     137.046 178.793 195.297  0.00  0.00    -0.379 OA
BRANCH 120 121
ATOM    121  C   UNL     1     135.824 178.335 195.856  0.00  0.00    +0.037 C 
ATOM    122  H   UNL     1     135.804 178.621 196.915  0.00  0.00    +0.052 HD
ATOM    123  H   UNL     1     135.743 177.245 195.792  0.00  0.00    +0.052 HD
ATOM    124  H   UNL     1     134.969 178.806 195.359  0.00  0.00    +0.052 HD
ENDBRANCH 120 121
ENDBRANCH   3 120
TORSDOF 23
ENDMDL
MODEL 2
REMARK VINA RESULT:      -6.5      0.703      1.369
REMARK  Name = Lobophorolide_conf1
REMARK  23 active torsions:
REMARK  status: ('A' for Active; 'I' for Inactive)
REMARK    1  A    between atoms: C_1  and  C_2
REMARK    2  A    between atoms: C_4  and  O_53
REMARK    3  A    between atoms: C_6  and  C_8
REMARK    4  A    between atoms: C_8  and  C_9
REMARK    5  A    between atoms: C_9  and  C_10
REMARK    6  A    between atoms: C_10  and  C_11
REMARK    7  A    between atoms: C_10  and  C_12
REMARK    8  A    between atoms: C_12  and  C_13
REMARK    9  A    between atoms: C_12  and  O_52
REMARK   10  A    between atoms: C_13  and  C_14
REMARK   11  A    between atoms: C_13  and  C_15
REMARK   12  A    between atoms: C_16  and  C_51
REMARK   13  A    between atoms: C_17  and  O_49
REMARK   14  A    between atoms: C_19  and  O_47
REMARK   15  A    between atoms: C_23  and  O_45
REMARK   16  A    between atoms: C_32  and  O_43
REMARK   17  A    between atoms: C_33  and  O_42
REMARK   18  A    between atoms: C_35  and  C_41
REMARK   19  A    between atoms: O_43  and  C_44
REMARK   20  A    between atoms: O_45  and  C_46
REMARK   21  A    between atoms: O_47  and  C_48
REMARK   22  A    between atoms: O_49  and  C_50
REMARK   23  A    between atoms: O_53  and  C_54
REMARK                            x       y       z     vdW  Elec       q    Type
REMARK                         _______ _______ _______ _____ _____    ______ ____
ROOT
ATOM      1  C   UNL     1     138.908 176.377 195.205  0.00  0.00    +0.113 C 
ATOM      2  C   UNL     1     139.326 177.860 195.458  0.00  0.00    +0.020 C 
ATOM      3  C   UNL     1     138.167 178.669 196.156  0.00  0.00    +0.067 C 
ATOM      4  C   UNL     1     138.609 180.107 196.491  0.00  0.00    +0.003 C 
ATOM      5  C   UNL     1     137.763 180.811 197.561  0.00  0.00    +0.094 C 
ATOM      6  C   UNL     1     137.930 180.334 199.009  0.00  0.00    +0.145 C 
ATOM      7  C   UNL     1     136.848 180.844 199.954  0.00  0.00    +0.083 C 
ATOM      8  O   UNL     1     136.843 179.499 199.466  0.00  0.00    -0.363 OA
ATOM      9  C   UNL     1     139.299 179.867 199.523  0.00  0.00    +0.094 C 
ATOM     10  C   UNL     1     139.519 179.932 201.048  0.00  0.00    +0.003 C 
ATOM     11  C   UNL     1     138.786 178.923 201.945  0.00  0.00    +0.065 C 
ATOM     12  C   UNL     1     139.342 179.053 203.383  0.00  0.00    -0.008 C 
ATOM     13  C   UNL     1     139.023 177.871 204.241  0.00  0.00    -0.083 C 
ATOM     14  C   UNL     1     138.542 176.744 203.703  0.00  0.00    -0.059 C 
ATOM     15  C   UNL     1     138.277 176.579 202.228  0.00  0.00    +0.080 C 
ATOM     16  O   UNL     1     138.972 177.590 201.457  0.00  0.00    -0.369 OA
ATOM     17  C   UNL     1     136.775 176.581 201.899  0.00  0.00    +0.006 C 
ATOM     18  C   UNL     1     135.935 175.453 202.538  0.00  0.00    +0.090 C 
ATOM     19  C   UNL     1     136.329 174.003 202.125  0.00  0.00    +0.100 C 
ATOM     20  C   UNL     1     136.652 173.871 200.664  0.00  0.00    -0.051 C 
ATOM     21  C   UNL     1     135.803 173.631 199.647  0.00  0.00    -0.052 C 
ATOM     22  C   UNL     1     136.262 173.739 198.271  0.00  0.00    -0.052 C 
ATOM     23  C   UNL     1     136.998 174.778 197.855  0.00  0.00    +0.023 C 
ATOM     24  C   UNL     1     137.431 174.939 196.457  0.00  0.00    +0.332 C 
ATOM     25  O   UNL     1     136.995 174.333 195.496  0.00  0.00    -0.246 OA
ATOM     26  O   UNL     1     138.380 175.903 196.469  0.00  0.00    -0.458 OA
ATOM     27  H   UNL     1     138.080 176.385 194.486  0.00  0.00    +0.074 HD
ATOM     28  H   UNL     1     140.153 177.871 196.177  0.00  0.00    +0.036 HD
ATOM     29  H   UNL     1     137.886 178.158 197.087  0.00  0.00    +0.060 HD
ATOM     30  H   UNL     1     138.548 180.710 195.576  0.00  0.00    +0.032 HD
ATOM     31  H   UNL     1     139.664 180.121 196.769  0.00  0.00    +0.032 HD
ATOM     32  H   UNL     1     136.706 180.686 197.292  0.00  0.00    +0.063 HD
ATOM     33  H   UNL     1     137.060 181.024 200.996  0.00  0.00    +0.059 HD
ATOM     34  H   UNL     1     136.095 181.521 199.565  0.00  0.00    +0.059 HD
ATOM     35  H   UNL     1     139.458 178.844 199.158  0.00  0.00    +0.063 HD
ATOM     36  H   UNL     1     140.591 179.786 201.226  0.00  0.00    +0.032 HD
ATOM     37  H   UNL     1     139.319 180.952 201.403  0.00  0.00    +0.032 HD
ATOM     38  H   UNL     1     137.717 179.148 201.958  0.00  0.00    +0.060 HD
ATOM     39  H   UNL     1     140.436 179.140 203.371  0.00  0.00    +0.033 HD
ATOM     40  H   UNL     1     138.949 179.967 203.845  0.00  0.00    +0.033 HD
ATOM     41  H   UNL     1     139.227 177.924 205.306  0.00  0.00    +0.057 HD
ATOM     42  H   UNL     1     138.353 175.881 204.336  0.00  0.00    +0.059 HD
ATOM     43  H   UNL     1     138.727 175.635 201.905  0.00  0.00    +0.064 HD
ATOM     44  H   UNL     1     136.327 177.534 202.211  0.00  0.00    +0.032 HD
ATOM     45  H   UNL     1     136.638 176.589 200.809  0.00  0.00    +0.032 HD
ATOM     46  H   UNL     1     136.026 175.546 203.627  0.00  0.00    +0.063 HD
ATOM     47  H   UNL     1     135.536 173.304 202.400  0.00  0.00    +0.066 HD
ATOM     48  H   UNL     1     137.702 174.068 200.433  0.00  0.00    +0.060 HD
ATOM     49  H   UNL     1     135.944 172.969 197.573  0.00  0.00    +0.062 HD
ATOM     50  H   UNL     1     137.292 175.574 198.531  0.00  0.00    +0.069 HD
ENDROOT
BRANCH  21  51
ATOM     51  C   UNL     1     134.336 173.332 199.788  0.00  0.00    -0.040 C 
ATOM     52  H   UNL     1     134.190 172.321 200.178  0.00  0.00    +0.028 HD
ATOM     53  H   UNL     1     133.788 173.403 198.848  0.00  0.00    +0.028 HD
ATOM     54  H   UNL     1     133.871 174.038 200.482  0.00  0.00    +0.028 HD
ENDBRANCH  21  51
BRANCH   2  55
ATOM     55  C   UNL     1     139.785 178.552 194.169  0.00  0.00    -0.057 C 
ATOM     56  H   UNL     1     139.308 179.531 194.046  0.00  0.00    +0.023 HD
ATOM     57  H   UNL     1     139.560 177.947 193.295  0.00  0.00    +0.023 HD
ATOM     58  H   UNL     1     140.866 178.702 194.137  0.00  0.00    +0.023 HD
ENDBRANCH   2  55
BRANCH   1  59
ATOM     59  C   UNL     1     139.984 175.352 194.708  0.00  0.00    +0.020 C 
ATOM     60  H   UNL     1     140.100 174.627 195.521  0.00  0.00    +0.036 HD
BRANCH  59  61
ATOM     61  C   UNL     1     139.477 174.506 193.533  0.00  0.00    -0.057 C 
ATOM     62  H   UNL     1     140.267 174.349 192.794  0.00  0.00    +0.023 HD
ATOM     63  H   UNL     1     139.088 173.534 193.832  0.00  0.00    +0.023 HD
ATOM     64  H   UNL     1     138.658 175.027 193.027  0.00  0.00    +0.023 HD
ENDBRANCH  59  61
BRANCH  59  65
ATOM     65  C   UNL     1     141.415 175.899 194.427  0.00  0.00    +0.064 C 
ATOM     66  H   UNL     1     141.366 176.996 194.445  0.00  0.00    +0.060 HD
BRANCH  65  67
ATOM     67  C   UNL     1     142.022 175.508 193.051  0.00  0.00    -0.017 C 
ATOM     68  H   UNL     1     141.362 174.799 192.546  0.00  0.00    +0.032 HD
BRANCH  67  69
ATOM     69  C   UNL     1     142.164 176.743 192.149  0.00  0.00    -0.060 C 
ATOM     70  H   UNL     1     143.221 176.957 191.947  0.00  0.00    +0.023 HD
ATOM     71  H   UNL     1     141.726 177.627 192.625  0.00  0.00    +0.023 HD
ATOM     72  H   UNL     1     141.682 176.608 191.180  0.00  0.00    +0.023 HD
ENDBRANCH  67  69
BRANCH  67  73
ATOM     73  C   UNL     1     143.410 174.824 193.161  0.00  0.00    -0.046 C 
ATOM     74  H   UNL     1     144.150 175.571 193.476  0.00  0.00    +0.027 HD
ATOM     75  H   UNL     1     143.390 174.061 193.948  0.00  0.00    +0.027 HD
BRANCH  73  76
ATOM     76  C   UNL     1     143.890 174.223 191.835  0.00  0.00    -0.026 C 
ATOM     77  H   UNL     1     143.066 173.731 191.308  0.00  0.00    +0.029 HD
ATOM     78  H   UNL     1     144.233 175.024 191.167  0.00  0.00    +0.029 HD
BRANCH  76  83
ATOM     79  C   UNL     1     147.440 173.204 192.065  0.00  0.00    +0.059 C 
ATOM     80  C   UNL     1     147.254 171.684 192.005  0.00  0.00    -0.000 C 
ATOM     81  C   UNL     1     146.277 171.320 190.891  0.00  0.00    +0.063 C 
ATOM     82  C   UNL     1     144.918 171.990 191.137  0.00  0.00    -0.000 C 
ATOM     83  C   UNL     1     145.049 173.238 192.014  0.00  0.00    +0.061 C 
ATOM     84  O   UNL     1     146.261 173.922 191.677  0.00  0.00    -0.373 OA
ATOM     85  H   UNL     1     148.210 173.486 191.338  0.00  0.00    +0.059 HD
ATOM     86  H   UNL     1     148.218 171.181 191.860  0.00  0.00    +0.032 HD
ATOM     87  H   UNL     1     146.867 171.294 192.957  0.00  0.00    +0.032 HD
ATOM     88  H   UNL     1     146.696 171.667 189.936  0.00  0.00    +0.060 HD
ATOM     89  H   UNL     1     144.494 172.259 190.157  0.00  0.00    +0.032 HD
ATOM     90  H   UNL     1     144.202 171.292 191.591  0.00  0.00    +0.032 HD
ATOM     91  H   UNL     1     145.089 172.951 193.075  0.00  0.00    +0.060 HD
BRANCH  79  92
ATOM     92  C   UNL     1     147.895 173.673 193.439  0.00  0.00    -0.039 C 
ATOM     93  H   UNL     1     147.225 173.307 194.223  0.00  0.00    +0.025 HD
ATOM     94  H   UNL     1     148.908 173.312 193.642  0.00  0.00    +0.025 HD
ATOM     95  H   UNL     1     147.936 174.766 193.494  0.00  0.00    +0.025 HD
ENDBRANCH  79  92
BRANCH  81  96
ATOM     96  O   UNL     1     146.150 169.894 190.857  0.00  0.00    -0.380 OA
BRANCH  96  97
ATOM     97  C   UNL     1     147.385 169.232 190.614  0.00  0.00    +0.037 C 
ATOM     98  H   UNL     1     148.003 169.885 189.992  0.00  0.00    +0.052 HD
ATOM     99  H   UNL     1     147.221 168.294 190.076  0.00  0.00    +0.052 HD
ATOM    100  H   UNL     1     147.919 169.043 191.551  0.00  0.00    +0.052 HD
ENDBRANCH  96  97
ENDBRANCH  81  96
ENDBRANCH  76  83
ENDBRANCH  73  76
ENDBRANCH  67  73
ENDBRANCH  65  67
BRANCH  65 101
ATOM    101  O   UNL     1     142.304 175.532 195.474  0.00  0.00    -0.391 OA
ATOM    102  H   UNL     1     142.215 176.188 196.186  0.00  0.00    +0.210 HD
ENDBRANCH  65 101
ENDBRANCH  59  65
ENDBRANCH   1  59
BRANCH  19 103
ATOM    103  O   UNL     1     137.498 173.607 202.848  0.00  0.00    -0.385 OA
ATOM    104  H   UNL     1     138.154 173.311 202.193  0.00  0.00    +0.210 HD
ENDBRANCH  19 103
BRANCH  18 105
ATOM    105  O   UNL     1     134.566 175.712 202.168  0.00  0.00    -0.377 OA
BRANCH 105 106
ATOM    106  C   UNL     1     134.419 176.836 201.309  0.00  0.00    +0.037 C 
ATOM    107  H   UNL     1     134.655 176.554 200.277  0.00  0.00    +0.052 HD
ATOM    108  H   UNL     1     135.057 177.664 201.626  0.00  0.00    +0.052 HD
ATOM    109  H   UNL     1     133.377 177.166 201.348  0.00  0.00    +0.052 HD
ENDBRANCH 105 106
ENDBRANCH  18 105
BRANCH   9 110
ATOM    110  O   UNL     1     140.304 180.734 198.956  0.00  0.00    -0.377 OA
BRANCH 110 111
ATOM    111  C   UNL     1     140.752 181.753 199.844  0.00  0.00    +0.037 C 
ATOM    112  H   UNL     1     141.084 181.276 200.772  0.00  0.00    +0.052 HD
ATOM    113  H   UNL     1     139.936 182.438 200.087  0.00  0.00    +0.052 HD
ATOM    114  H   UNL     1     141.598 182.300 199.423  0.00  0.00    +0.052 HD
ENDBRANCH 110 111
ENDBRANCH   9 110
BRANCH   5 115
ATOM    115  O   UNL     1     138.050 182.224 197.547  0.00  0.00    -0.377 OA
BRANCH 115 116
ATOM    116  C   UNL     1     138.777 182.638 196.399  0.00  0.00    +0.037 C 
ATOM    117  H   UNL     1     139.781 182.920 196.719  0.00  0.00    +0.052 HD
ATOM    118  H   UNL     1     138.857 181.832 195.669  0.00  0.00    +0.052 HD
ATOM    119  H   UNL     1     138.302 183.513 195.943  0.00  0.00    +0.052 HD
ENDBRANCH 115 116
ENDBRANCH   5 115
BRANCH   3 120
ATOM    120  O   UNL     1     137.055 178.750 195.247  0.00  0.00    -0.379 OA
BRANCH 120 121
ATOM    121  C   UNL     1     135.831 178.292 195.803  0.00  0.00    +0.037 C 
ATOM    122  H   UNL     1     135.181 177.971 194.981  0.00  0.00    +0.052 HD
ATOM    123  H   UNL     1     135.322 179.092 196.352  0.00  0.00    +0.052 HD
ATOM    124  H   UNL     1     136.001 177.433 196.461  0.00  0.00    +0.052 HD
ENDBRANCH 120 121
ENDBRANCH   3 120
TORSDOF 23
ENDMDL
MODEL 3
REMARK VINA RESULT:      -5.8     11.115     21.305
REMARK  Name = Lobophorolide_conf1
REMARK  23 active torsions:
REMARK  status: ('A' for Active; 'I' for Inactive)
REMARK    1  A    between atoms: C_1  and  C_2
REMARK    2  A    between atoms: C_4  and  O_53
REMARK    3  A    between atoms: C_6  and  C_8
REMARK    4  A    between atoms: C_8  and  C_9
REMARK    5  A    between atoms: C_9  and  C_10
REMARK    6  A    between atoms: C_10  and  C_11
REMARK    7  A    between atoms: C_10  and  C_12
REMARK    8  A    between atoms: C_12  and  C_13
REMARK    9  A    between atoms: C_12  and  O_52
REMARK   10  A    between atoms: C_13  and  C_14
REMARK   11  A    between atoms: C_13  and  C_15
REMARK   12  A    between atoms: C_16  and  C_51
REMARK   13  A    between atoms: C_17  and  O_49
REMARK   14  A    between atoms: C_19  and  O_47
REMARK   15  A    between atoms: C_23  and  O_45
REMARK   16  A    between atoms: C_32  and  O_43
REMARK   17  A    between atoms: C_33  and  O_42
REMARK   18  A    between atoms: C_35  and  C_41
REMARK   19  A    between atoms: O_43  and  C_44
REMARK   20  A    between atoms: O_45  and  C_46
REMARK   21  A    between atoms: O_47  and  C_48
REMARK   22  A    between atoms: O_49  and  C_50
REMARK   23  A    between atoms: O_53  and  C_54
REMARK                            x       y       z     vdW  Elec       q    Type
REMARK                         _______ _______ _______ _____ _____    ______ ____
ROOT
ATOM      1  C   UNL     1     151.172 166.195 189.464  0.00  0.00    +0.113 C 
ATOM      2  C   UNL     1     149.959 165.380 188.913  0.00  0.00    +0.020 C 
ATOM      3  C   UNL     1     150.304 164.709 187.528  0.00  0.00    +0.067 C 
ATOM      4  C   UNL     1     149.143 163.828 187.027  0.00  0.00    +0.003 C 
ATOM      5  C   UNL     1     149.532 162.786 185.969  0.00  0.00    +0.094 C 
ATOM      6  C   UNL     1     150.351 161.580 186.445  0.00  0.00    +0.145 C 
ATOM      7  C   UNL     1     150.966 160.767 185.311  0.00  0.00    +0.083 C 
ATOM      8  O   UNL     1     151.752 161.666 186.100  0.00  0.00    -0.363 OA
ATOM      9  C   UNL     1     150.116 160.979 187.837  0.00  0.00    +0.094 C 
ATOM     10  C   UNL     1     150.543 159.509 188.032  0.00  0.00    +0.003 C 
ATOM     11  C   UNL     1     152.041 159.176 188.090  0.00  0.00    +0.065 C 
ATOM     12  C   UNL     1     152.196 157.694 188.510  0.00  0.00    -0.008 C 
ATOM     13  C   UNL     1     153.570 157.368 189.001  0.00  0.00    -0.083 C 
ATOM     14  C   UNL     1     154.447 158.340 189.277  0.00  0.00    -0.059 C 
ATOM     15  C   UNL     1     154.139 159.805 189.108  0.00  0.00    +0.080 C 
ATOM     16  O   UNL     1     152.709 160.031 189.023  0.00  0.00    -0.369 OA
ATOM     17  C   UNL     1     154.859 160.420 187.897  0.00  0.00    +0.006 C 
ATOM     18  C   UNL     1     156.403 160.386 187.931  0.00  0.00    +0.090 C 
ATOM     19  C   UNL     1     157.068 161.169 189.104  0.00  0.00    +0.100 C 
ATOM     20  C   UNL     1     156.407 162.487 189.385  0.00  0.00    -0.051 C 
ATOM     21  C   UNL     1     156.664 163.680 188.814  0.00  0.00    -0.052 C 
ATOM     22  C   UNL     1     155.785 164.813 189.062  0.00  0.00    -0.052 C 
ATOM     23  C   UNL     1     154.453 164.693 189.007  0.00  0.00    +0.023 C 
ATOM     24  C   UNL     1     153.542 165.834 189.201  0.00  0.00    +0.332 C 
ATOM     25  O   UNL     1     153.850 167.011 189.182  0.00  0.00    -0.246 OA
ATOM     26  O   UNL     1     152.310 165.302 189.377  0.00  0.00    -0.458 OA
ATOM     27  H   UNL     1     151.353 167.027 188.772  0.00  0.00    +0.074 HD
ATOM     28  H   UNL     1     149.765 164.543 189.594  0.00  0.00    +0.036 HD
ATOM     29  H   UNL     1     151.199 164.084 187.648  0.00  0.00    +0.060 HD
ATOM     30  H   UNL     1     148.382 164.480 186.579  0.00  0.00    +0.032 HD
ATOM     31  H   UNL     1     148.645 163.348 187.870  0.00  0.00    +0.032 HD
ATOM     32  H   UNL     1     150.116 163.296 185.192  0.00  0.00    +0.063 HD
ATOM     33  H   UNL     1     151.125 159.705 185.412  0.00  0.00    +0.059 HD
ATOM     34  H   UNL     1     150.750 161.055 184.289  0.00  0.00    +0.059 HD
ATOM     35  H   UNL     1     150.624 161.623 188.567  0.00  0.00    +0.063 HD
ATOM     36  H   UNL     1     150.111 159.170 188.982  0.00  0.00    +0.032 HD
ATOM     37  H   UNL     1     150.057 158.884 187.271  0.00  0.00    +0.032 HD
ATOM     38  H   UNL     1     152.489 159.311 187.104  0.00  0.00    +0.060 HD
ATOM     39  H   UNL     1     151.509 157.447 189.329  0.00  0.00    +0.033 HD
ATOM     40  H   UNL     1     151.938 157.046 187.663  0.00  0.00    +0.033 HD
ATOM     41  H   UNL     1     153.834 156.328 189.172  0.00  0.00    +0.057 HD
ATOM     42  H   UNL     1     155.429 158.086 189.670  0.00  0.00    +0.059 HD
ATOM     43  H   UNL     1     154.441 160.325 190.023  0.00  0.00    +0.064 HD
ATOM     44  H   UNL     1     154.545 159.908 186.977  0.00  0.00    +0.032 HD
ATOM     45  H   UNL     1     154.504 161.448 187.742  0.00  0.00    +0.032 HD
ATOM     46  H   UNL     1     156.712 159.335 187.990  0.00  0.00    +0.063 HD
ATOM     47  H   UNL     1     158.132 161.315 188.903  0.00  0.00    +0.066 HD
ATOM     48  H   UNL     1     155.579 162.415 190.094  0.00  0.00    +0.060 HD
ATOM     49  H   UNL     1     156.249 165.778 189.246  0.00  0.00    +0.062 HD
ATOM     50  H   UNL     1     153.974 163.745 188.787  0.00  0.00    +0.069 HD
ENDROOT
BRANCH  21  51
ATOM     51  C   UNL     1     157.767 163.956 187.831  0.00  0.00    -0.040 C 
ATOM     52  H   UNL     1     157.441 163.714 186.815  0.00  0.00    +0.028 HD
ATOM     53  H   UNL     1     158.675 163.384 188.028  0.00  0.00    +0.028 HD
ATOM     54  H   UNL     1     158.044 165.014 187.859  0.00  0.00    +0.028 HD
ENDBRANCH  21  51
BRANCH   2  55
ATOM     55  C   UNL     1     148.692 166.237 188.813  0.00  0.00    -0.057 C 
ATOM     56  H   UNL     1     147.793 165.653 189.037  0.00  0.00    +0.023 HD
ATOM     57  H   UNL     1     148.585 166.667 187.820  0.00  0.00    +0.023 HD
ATOM     58  H   UNL     1     148.712 167.093 189.490  0.00  0.00    +0.023 HD
ENDBRANCH   2  55
BRANCH   1  59
ATOM     59  C   UNL     1     151.109 166.770 190.921  0.00  0.00    +0.020 C 
ATOM     60  H   UNL     1     150.043 166.879 191.149  0.00  0.00    +0.036 HD
BRANCH  59  61
ATOM     61  C   UNL     1     151.604 165.759 191.963  0.00  0.00    -0.057 C 
ATOM     62  H   UNL     1     152.630 165.446 191.749  0.00  0.00    +0.023 HD
ATOM     63  H   UNL     1     151.565 166.132 192.984  0.00  0.00    +0.023 HD
ATOM     64  H   UNL     1     150.978 164.861 191.935  0.00  0.00    +0.023 HD
ENDBRANCH  59  61
BRANCH  59  65
ATOM     65  C   UNL     1     151.736 168.175 191.161  0.00  0.00    +0.064 C 
ATOM     66  H   UNL     1     152.753 168.028 191.548  0.00  0.00    +0.060 HD
BRANCH  65  67
ATOM     67  C   UNL     1     150.996 169.069 192.194  0.00  0.00    -0.017 C 
ATOM     68  H   UNL     1     151.347 168.836 193.202  0.00  0.00    +0.032 HD
BRANCH  67  69
ATOM     69  C   UNL     1     151.281 170.555 191.929  0.00  0.00    -0.060 C 
ATOM     70  H   UNL     1     151.235 170.774 190.855  0.00  0.00    +0.023 HD
ATOM     71  H   UNL     1     152.279 170.831 192.286  0.00  0.00    +0.023 HD
ATOM     72  H   UNL     1     150.555 171.211 192.413  0.00  0.00    +0.023 HD
ENDBRANCH  67  69
BRANCH  67  73
ATOM     73  C   UNL     1     149.459 168.863 192.199  0.00  0.00    -0.046 C 
ATOM     74  H   UNL     1     149.244 167.788 192.148  0.00  0.00    +0.027 HD
ATOM     75  H   UNL     1     149.036 169.216 193.148  0.00  0.00    +0.027 HD
BRANCH  73  76
ATOM     76  C   UNL     1     148.759 169.534 191.012  0.00  0.00    -0.026 C 
ATOM     77  H   UNL     1     149.429 169.600 190.149  0.00  0.00    +0.029 HD
ATOM     78  H   UNL     1     147.912 168.918 190.683  0.00  0.00    +0.029 HD
BRANCH  76  83
ATOM     79  C   UNL     1     147.840 172.341 193.242  0.00  0.00    +0.059 C 
ATOM     80  C   UNL     1     147.053 173.192 192.239  0.00  0.00    -0.000 C 
ATOM     81  C   UNL     1     146.090 172.311 191.449  0.00  0.00    +0.063 C 
ATOM     82  C   UNL     1     146.866 171.222 190.693  0.00  0.00    -0.000 C 
ATOM     83  C   UNL     1     148.217 170.926 191.350  0.00  0.00    +0.061 C 
ATOM     84  O   UNL     1     148.073 171.006 192.773  0.00  0.00    -0.373 OA
ATOM     85  H   UNL     1     147.237 172.234 194.151  0.00  0.00    +0.059 HD
ATOM     86  H   UNL     1     146.513 173.996 192.754  0.00  0.00    +0.032 HD
ATOM     87  H   UNL     1     147.727 173.701 191.536  0.00  0.00    +0.032 HD
ATOM     88  H   UNL     1     145.387 171.846 192.153  0.00  0.00    +0.060 HD
ATOM     89  H   UNL     1     146.244 170.313 190.682  0.00  0.00    +0.032 HD
ATOM     90  H   UNL     1     147.018 171.494 189.640  0.00  0.00    +0.032 HD
ATOM     91  H   UNL     1     148.963 171.668 191.030  0.00  0.00    +0.060 HD
BRANCH  79  92
ATOM     92  C   UNL     1     149.163 172.985 193.627  0.00  0.00    -0.039 C 
ATOM     93  H   UNL     1     149.870 172.240 194.005  0.00  0.00    +0.025 HD
ATOM     94  H   UNL     1     149.605 173.483 192.757  0.00  0.00    +0.025 HD
ATOM     95  H   UNL     1     149.024 173.757 194.392  0.00  0.00    +0.025 HD
ENDBRANCH  79  92
BRANCH  81  96
ATOM     96  O   UNL     1     145.362 173.147 190.542  0.00  0.00    -0.380 OA
BRANCH  96  97
ATOM     97  C   UNL     1     145.117 172.524 189.287  0.00  0.00    +0.037 C 
ATOM     98  H   UNL     1     144.044 172.577 189.087  0.00  0.00    +0.052 HD
ATOM     99  H   UNL     1     145.414 171.472 189.315  0.00  0.00    +0.052 HD
ATOM    100  H   UNL     1     145.643 173.045 188.481  0.00  0.00    +0.052 HD
ENDBRANCH  96  97
ENDBRANCH  81  96
ENDBRANCH  76  83
ENDBRANCH  73  76
ENDBRANCH  67  73
ENDBRANCH  65  67
BRANCH  65 101
ATOM    101  O   UNL     1     151.885 168.872 189.931  0.00  0.00    -0.391 OA
ATOM    102  H   UNL     1     151.870 169.824 190.123  0.00  0.00    +0.210 HD
ENDBRANCH  65 101
ENDBRANCH  59  65
ENDBRANCH   1  59
BRANCH  19 103
ATOM    103  O   UNL     1     156.976 160.393 190.302  0.00  0.00    -0.385 OA
ATOM    104  H   UNL     1     156.037 160.359 190.551  0.00  0.00    +0.210 HD
ENDBRANCH  19 103
BRANCH  18 105
ATOM    105  O   UNL     1     156.847 160.925 186.670  0.00  0.00    -0.377 OA
BRANCH 105 106
ATOM    106  C   UNL     1     155.778 161.371 185.843  0.00  0.00    +0.037 C 
ATOM    107  H   UNL     1     155.118 160.533 185.597  0.00  0.00    +0.052 HD
ATOM    108  H   UNL     1     156.153 161.835 184.928  0.00  0.00    +0.052 HD
ATOM    109  H   UNL     1     155.200 162.116 186.399  0.00  0.00    +0.052 HD
ENDBRANCH 105 106
ENDBRANCH  18 105
BRANCH   9 110
ATOM    110  O   UNL     1     148.695 161.000 188.094  0.00  0.00    -0.377 OA
BRANCH 110 111
ATOM    111  C   UNL     1     148.050 159.753 187.859  0.00  0.00    +0.037 C 
ATOM    112  H   UNL     1     148.564 159.251 187.032  0.00  0.00    +0.052 HD
ATOM    113  H   UNL     1     147.008 159.908 187.565  0.00  0.00    +0.052 HD
ATOM    114  H   UNL     1     148.107 159.106 188.736  0.00  0.00    +0.052 HD
ENDBRANCH 110 111
ENDBRANCH   9 110
BRANCH   5 115
ATOM    115  O   UNL     1     148.341 162.267 185.346  0.00  0.00    -0.377 OA
BRANCH 115 116
ATOM    116  C   UNL     1     147.181 163.040 185.618  0.00  0.00    +0.037 C 
ATOM    117  H   UNL     1     146.317 162.375 185.589  0.00  0.00    +0.052 HD
ATOM    118  H   UNL     1     147.234 163.499 186.607  0.00  0.00    +0.052 HD
ATOM    119  H   UNL     1     147.049 163.811 184.853  0.00  0.00    +0.052 HD
ENDBRANCH 115 116
ENDBRANCH   5 115
BRANCH   3 120
ATOM    120  O   UNL     1     150.519 165.750 186.558  0.00  0.00    -0.379 OA
BRANCH 120 121
ATOM    121  C   UNL     1     151.760 165.644 185.876  0.00  0.00    +0.037 C 
ATOM    122  H   UNL     1     152.117 164.613 185.974  0.00  0.00    +0.052 HD
ATOM    123  H   UNL     1     152.510 166.312 186.313  0.00  0.00    +0.052 HD
ATOM    124  H   UNL     1     151.636 165.864 184.810  0.00  0.00    +0.052 HD
ENDBRANCH 120 121
ENDBRANCH   3 120
TORSDOF 23
ENDMDL
MODEL 4
REMARK VINA RESULT:      -5.8      9.343     18.029
REMARK  Name = Lobophorolide_conf1
REMARK  23 active torsions:
REMARK  status: ('A' for Active; 'I' for Inactive)
REMARK    1  A    between atoms: C_1  and  C_2
REMARK    2  A    between atoms: C_4  and  O_53
REMARK    3  A    between atoms: C_6  and  C_8
REMARK    4  A    between atoms: C_8  and  C_9
REMARK    5  A    between atoms: C_9  and  C_10
REMARK    6  A    between atoms: C_10  and  C_11
REMARK    7  A    between atoms: C_10  and  C_12
REMARK    8  A    between atoms: C_12  and  C_13
REMARK    9  A    between atoms: C_12  and  O_52
REMARK   10  A    between atoms: C_13  and  C_14
REMARK   11  A    between atoms: C_13  and  C_15
REMARK   12  A    between atoms: C_16  and  C_51
REMARK   13  A    between atoms: C_17  and  O_49
REMARK   14  A    between atoms: C_19  and  O_47
REMARK   15  A    between atoms: C_23  and  O_45
REMARK   16  A    between atoms: C_32  and  O_43
REMARK   17  A    between atoms: C_33  and  O_42
REMARK   18  A    between atoms: C_35  and  C_41
REMARK   19  A    between atoms: O_43  and  C_44
REMARK   20  A    between atoms: O_45  and  C_46
REMARK   21  A    between atoms: O_47  and  C_48
REMARK   22  A    between atoms: O_49  and  C_50
REMARK   23  A    between atoms: O_53  and  C_54
REMARK                            x       y       z     vdW  Elec       q    Type
REMARK                         _______ _______ _______ _____ _____    ______ ____
ROOT
ATOM      1  C   UNL     1     148.842 168.160 190.476  0.00  0.00    +0.113 C 
ATOM      2  C   UNL     1     147.413 167.901 189.904  0.00  0.00    +0.020 C 
ATOM      3  C   UNL     1     147.479 167.148 188.521  0.00  0.00    +0.067 C 
ATOM      4  C   UNL     1     146.069 166.807 187.999  0.00  0.00    +0.003 C 
ATOM      5  C   UNL     1     146.021 165.697 186.941  0.00  0.00    +0.094 C 
ATOM      6  C   UNL     1     146.279 164.263 187.421  0.00  0.00    +0.145 C 
ATOM      7  C   UNL     1     146.532 163.271 186.292  0.00  0.00    +0.083 C 
ATOM      8  O   UNL     1     147.601 163.779 187.096  0.00  0.00    -0.363 OA
ATOM      9  C   UNL     1     145.802 163.808 188.807  0.00  0.00    +0.094 C 
ATOM     10  C   UNL     1     145.599 162.291 188.999  0.00  0.00    +0.003 C 
ATOM     11  C   UNL     1     146.835 161.383 189.076  0.00  0.00    +0.065 C 
ATOM     12  C   UNL     1     146.375 159.964 189.490  0.00  0.00    -0.008 C 
ATOM     13  C   UNL     1     147.494 159.113 189.998  0.00  0.00    -0.083 C 
ATOM     14  C   UNL     1     148.685 159.650 190.290  0.00  0.00    -0.059 C 
ATOM     15  C   UNL     1     148.994 161.116 190.125  0.00  0.00    +0.080 C 
ATOM     16  O   UNL     1     147.778 161.898 190.023  0.00  0.00    -0.369 OA
ATOM     17  C   UNL     1     149.919 161.389 188.928  0.00  0.00    +0.006 C 
ATOM     18  C   UNL     1     151.318 160.737 188.983  0.00  0.00    +0.090 C 
ATOM     19  C   UNL     1     152.224 161.186 190.168  0.00  0.00    +0.100 C 
ATOM     20  C   UNL     1     152.145 162.659 190.448  0.00  0.00    -0.051 C 
ATOM     21  C   UNL     1     152.868 163.648 189.886  0.00  0.00    -0.052 C 
ATOM     22  C   UNL     1     152.516 165.038 190.129  0.00  0.00    -0.052 C 
ATOM     23  C   UNL     1     151.249 165.465 190.055  0.00  0.00    +0.023 C 
ATOM     24  C   UNL     1     150.871 166.875 190.243  0.00  0.00    +0.332 C 
ATOM     25  O   UNL     1     151.627 167.829 190.235  0.00  0.00    -0.246 OA
ATOM     26  O   UNL     1     149.527 166.884 190.400  0.00  0.00    -0.458 OA
ATOM     27  H   UNL     1     149.353 168.848 189.791  0.00  0.00    +0.074 HD
ATOM     28  H   UNL     1     146.889 167.213 190.578  0.00  0.00    +0.036 HD
ATOM     29  H   UNL     1     148.045 166.215 188.649  0.00  0.00    +0.060 HD
ATOM     30  H   UNL     1     145.641 167.711 187.545  0.00  0.00    +0.032 HD
ATOM     31  H   UNL     1     145.408 166.569 188.833  0.00  0.00    +0.032 HD
ATOM     32  H   UNL     1     146.773 165.928 186.174  0.00  0.00    +0.063 HD
ATOM     33  H   UNL     1     146.248 162.235 186.388  0.00  0.00    +0.059 HD
ATOM     34  H   UNL     1     146.464 163.622 185.268  0.00  0.00    +0.059 HD
ATOM     35  H   UNL     1     146.515 164.194 189.547  0.00  0.00    +0.063 HD
ATOM     36  H   UNL     1     145.053 162.155 189.941  0.00  0.00    +0.032 HD
ATOM     37  H   UNL     1     144.913 161.914 188.229  0.00  0.00    +0.032 HD
ATOM     38  H   UNL     1     147.314 161.326 188.096  0.00  0.00    +0.060 HD
ATOM     39  H   UNL     1     145.635 160.016 190.298  0.00  0.00    +0.033 HD
ATOM     40  H   UNL     1     145.891 159.475 188.636  0.00  0.00    +0.033 HD
ATOM     41  H   UNL     1     147.316 158.056 190.167  0.00  0.00    +0.057 HD
ATOM     42  H   UNL     1     149.475 159.023 190.696  0.00  0.00    +0.059 HD
ATOM     43  H   UNL     1     149.466 161.470 191.047  0.00  0.00    +0.064 HD
ATOM     44  H   UNL     1     149.439 161.046 188.001  0.00  0.00    +0.032 HD
ATOM     45  H   UNL     1     150.009 162.473 188.773  0.00  0.00    +0.032 HD
ATOM     46  H   UNL     1     151.177 159.650 189.040  0.00  0.00    +0.063 HD
ATOM     47  H   UNL     1     153.260 160.892 189.983  0.00  0.00    +0.066 HD
ATOM     48  H   UNL     1     151.348 162.926 191.145  0.00  0.00    +0.060 HD
ATOM     49  H   UNL     1     153.326 165.735 190.325  0.00  0.00    +0.062 HD
ATOM     50  H   UNL     1     150.433 164.789 189.824  0.00  0.00    +0.069 HD
ENDROOT
BRANCH  21  51
ATOM     51  C   UNL     1     154.003 163.456 188.920  0.00  0.00    -0.040 C 
ATOM     52  H   UNL     1     153.630 163.082 187.963  0.00  0.00    +0.028 HD
ATOM     53  H   UNL     1     154.758 162.753 189.274  0.00  0.00    +0.028 HD
ATOM     54  H   UNL     1     154.513 164.407 188.741  0.00  0.00    +0.028 HD
ENDBRANCH  21  51
BRANCH   2  55
ATOM     55  C   UNL     1     146.599 169.195 189.791  0.00  0.00    -0.057 C 
ATOM     56  H   UNL     1     146.518 169.530 188.751  0.00  0.00    +0.023 HD
ATOM     57  H   UNL     1     147.046 169.994 190.377  0.00  0.00    +0.023 HD
ATOM     58  H   UNL     1     145.587 169.088 190.187  0.00  0.00    +0.023 HD
ENDBRANCH   2  55
BRANCH   1  59
ATOM     59  C   UNL     1     148.995 168.712 191.935  0.00  0.00    +0.020 C 
ATOM     60  H   UNL     1     147.975 168.902 192.287  0.00  0.00    +0.036 HD
BRANCH  59  61
ATOM     61  C   UNL     1     149.524 167.647 192.904  0.00  0.00    -0.057 C 
ATOM     62  H   UNL     1     149.389 166.642 192.494  0.00  0.00    +0.023 HD
ATOM     63  H   UNL     1     150.573 167.775 193.162  0.00  0.00    +0.023 HD
ATOM     64  H   UNL     1     148.964 167.691 193.844  0.00  0.00    +0.023 HD
ENDBRANCH  59  61
BRANCH  59  65
ATOM     65  C   UNL     1     149.758 170.058 192.112  0.00  0.00    +0.064 C 
ATOM     66  H   UNL     1     150.404 169.966 192.996  0.00  0.00    +0.060 HD
BRANCH  65  67
ATOM     67  C   UNL     1     148.863 171.307 192.349  0.00  0.00    -0.017 C 
ATOM     68  H   UNL     1     147.934 171.007 192.840  0.00  0.00    +0.032 HD
BRANCH  67  69
ATOM     69  C   UNL     1     149.573 172.318 193.262  0.00  0.00    -0.060 C 
ATOM     70  H   UNL     1     150.510 171.900 193.650  0.00  0.00    +0.023 HD
ATOM     71  H   UNL     1     148.942 172.582 194.117  0.00  0.00    +0.023 HD
ATOM     72  H   UNL     1     149.835 173.239 192.738  0.00  0.00    +0.023 HD
ENDBRANCH  67  69
BRANCH  67  73
ATOM     73  C   UNL     1     148.459 172.034 191.040  0.00  0.00    -0.046 C 
ATOM     74  H   UNL     1     149.358 172.197 190.431  0.00  0.00    +0.027 HD
ATOM     75  H   UNL     1     147.797 171.393 190.444  0.00  0.00    +0.027 HD
BRANCH  73  76
ATOM     76  C   UNL     1     147.811 173.401 191.287  0.00  0.00    -0.026 C 
ATOM     77  H   UNL     1     147.826 173.654 192.352  0.00  0.00    +0.029 HD
ATOM     78  H   UNL     1     148.396 174.185 190.788  0.00  0.00    +0.029 HD
BRANCH  76  83
ATOM     79  C   UNL     1     144.128 173.113 191.485  0.00  0.00    +0.059 C 
ATOM     80  C   UNL     1     143.798 173.261 189.996  0.00  0.00    -0.000 C 
ATOM     81  C   UNL     1     144.731 172.387 189.164  0.00  0.00    +0.063 C 
ATOM     82  C   UNL     1     146.193 172.792 189.405  0.00  0.00    -0.000 C 
ATOM     83  C   UNL     1     146.376 173.483 190.759  0.00  0.00    +0.061 C 
ATOM     84  O   UNL     1     145.519 172.860 191.722  0.00  0.00    -0.373 OA
ATOM     85  H   UNL     1     143.598 172.234 191.869  0.00  0.00    +0.059 HD
ATOM     86  H   UNL     1     142.749 173.006 189.804  0.00  0.00    +0.032 HD
ATOM     87  H   UNL     1     143.905 174.306 189.669  0.00  0.00    +0.032 HD
ATOM     88  H   UNL     1     144.581 171.340 189.461  0.00  0.00    +0.060 HD
ATOM     89  H   UNL     1     146.806 171.878 189.361  0.00  0.00    +0.032 HD
ATOM     90  H   UNL     1     146.567 173.443 188.603  0.00  0.00    +0.032 HD
ATOM     91  H   UNL     1     146.104 174.545 190.680  0.00  0.00    +0.060 HD
BRANCH  79  92
ATOM     92  C   UNL     1     143.683 174.322 192.295  0.00  0.00    -0.039 C 
ATOM     93  H   UNL     1     143.155 175.046 191.667  0.00  0.00    +0.025 HD
ATOM     94  H   UNL     1     143.018 174.005 193.106  0.00  0.00    +0.025 HD
ATOM     95  H   UNL     1     144.536 174.821 192.767  0.00  0.00    +0.025 HD
ENDBRANCH  79  92
BRANCH  81  96
ATOM     96  O   UNL     1     144.375 172.540 187.785  0.00  0.00    -0.380 OA
BRANCH  96  97
ATOM     97  C   UNL     1     144.200 171.297 187.116  0.00  0.00    +0.037 C 
ATOM     98  H   UNL     1     144.977 170.612 187.466  0.00  0.00    +0.052 HD
ATOM     99  H   UNL     1     144.308 171.422 186.035  0.00  0.00    +0.052 HD
ATOM    100  H   UNL     1     143.225 170.859 187.351  0.00  0.00    +0.052 HD
ENDBRANCH  96  97
ENDBRANCH  81  96
ENDBRANCH  76  83
ENDBRANCH  73  76
ENDBRANCH  67  73
ENDBRANCH  65  67
BRANCH  65 101
ATOM    101  O   UNL     1     150.631 170.286 191.014  0.00  0.00    -0.391 OA
ATOM    102  H   UNL     1     150.097 170.285 190.201  0.00  0.00    +0.210 HD
ENDBRANCH  65 101
ENDBRANCH  59  65
ENDBRANCH   1  59
BRANCH  19 103
ATOM    103  O   UNL     1     151.811 160.513 191.360  0.00  0.00    -0.385 OA
ATOM    104  H   UNL     1     151.945 161.130 192.100  0.00  0.00    +0.210 HD
ENDBRANCH  19 103
BRANCH  18 105
ATOM    105  O   UNL     1     151.959 161.051 187.731  0.00  0.00    -0.377 OA
BRANCH 105 106
ATOM    106  C   UNL     1     153.025 160.166 187.408  0.00  0.00    +0.037 C 
ATOM    107  H   UNL     1     152.877 159.748 186.407  0.00  0.00    +0.052 HD
ATOM    108  H   UNL     1     153.107 159.360 188.142  0.00  0.00    +0.052 HD
ATOM    109  H   UNL     1     153.959 160.735 187.411  0.00  0.00    +0.052 HD
ENDBRANCH 105 106
ENDBRANCH  18 105
BRANCH   9 110
ATOM    110  O   UNL     1     144.506 164.399 189.045  0.00  0.00    -0.377 OA
BRANCH 110 111
ATOM    111  C   UNL     1     143.415 163.539 188.731  0.00  0.00    +0.037 C 
ATOM    112  H   UNL     1     142.685 164.110 188.149  0.00  0.00    +0.052 HD
ATOM    113  H   UNL     1     142.924 163.191 189.645  0.00  0.00    +0.052 HD
ATOM    114  H   UNL     1     143.742 162.690 188.127  0.00  0.00    +0.052 HD
ENDBRANCH 110 111
ENDBRANCH   9 110
BRANCH   5 115
ATOM    115  O   UNL     1     144.731 165.700 186.299  0.00  0.00    -0.377 OA
BRANCH 115 116
ATOM    116  C   UNL     1     143.982 166.880 186.550  0.00  0.00    +0.037 C 
ATOM    117  H   UNL     1     143.286 166.672 187.364  0.00  0.00    +0.052 HD
ATOM    118  H   UNL     1     144.630 167.705 186.847  0.00  0.00    +0.052 HD
ATOM    119  H   UNL     1     143.402 167.159 185.664  0.00  0.00    +0.052 HD
ENDBRANCH 115 116
ENDBRANCH   5 115
BRANCH   3 120
ATOM    120  O   UNL     1     148.108 168.014 187.559  0.00  0.00    -0.379 OA
BRANCH 120 121
ATOM    121  C   UNL     1     149.196 167.409 186.875  0.00  0.00    +0.037 C 
ATOM    122  H   UNL     1     150.126 167.829 187.273  0.00  0.00    +0.052 HD
ATOM    123  H   UNL     1     149.153 167.619 185.801  0.00  0.00    +0.052 HD
ATOM    124  H   UNL     1     149.208 166.326 187.046  0.00  0.00    +0.052 HD
ENDBRANCH 120 121
ENDBRANCH   3 120
TORSDOF 23
ENDMDL
MODEL 5
REMARK VINA RESULT:      -5.7     10.915     21.151
REMARK  Name = Lobophorolide_conf1
REMARK  23 active torsions:
REMARK  status: ('A' for Active; 'I' for Inactive)
REMARK    1  A    between atoms: C_1  and  C_2
REMARK    2  A    between atoms: C_4  and  O_53
REMARK    3  A    between atoms: C_6  and  C_8
REMARK    4  A    between atoms: C_8  and  C_9
REMARK    5  A    between atoms: C_9  and  C_10
REMARK    6  A    between atoms: C_10  and  C_11
REMARK    7  A    between atoms: C_10  and  C_12
REMARK    8  A    between atoms: C_12  and  C_13
REMARK    9  A    between atoms: C_12  and  O_52
REMARK   10  A    between atoms: C_13  and  C_14
REMARK   11  A    between atoms: C_13  and  C_15
REMARK   12  A    between atoms: C_16  and  C_51
REMARK   13  A    between atoms: C_17  and  O_49
REMARK   14  A    between atoms: C_19  and  O_47
REMARK   15  A    between atoms: C_23  and  O_45
REMARK   16  A    between atoms: C_32  and  O_43
REMARK   17  A    between atoms: C_33  and  O_42
REMARK   18  A    between atoms: C_35  and  C_41
REMARK   19  A    between atoms: O_43  and  C_44
REMARK   20  A    between atoms: O_45  and  C_46
REMARK   21  A    between atoms: O_47  and  C_48
REMARK   22  A    between atoms: O_49  and  C_50
REMARK   23  A    between atoms: O_53  and  C_54
REMARK                            x       y       z     vdW  Elec       q    Type
REMARK                         _______ _______ _______ _____ _____    ______ ____
ROOT
ATOM      1  C   UNL     1     150.855 165.680 191.158  0.00  0.00    +0.113 C 
ATOM      2  C   UNL     1     150.353 164.222 191.401  0.00  0.00    +0.020 C 
ATOM      3  C   UNL     1     150.168 163.448 190.040  0.00  0.00    +0.067 C 
ATOM      4  C   UNL     1     149.764 161.979 190.280  0.00  0.00    +0.003 C 
ATOM      5  C   UNL     1     150.012 161.038 189.094  0.00  0.00    +0.094 C 
ATOM      6  C   UNL     1     151.469 160.672 188.785  0.00  0.00    +0.145 C 
ATOM      7  C   UNL     1     151.663 160.007 187.427  0.00  0.00    +0.083 C 
ATOM      8  O   UNL     1     152.008 161.379 187.646  0.00  0.00    -0.363 OA
ATOM      9  C   UNL     1     152.488 160.506 189.921  0.00  0.00    +0.094 C 
ATOM     10  C   UNL     1     153.724 159.637 189.613  0.00  0.00    +0.003 C 
ATOM     11  C   UNL     1     154.800 160.190 188.666  0.00  0.00    +0.065 C 
ATOM     12  C   UNL     1     156.019 159.237 188.700  0.00  0.00    -0.008 C 
ATOM     13  C   UNL     1     157.265 159.864 188.164  0.00  0.00    -0.083 C 
ATOM     14  C   UNL     1     157.328 161.182 187.942  0.00  0.00    -0.059 C 
ATOM     15  C   UNL     1     156.175 162.119 188.195  0.00  0.00    +0.080 C 
ATOM     16  O   UNL     1     155.188 161.509 189.064  0.00  0.00    -0.369 OA
ATOM     17  C   UNL     1     155.522 162.611 186.892  0.00  0.00    +0.006 C 
ATOM     18  C   UNL     1     156.430 163.417 185.937  0.00  0.00    +0.090 C 
ATOM     19  C   UNL     1     156.995 164.752 186.510  0.00  0.00    +0.100 C 
ATOM     20  C   UNL     1     155.988 165.525 187.311  0.00  0.00    -0.051 C 
ATOM     21  C   UNL     1     155.088 166.423 186.864  0.00  0.00    -0.052 C 
ATOM     22  C   UNL     1     154.052 166.924 187.754  0.00  0.00    -0.052 C 
ATOM     23  C   UNL     1     153.345 166.103 188.540  0.00  0.00    +0.023 C 
ATOM     24  C   UNL     1     152.255 166.577 189.410  0.00  0.00    +0.332 C 
ATOM     25  O   UNL     1     151.707 167.662 189.350  0.00  0.00    -0.246 OA
ATOM     26  O   UNL     1     151.983 165.557 190.257  0.00  0.00    -0.458 OA
ATOM     27  H   UNL     1     150.063 166.217 190.620  0.00  0.00    +0.074 HD
ATOM     28  H   UNL     1     151.135 163.671 191.937  0.00  0.00    +0.036 HD
ATOM     29  H   UNL     1     151.115 163.468 189.485  0.00  0.00    +0.060 HD
ATOM     30  H   UNL     1     148.689 161.948 190.503  0.00  0.00    +0.032 HD
ATOM     31  H   UNL     1     150.250 161.598 191.179  0.00  0.00    +0.032 HD
ATOM     32  H   UNL     1     149.592 161.509 188.195  0.00  0.00    +0.063 HD
ATOM     33  H   UNL     1     152.450 159.287 187.269  0.00  0.00    +0.059 HD
ATOM     34  H   UNL     1     150.788 159.801 186.820  0.00  0.00    +0.059 HD
ATOM     35  H   UNL     1     152.798 161.510 190.239  0.00  0.00    +0.063 HD
ATOM     36  H   UNL     1     154.224 159.435 190.568  0.00  0.00    +0.032 HD
ATOM     37  H   UNL     1     153.398 158.649 189.260  0.00  0.00    +0.032 HD
ATOM     38  H   UNL     1     154.411 160.229 187.647  0.00  0.00    +0.060 HD
ATOM     39  H   UNL     1     156.245 158.931 189.730  0.00  0.00    +0.033 HD
ATOM     40  H   UNL     1     155.785 158.326 188.135  0.00  0.00    +0.033 HD
ATOM     41  H   UNL     1     158.137 159.240 187.996  0.00  0.00    +0.057 HD
ATOM     42  H   UNL     1     158.255 161.627 187.589  0.00  0.00    +0.059 HD
ATOM     43  H   UNL     1     156.549 162.974 188.768  0.00  0.00    +0.064 HD
ATOM     44  H   UNL     1     155.134 161.755 186.324  0.00  0.00    +0.032 HD
ATOM     45  H   UNL     1     154.615 163.183 187.129  0.00  0.00    +0.032 HD
ATOM     46  H   UNL     1     157.271 162.772 185.653  0.00  0.00    +0.063 HD
ATOM     47  H   UNL     1     157.390 165.371 185.702  0.00  0.00    +0.066 HD
ATOM     48  H   UNL     1     155.968 165.248 188.368  0.00  0.00    +0.060 HD
ATOM     49  H   UNL     1     153.835 167.989 187.723  0.00  0.00    +0.062 HD
ATOM     50  H   UNL     1     153.524 165.034 188.555  0.00  0.00    +0.069 HD
ENDROOT
BRANCH  21  51
ATOM     51  C   UNL     1     154.985 166.923 185.450  0.00  0.00    -0.040 C 
ATOM     52  H   UNL     1     155.504 166.244 184.767  0.00  0.00    +0.028 HD
ATOM     53  H   UNL     1     155.412 167.917 185.311  0.00  0.00    +0.028 HD
ATOM     54  H   UNL     1     153.936 166.981 185.145  0.00  0.00    +0.028 HD
ENDBRANCH  21  51
BRANCH   2  55
ATOM     55  C   UNL     1     149.067 164.190 192.235  0.00  0.00    -0.057 C 
ATOM     56  H   UNL     1     148.191 163.970 191.615  0.00  0.00    +0.023 HD
ATOM     57  H   UNL     1     148.903 165.138 192.741  0.00  0.00    +0.023 HD
ATOM     58  H   UNL     1     149.106 163.447 193.034  0.00  0.00    +0.023 HD
ENDBRANCH   2  55
BRANCH   1  59
ATOM     59  C   UNL     1     151.297 166.552 192.382  0.00  0.00    +0.020 C 
ATOM     60  H   UNL     1     151.131 165.926 193.266  0.00  0.00    +0.036 HD
BRANCH  59  61
ATOM     61  C   UNL     1     152.810 166.807 192.395  0.00  0.00    -0.057 C 
ATOM     62  H   UNL     1     153.031 167.840 192.677  0.00  0.00    +0.023 HD
ATOM     63  H   UNL     1     153.358 166.143 193.060  0.00  0.00    +0.023 HD
ATOM     64  H   UNL     1     153.220 166.651 191.391  0.00  0.00    +0.023 HD
ENDBRANCH  59  61
BRANCH  59  65
ATOM     65  C   UNL     1     150.506 167.868 192.645  0.00  0.00    +0.064 C 
ATOM     66  H   UNL     1     150.388 167.978 193.732  0.00  0.00    +0.060 HD
BRANCH  65  67
ATOM     67  C   UNL     1     149.076 167.920 192.039  0.00  0.00    -0.017 C 
ATOM     68  H   UNL     1     148.913 167.047 191.403  0.00  0.00    +0.032 HD
BRANCH  67  69
ATOM     69  C   UNL     1     148.015 167.898 193.149  0.00  0.00    -0.060 C 
ATOM     70  H   UNL     1     147.096 167.411 192.798  0.00  0.00    +0.023 HD
ATOM     71  H   UNL     1     147.757 168.915 193.464  0.00  0.00    +0.023 HD
ATOM     72  H   UNL     1     148.345 167.344 194.029  0.00  0.00    +0.023 HD
ENDBRANCH  67  69
BRANCH  67  73
ATOM     73  C   UNL     1     148.827 169.169 191.153  0.00  0.00    -0.046 C 
ATOM     74  H   UNL     1     149.282 170.044 191.636  0.00  0.00    +0.027 HD
ATOM     75  H   UNL     1     149.335 169.051 190.189  0.00  0.00    +0.027 HD
BRANCH  73  76
ATOM     76  C   UNL     1     147.339 169.472 190.948  0.00  0.00    -0.026 C 
ATOM     77  H   UNL     1     147.006 169.146 189.956  0.00  0.00    +0.029 HD
ATOM     78  H   UNL     1     146.739 168.896 191.665  0.00  0.00    +0.029 HD
BRANCH  76  83
ATOM     79  C   UNL     1     146.198 172.833 189.899  0.00  0.00    +0.059 C 
ATOM     80  C   UNL     1     146.618 173.624 191.143  0.00  0.00    -0.000 C 
ATOM     81  C   UNL     1     148.034 173.236 191.555  0.00  0.00    +0.063 C 
ATOM     82  C   UNL     1     148.106 171.733 191.860  0.00  0.00    -0.000 C 
ATOM     83  C   UNL     1     147.001 170.953 191.142  0.00  0.00    +0.061 C 
ATOM     84  O   UNL     1     146.789 171.527 189.847  0.00  0.00    -0.373 OA
ATOM     85  H   UNL     1     146.569 173.360 189.013  0.00  0.00    +0.059 HD
ATOM     86  H   UNL     1     146.546 174.702 190.958  0.00  0.00    +0.032 HD
ATOM     87  H   UNL     1     145.937 173.430 191.984  0.00  0.00    +0.032 HD
ATOM     88  H   UNL     1     148.716 173.481 190.728  0.00  0.00    +0.060 HD
ATOM     89  H   UNL     1     149.095 171.372 191.538  0.00  0.00    +0.032 HD
ATOM     90  H   UNL     1     148.054 171.539 192.940  0.00  0.00    +0.032 HD
ATOM     91  H   UNL     1     146.064 171.016 191.713  0.00  0.00    +0.060 HD
BRANCH  79  92
ATOM     92  C   UNL     1     144.686 172.713 189.778  0.00  0.00    -0.039 C 
ATOM     93  H   UNL     1     144.406 172.102 188.915  0.00  0.00    +0.025 HD
ATOM     94  H   UNL     1     144.272 172.258 190.684  0.00  0.00    +0.025 HD
ATOM     95  H   UNL     1     144.215 173.697 189.679  0.00  0.00    +0.025 HD
ENDBRANCH  79  92
BRANCH  81  96
ATOM     96  O   UNL     1     148.393 174.012 192.704  0.00  0.00    -0.380 OA
BRANCH  96  97
ATOM     97  C   UNL     1     147.643 173.667 193.863  0.00  0.00    +0.037 C 
ATOM     98  H   UNL     1     148.039 174.241 194.705  0.00  0.00    +0.052 HD
ATOM     99  H   UNL     1     147.749 172.602 194.088  0.00  0.00    +0.052 HD
ATOM    100  H   UNL     1     146.587 173.925 193.738  0.00  0.00    +0.052 HD
ENDBRANCH  96  97
ENDBRANCH  81  96
ENDBRANCH  76  83
ENDBRANCH  73  76
ENDBRANCH  67  73
ENDBRANCH  65  67
BRANCH  65 101
ATOM    101  O   UNL     1     151.258 168.996 192.218  0.00  0.00    -0.391 OA
ATOM    102  H   UNL     1     150.712 169.788 192.354  0.00  0.00    +0.210 HD
ENDBRANCH  65 101
ENDBRANCH  59  65
ENDBRANCH   1  59
BRANCH  19 103
ATOM    103  O   UNL     1     158.090 164.464 187.384  0.00  0.00    -0.385 OA
ATOM    104  H   UNL     1     158.718 165.202 187.310  0.00  0.00    +0.210 HD
ENDBRANCH  19 103
BRANCH  18 105
ATOM    105  O   UNL     1     155.640 163.686 184.762  0.00  0.00    -0.377 OA
BRANCH 105 106
ATOM    106  C   UNL     1     154.376 163.031 184.773  0.00  0.00    +0.037 C 
ATOM    107  H   UNL     1     154.515 161.946 184.735  0.00  0.00    +0.052 HD
ATOM    108  H   UNL     1     153.753 163.359 183.937  0.00  0.00    +0.052 HD
ATOM    109  H   UNL     1     153.866 163.283 185.706  0.00  0.00    +0.052 HD
ENDBRANCH 105 106
ENDBRANCH  18 105
BRANCH   9 110
ATOM    110  O   UNL     1     151.823 159.846 191.020  0.00  0.00    -0.377 OA
BRANCH 110 111
ATOM    111  C   UNL     1     152.125 158.458 191.125  0.00  0.00    +0.037 C 
ATOM    112  H   UNL     1     153.174 158.358 191.418  0.00  0.00    +0.052 HD
ATOM    113  H   UNL     1     151.993 157.961 190.159  0.00  0.00    +0.052 HD
ATOM    114  H   UNL     1     151.511 157.977 191.888  0.00  0.00    +0.052 HD
ENDBRANCH 110 111
ENDBRANCH   9 110
BRANCH   5 115
ATOM    115  O   UNL     1     149.303 159.801 189.306  0.00  0.00    -0.377 OA
BRANCH 115 116
ATOM    116  C   UNL     1     148.310 159.889 190.317  0.00  0.00    +0.037 C 
ATOM    117  H   UNL     1     147.578 159.099 190.142  0.00  0.00    +0.052 HD
ATOM    118  H   UNL     1     148.741 159.750 191.310  0.00  0.00    +0.052 HD
ATOM    119  H   UNL     1     147.795 160.853 190.263  0.00  0.00    +0.052 HD
ENDBRANCH 115 116
ENDBRANCH   5 115
BRANCH   3 120
ATOM    120  O   UNL     1     149.111 164.080 189.296  0.00  0.00    -0.379 OA
BRANCH 120 121
ATOM    121  C   UNL     1     149.486 164.446 187.975  0.00  0.00    +0.037 C 
ATOM    122  H   UNL     1     148.827 163.919 187.275  0.00  0.00    +0.052 HD
ATOM    123  H   UNL     1     150.519 164.154 187.762  0.00  0.00    +0.052 HD
ATOM    124  H   UNL     1     149.359 165.523 187.821  0.00  0.00    +0.052 HD
ENDBRANCH 120 121
ENDBRANCH   3 120
TORSDOF 23
ENDMDL
MODEL 6
REMARK VINA RESULT:      -5.7      2.961      5.562
REMARK  Name = Lobophorolide_conf1
REMARK  23 active torsions:
REMARK  status: ('A' for Active; 'I' for Inactive)
REMARK    1  A    between atoms: C_1  and  C_2
REMARK    2  A    between atoms: C_4  and  O_53
REMARK    3  A    between atoms: C_6  and  C_8
REMARK    4  A    between atoms: C_8  and  C_9
REMARK    5  A    between atoms: C_9  and  C_10
REMARK    6  A    between atoms: C_10  and  C_11
REMARK    7  A    between atoms: C_10  and  C_12
REMARK    8  A    between atoms: C_12  and  C_13
REMARK    9  A    between atoms: C_12  and  O_52
REMARK   10  A    between atoms: C_13  and  C_14
REMARK   11  A    between atoms: C_13  and  C_15
REMARK   12  A    between atoms: C_16  and  C_51
REMARK   13  A    between atoms: C_17  and  O_49
REMARK   14  A    between atoms: C_19  and  O_47
REMARK   15  A    between atoms: C_23  and  O_45
REMARK   16  A    between atoms: C_32  and  O_43
REMARK   17  A    between atoms: C_33  and  O_42
REMARK   18  A    between atoms: C_35  and  C_41
REMARK   19  A    between atoms: O_43  and  C_44
REMARK   20  A    between atoms: O_45  and  C_46
REMARK   21  A    between atoms: O_47  and  C_48
REMARK   22  A    between atoms: O_49  and  C_50
REMARK   23  A    between atoms: O_53  and  C_54
REMARK                            x       y       z     vdW  Elec       q    Type
REMARK                         _______ _______ _______ _____ _____    ______ ____
ROOT
ATOM      1  C   UNL     1     139.512 175.661 194.590  0.00  0.00    +0.113 C 
ATOM      2  C   UNL     1     139.351 176.323 195.995  0.00  0.00    +0.020 C 
ATOM      3  C   UNL     1     137.905 176.926 196.178  0.00  0.00    +0.067 C 
ATOM      4  C   UNL     1     137.713 177.497 197.598  0.00  0.00    +0.003 C 
ATOM      5  C   UNL     1     136.251 177.671 198.031  0.00  0.00    +0.094 C 
ATOM      6  C   UNL     1     135.459 176.395 198.348  0.00  0.00    +0.145 C 
ATOM      7  C   UNL     1     133.955 176.615 198.457  0.00  0.00    +0.083 C 
ATOM      8  O   UNL     1     134.542 176.015 197.298  0.00  0.00    -0.363 OA
ATOM      9  C   UNL     1     136.152 175.191 199.000  0.00  0.00    +0.094 C 
ATOM     10  C   UNL     1     135.242 174.209 199.767  0.00  0.00    +0.003 C 
ATOM     11  C   UNL     1     134.302 173.294 198.968  0.00  0.00    +0.065 C 
ATOM     12  C   UNL     1     133.675 172.267 199.941  0.00  0.00    -0.008 C 
ATOM     13  C   UNL     1     133.085 171.086 199.241  0.00  0.00    -0.083 C 
ATOM     14  C   UNL     1     133.332 170.863 197.945  0.00  0.00    -0.059 C 
ATOM     15  C   UNL     1     134.193 171.767 197.100  0.00  0.00    +0.080 C 
ATOM     16  O   UNL     1     135.020 172.622 197.928  0.00  0.00    -0.369 OA
ATOM     17  C   UNL     1     133.369 172.603 196.108  0.00  0.00    +0.006 C 
ATOM     18  C   UNL     1     132.554 171.812 195.061  0.00  0.00    +0.090 C 
ATOM     19  C   UNL     1     133.388 170.927 194.086  0.00  0.00    +0.100 C 
ATOM     20  C   UNL     1     134.646 171.596 193.610  0.00  0.00    -0.051 C 
ATOM     21  C   UNL     1     134.798 172.416 192.552  0.00  0.00    -0.052 C 
ATOM     22  C   UNL     1     136.047 173.136 192.359  0.00  0.00    -0.052 C 
ATOM     23  C   UNL     1     136.652 173.775 193.369  0.00  0.00    +0.023 C 
ATOM     24  C   UNL     1     137.887 174.555 193.191  0.00  0.00    +0.332 C 
ATOM     25  O   UNL     1     138.360 174.922 192.131  0.00  0.00    -0.246 OA
ATOM     26  O   UNL     1     138.361 174.793 194.436  0.00  0.00    -0.458 OA
ATOM     27  H   UNL     1     139.427 176.455 193.838  0.00  0.00    +0.074 HD
ATOM     28  H   UNL     1     139.432 175.541 196.758  0.00  0.00    +0.036 HD
ATOM     29  H   UNL     1     137.164 176.133 196.011  0.00  0.00    +0.060 HD
ATOM     30  H   UNL     1     138.186 178.486 197.640  0.00  0.00    +0.032 HD
ATOM     31  H   UNL     1     138.257 176.892 198.323  0.00  0.00    +0.032 HD
ATOM     32  H   UNL     1     135.720 178.197 197.227  0.00  0.00    +0.063 HD
ATOM     33  H   UNL     1     133.351 176.009 199.114  0.00  0.00    +0.059 HD
ATOM     34  H   UNL     1     133.568 177.623 198.358  0.00  0.00    +0.059 HD
ATOM     35  H   UNL     1     136.708 174.662 198.216  0.00  0.00    +0.063 HD
ATOM     36  H   UNL     1     135.897 173.550 200.350  0.00  0.00    +0.032 HD
ATOM     37  H   UNL     1     134.665 174.759 200.522  0.00  0.00    +0.032 HD
ATOM     38  H   UNL     1     133.503 173.887 198.519  0.00  0.00    +0.060 HD
ATOM     39  H   UNL     1     134.432 171.871 200.630  0.00  0.00    +0.033 HD
ATOM     40  H   UNL     1     132.910 172.762 200.550  0.00  0.00    +0.033 HD
ATOM     41  H   UNL     1     132.483 170.384 199.811  0.00  0.00    +0.057 HD
ATOM     42  H   UNL     1     132.926 169.978 197.462  0.00  0.00    +0.059 HD
ATOM     43  H   UNL     1     134.909 171.143 196.555  0.00  0.00    +0.064 HD
ATOM     44  H   UNL     1     132.660 173.239 196.655  0.00  0.00    +0.032 HD
ATOM     45  H   UNL     1     134.023 173.332 195.610  0.00  0.00    +0.032 HD
ATOM     46  H   UNL     1     131.849 171.169 195.603  0.00  0.00    +0.063 HD
ATOM     47  H   UNL     1     132.776 170.626 193.233  0.00  0.00    +0.066 HD
ATOM     48  H   UNL     1     135.502 171.426 194.267  0.00  0.00    +0.060 HD
ATOM     49  H   UNL     1     136.451 173.181 191.352  0.00  0.00    +0.062 HD
ATOM     50  H   UNL     1     136.242 173.771 194.373  0.00  0.00    +0.069 HD
ENDROOT
BRANCH  21  51
ATOM     51  C   UNL     1     133.731 172.747 191.546  0.00  0.00    -0.040 C 
ATOM     52  H   UNL     1     133.171 173.633 191.862  0.00  0.00    +0.028 HD
ATOM     53  H   UNL     1     133.011 171.941 191.399  0.00  0.00    +0.028 HD
ATOM     54  H   UNL     1     134.181 172.955 190.571  0.00  0.00    +0.028 HD
ENDBRANCH  21  51
BRANCH   2  55
ATOM     55  C   UNL     1     140.429 177.381 196.256  0.00  0.00    -0.057 C 
ATOM     56  H   UNL     1     141.371 176.924 196.579  0.00  0.00    +0.023 HD
ATOM     57  H   UNL     1     140.111 178.089 197.016  0.00  0.00    +0.023 HD
ATOM     58  H   UNL     1     140.639 177.990 195.374  0.00  0.00    +0.023 HD
ENDBRANCH   2  55
BRANCH   1  59
ATOM     59  C   UNL     1     140.802 174.825 194.281  0.00  0.00    +0.020 C 
ATOM     60  H   UNL     1     141.491 175.029 195.108  0.00  0.00    +0.036 HD
BRANCH  59  61
ATOM     61  C   UNL     1     140.549 173.315 194.379  0.00  0.00    -0.057 C 
ATOM     62  H   UNL     1     139.486 173.087 194.265  0.00  0.00    +0.023 HD
ATOM     63  H   UNL     1     141.107 172.732 193.649  0.00  0.00    +0.023 HD
ATOM     64  H   UNL     1     140.854 172.952 195.366  0.00  0.00    +0.023 HD
ENDBRANCH  59  61
BRANCH  59  65
ATOM     65  C   UNL     1     141.587 175.178 192.984  0.00  0.00    +0.064 C 
ATOM     66  H   UNL     1     140.871 175.581 192.255  0.00  0.00    +0.060 HD
BRANCH  65  67
ATOM     67  C   UNL     1     142.301 173.986 192.289  0.00  0.00    -0.017 C 
ATOM     68  H   UNL     1     142.157 173.077 192.878  0.00  0.00    +0.032 HD
BRANCH  67  69
ATOM     69  C   UNL     1     141.711 173.739 190.892  0.00  0.00    -0.060 C 
ATOM     70  H   UNL     1     142.260 174.309 190.132  0.00  0.00    +0.023 HD
ATOM     71  H   UNL     1     140.661 174.048 190.851  0.00  0.00    +0.023 HD
ATOM     72  H   UNL     1     141.767 172.690 190.596  0.00  0.00    +0.023 HD
ENDBRANCH  67  69
BRANCH  67  73
ATOM     73  C   UNL     1     143.832 174.183 192.141  0.00  0.00    -0.046 C 
ATOM     74  H   UNL     1     144.025 175.192 191.753  0.00  0.00    +0.027 HD
ATOM     75  H   UNL     1     144.312 174.136 193.126  0.00  0.00    +0.027 HD
BRANCH  73  76
ATOM     76  C   UNL     1     144.477 173.183 191.176  0.00  0.00    -0.026 C 
ATOM     77  H   UNL     1     143.776 172.382 190.916  0.00  0.00    +0.029 HD
ATOM     78  H   UNL     1     144.719 173.683 190.229  0.00  0.00    +0.029 HD
BRANCH  76  83
ATOM     79  C   UNL     1     147.909 173.251 192.558  0.00  0.00    +0.059 C 
ATOM     80  C   UNL     1     148.240 171.760 192.442  0.00  0.00    -0.000 C 
ATOM     81  C   UNL     1     147.827 171.238 191.070  0.00  0.00    +0.063 C 
ATOM     82  C   UNL     1     146.320 171.442 190.856  0.00  0.00    -0.000 C 
ATOM     83  C   UNL     1     145.770 172.575 191.726  0.00  0.00    +0.061 C 
ATOM     84  O   UNL     1     146.746 173.621 191.805  0.00  0.00    -0.373 OA
ATOM     85  H   UNL     1     148.736 173.823 192.124  0.00  0.00    +0.059 HD
ATOM     86  H   UNL     1     149.308 171.585 192.621  0.00  0.00    +0.032 HD
ATOM     87  H   UNL     1     147.720 171.176 193.215  0.00  0.00    +0.032 HD
ATOM     88  H   UNL     1     148.390 171.790 190.305  0.00  0.00    +0.060 HD
ATOM     89  H   UNL     1     146.161 171.672 189.791  0.00  0.00    +0.032 HD
ATOM     90  H   UNL     1     145.757 170.519 191.050  0.00  0.00    +0.032 HD
ATOM     91  H   UNL     1     145.567 172.206 192.741  0.00  0.00    +0.060 HD
BRANCH  79  92
ATOM     92  C   UNL     1     147.740 173.691 194.005  0.00  0.00    -0.039 C 
ATOM     93  H   UNL     1     146.690 173.649 194.311  0.00  0.00    +0.025 HD
ATOM     94  H   UNL     1     148.327 173.043 194.664  0.00  0.00    +0.025 HD
ATOM     95  H   UNL     1     148.110 174.711 194.158  0.00  0.00    +0.025 HD
ENDBRANCH  79  92
BRANCH  81  96
ATOM     96  O   UNL     1     148.174 169.850 190.997  0.00  0.00    -0.380 OA
BRANCH  96  97
ATOM     97  C   UNL     1     149.334 169.527 191.754  0.00  0.00    +0.037 C 
ATOM     98  H   UNL     1     149.036 169.420 192.800  0.00  0.00    +0.052 HD
ATOM     99  H   UNL     1     150.075 170.328 191.684  0.00  0.00    +0.052 HD
ATOM    100  H   UNL     1     149.768 168.579 191.422  0.00  0.00    +0.052 HD
ENDBRANCH  96  97
ENDBRANCH  81  96
ENDBRANCH  76  83
ENDBRANCH  73  76
ENDBRANCH  67  73
ENDBRANCH  65  67
BRANCH  65 101
ATOM    101  O   UNL     1     142.517 176.224 193.233  0.00  0.00    -0.391 OA
ATOM    102  H   UNL     1     143.393 175.822 193.361  0.00  0.00    +0.210 HD
ENDBRANCH  65 101
ENDBRANCH  59  65
ENDBRANCH   1  59
BRANCH  19 103
ATOM    103  O   UNL     1     133.783 169.727 194.756  0.00  0.00    -0.385 OA
ATOM    104  H   UNL     1     134.268 169.992 195.557  0.00  0.00    +0.210 HD
ENDBRANCH  19 103
BRANCH  18 105
ATOM    105  O   UNL     1     131.802 172.788 194.314  0.00  0.00    -0.377 OA
BRANCH 105 106
ATOM    106  C   UNL     1     132.077 174.128 194.705  0.00  0.00    +0.037 C 
ATOM    107  H   UNL     1     132.919 174.150 195.404  0.00  0.00    +0.052 HD
ATOM    108  H   UNL     1     131.200 174.596 195.159  0.00  0.00    +0.052 HD
ATOM    109  H   UNL     1     132.352 174.698 193.813  0.00  0.00    +0.052 HD
ENDBRANCH 105 106
ENDBRANCH  18 105
BRANCH   9 110
ATOM    110  O   UNL     1     137.082 175.695 199.983  0.00  0.00    -0.377 OA
BRANCH 110 111
ATOM    111  C   UNL     1     136.601 175.622 201.321  0.00  0.00    +0.037 C 
ATOM    112  H   UNL     1     135.685 175.021 201.324  0.00  0.00    +0.052 HD
ATOM    113  H   UNL     1     136.353 176.619 201.696  0.00  0.00    +0.052 HD
ATOM    114  H   UNL     1     137.326 175.138 201.977  0.00  0.00    +0.052 HD
ENDBRANCH 110 111
ENDBRANCH   9 110
BRANCH   5 115
ATOM    115  O   UNL     1     136.194 178.504 199.206  0.00  0.00    -0.377 OA
BRANCH 115 116
ATOM    116  C   UNL     1     135.927 179.868 198.914  0.00  0.00    +0.037 C 
ATOM    117  H   UNL     1     136.289 180.470 199.750  0.00  0.00    +0.052 HD
ATOM    118  H   UNL     1     136.442 180.188 198.007  0.00  0.00    +0.052 HD
ATOM    119  H   UNL     1     134.849 180.032 198.812  0.00  0.00    +0.052 HD
ENDBRANCH 115 116
ENDBRANCH   5 115
BRANCH   3 120
ATOM    120  O   UNL     1     137.739 178.005 195.242  0.00  0.00    -0.379 OA
BRANCH 120 121
ATOM    121  C   UNL     1     136.586 177.875 194.423  0.00  0.00    +0.037 C 
ATOM    122  H   UNL     1     136.713 178.523 193.548  0.00  0.00    +0.052 HD
ATOM    123  H   UNL     1     135.683 178.190 194.957  0.00  0.00    +0.052 HD
ATOM    124  H   UNL     1     136.474 176.843 194.072  0.00  0.00    +0.052 HD
ENDBRANCH 120 121
ENDBRANCH   3 120
TORSDOF 23
ENDMDL
MODEL 7
REMARK VINA RESULT:      -5.6     13.863     19.422
REMARK  Name = Lobophorolide_conf1
REMARK  23 active torsions:
REMARK  status: ('A' for Active; 'I' for Inactive)
REMARK    1  A    between atoms: C_1  and  C_2
REMARK    2  A    between atoms: C_4  and  O_53
REMARK    3  A    between atoms: C_6  and  C_8
REMARK    4  A    between atoms: C_8  and  C_9
REMARK    5  A    between atoms: C_9  and  C_10
REMARK    6  A    between atoms: C_10  and  C_11
REMARK    7  A    between atoms: C_10  and  C_12
REMARK    8  A    between atoms: C_12  and  C_13
REMARK    9  A    between atoms: C_12  and  O_52
REMARK   10  A    between atoms: C_13  and  C_14
REMARK   11  A    between atoms: C_13  and  C_15
REMARK   12  A    between atoms: C_16  and  C_51
REMARK   13  A    between atoms: C_17  and  O_49
REMARK   14  A    between atoms: C_19  and  O_47
REMARK   15  A    between atoms: C_23  and  O_45
REMARK   16  A    between atoms: C_32  and  O_43
REMARK   17  A    between atoms: C_33  and  O_42
REMARK   18  A    between atoms: C_35  and  C_41
REMARK   19  A    between atoms: O_43  and  C_44
REMARK   20  A    between atoms: O_45  and  C_46
REMARK   21  A    between atoms: O_47  and  C_48
REMARK   22  A    between atoms: O_49  and  C_50
REMARK   23  A    between atoms: O_53  and  C_54
REMARK                            x       y       z     vdW  Elec       q    Type
REMARK                         _______ _______ _______ _____ _____    ______ ____
ROOT
ATOM      1  C   UNL     1     152.970 164.776 187.584  0.00  0.00    +0.113 C 
ATOM      2  C   UNL     1     152.006 163.797 186.841  0.00  0.00    +0.020 C 
ATOM      3  C   UNL     1     151.322 162.795 187.848  0.00  0.00    +0.067 C 
ATOM      4  C   UNL     1     150.299 161.891 187.132  0.00  0.00    +0.003 C 
ATOM      5  C   UNL     1     149.265 161.229 188.052  0.00  0.00    +0.094 C 
ATOM      6  C   UNL     1     148.175 162.134 188.642  0.00  0.00    +0.145 C 
ATOM      7  C   UNL     1     147.390 161.490 189.779  0.00  0.00    +0.083 C 
ATOM      8  O   UNL     1     148.400 162.472 190.029  0.00  0.00    -0.363 OA
ATOM      9  C   UNL     1     147.609 163.304 187.827  0.00  0.00    +0.094 C 
ATOM     10  C   UNL     1     146.204 163.801 188.225  0.00  0.00    +0.003 C 
ATOM     11  C   UNL     1     146.038 164.577 189.540  0.00  0.00    +0.065 C 
ATOM     12  C   UNL     1     144.601 165.147 189.594  0.00  0.00    -0.008 C 
ATOM     13  C   UNL     1     144.446 166.246 190.595  0.00  0.00    -0.083 C 
ATOM     14  C   UNL     1     145.519 166.812 191.162  0.00  0.00    -0.059 C 
ATOM     15  C   UNL     1     146.934 166.393 190.856  0.00  0.00    +0.080 C 
ATOM     16  O   UNL     1     146.998 165.635 189.622  0.00  0.00    -0.369 OA
ATOM     17  C   UNL     1     147.575 165.607 192.011  0.00  0.00    +0.006 C 
ATOM     18  C   UNL     1     147.711 166.357 193.355  0.00  0.00    +0.090 C 
ATOM     19  C   UNL     1     148.608 167.631 193.327  0.00  0.00    +0.100 C 
ATOM     20  C   UNL     1     149.857 167.458 192.511  0.00  0.00    -0.051 C 
ATOM     21  C   UNL     1     151.046 166.970 192.913  0.00  0.00    -0.052 C 
ATOM     22  C   UNL     1     152.085 166.683 191.936  0.00  0.00    -0.052 C 
ATOM     23  C   UNL     1     151.819 166.026 190.800  0.00  0.00    +0.023 C 
ATOM     24  C   UNL     1     152.860 165.675 189.819  0.00  0.00    +0.332 C 
ATOM     25  O   UNL     1     154.062 165.700 190.008  0.00  0.00    -0.246 OA
ATOM     26  O   UNL     1     152.204 165.305 188.695  0.00  0.00    -0.458 OA
ATOM     27  H   UNL     1     153.788 164.177 188.005  0.00  0.00    +0.074 HD
ATOM     28  H   UNL     1     151.181 164.380 186.415  0.00  0.00    +0.036 HD
ATOM     29  H   UNL     1     150.803 163.370 188.627  0.00  0.00    +0.060 HD
ATOM     30  H   UNL     1     150.846 161.086 186.623  0.00  0.00    +0.032 HD
ATOM     31  H   UNL     1     149.803 162.444 186.334  0.00  0.00    +0.032 HD
ATOM     32  H   UNL     1     149.804 160.771 188.892  0.00  0.00    +0.063 HD
ATOM     33  H   UNL     1     146.356 161.744 189.954  0.00  0.00    +0.059 HD
ATOM     34  H   UNL     1     147.611 160.463 190.048  0.00  0.00    +0.059 HD
ATOM     35  H   UNL     1     148.333 164.127 187.880  0.00  0.00    +0.063 HD
ATOM     36  H   UNL     1     145.858 164.467 187.424  0.00  0.00    +0.032 HD
ATOM     37  H   UNL     1     145.499 162.959 188.204  0.00  0.00    +0.032 HD
ATOM     38  H   UNL     1     146.182 163.903 190.387  0.00  0.00    +0.060 HD
ATOM     39  H   UNL     1     144.314 165.571 188.623  0.00  0.00    +0.033 HD
ATOM     40  H   UNL     1     143.895 164.337 189.816  0.00  0.00    +0.033 HD
ATOM     41  H   UNL     1     143.450 166.610 190.828  0.00  0.00    +0.057 HD
ATOM     42  H   UNL     1     145.390 167.637 191.859  0.00  0.00    +0.059 HD
ATOM     43  H   UNL     1     147.519 167.295 190.651  0.00  0.00    +0.064 HD
ATOM     44  H   UNL     1     146.995 164.695 192.208  0.00  0.00    +0.032 HD
ATOM     45  H   UNL     1     148.551 165.216 191.692  0.00  0.00    +0.032 HD
ATOM     46  H   UNL     1     146.703 166.643 193.680  0.00  0.00    +0.063 HD
ATOM     47  H   UNL     1     148.862 167.936 194.345  0.00  0.00    +0.066 HD
ATOM     48  H   UNL     1     149.723 167.705 191.455  0.00  0.00    +0.060 HD
ATOM     49  H   UNL     1     153.102 166.977 192.182  0.00  0.00    +0.062 HD
ATOM     50  H   UNL     1     150.816 165.692 190.556  0.00  0.00    +0.069 HD
ENDROOT
BRANCH  21  51
ATOM     51  C   UNL     1     151.401 166.592 194.323  0.00  0.00    -0.040 C 
ATOM     52  H   UNL     1     152.072 167.337 194.760  0.00  0.00    +0.028 HD
ATOM     53  H   UNL     1     151.896 165.622 194.399  0.00  0.00    +0.028 HD
ATOM     54  H   UNL     1     150.499 166.538 194.939  0.00  0.00    +0.028 HD
ENDBRANCH  21  51
BRANCH   2  55
ATOM     55  C   UNL     1     152.715 163.046 185.708  0.00  0.00    -0.057 C 
ATOM     56  H   UNL     1     153.542 162.436 186.087  0.00  0.00    +0.023 HD
ATOM     57  H   UNL     1     153.106 163.734 184.964  0.00  0.00    +0.023 HD
ATOM     58  H   UNL     1     152.039 162.388 185.157  0.00  0.00    +0.023 HD
ENDBRANCH   2  55
BRANCH   1  59
ATOM     59  C   UNL     1     153.593 165.980 186.799  0.00  0.00    +0.020 C 
ATOM     60  H   UNL     1     153.326 165.818 185.749  0.00  0.00    +0.036 HD
BRANCH  59  61
ATOM     61  C   UNL     1     152.913 167.311 187.147  0.00  0.00    -0.057 C 
ATOM     62  H   UNL     1     153.650 168.111 187.257  0.00  0.00    +0.023 HD
ATOM     63  H   UNL     1     152.171 167.625 186.416  0.00  0.00    +0.023 HD
ATOM     64  H   UNL     1     152.389 167.220 188.104  0.00  0.00    +0.023 HD
ENDBRANCH  59  61
BRANCH  59  65
ATOM     65  C   UNL     1     155.144 166.121 186.821  0.00  0.00    +0.064 C 
ATOM     66  H   UNL     1     155.388 167.070 187.317  0.00  0.00    +0.060 HD
BRANCH  65  67
ATOM     67  C   UNL     1     155.831 166.162 185.428  0.00  0.00    -0.017 C 
ATOM     68  H   UNL     1     156.486 165.295 185.315  0.00  0.00    +0.032 HD
BRANCH  67  69
ATOM     69  C   UNL     1     154.785 166.109 184.304  0.00  0.00    -0.060 C 
ATOM     70  H   UNL     1     154.466 167.121 184.022  0.00  0.00    +0.023 HD
ATOM     71  H   UNL     1     153.897 165.553 184.623  0.00  0.00    +0.023 HD
ATOM     72  H   UNL     1     155.170 165.640 183.398  0.00  0.00    +0.023 HD
ENDBRANCH  67  69
BRANCH  67  73
ATOM     73  C   UNL     1     156.713 167.418 185.211  0.00  0.00    -0.046 C 
ATOM     74  H   UNL     1     157.281 167.617 186.130  0.00  0.00    +0.027 HD
ATOM     75  H   UNL     1     157.456 167.224 184.428  0.00  0.00    +0.027 HD
BRANCH  73  76
ATOM     76  C   UNL     1     155.899 168.676 184.887  0.00  0.00    -0.026 C 
ATOM     77  H   UNL     1     155.281 168.523 183.996  0.00  0.00    +0.029 HD
ATOM     78  H   UNL     1     155.195 168.883 185.703  0.00  0.00    +0.029 HD
BRANCH  76  83
ATOM     79  C   UNL     1     156.907 171.883 183.342  0.00  0.00    +0.059 C 
ATOM     80  C   UNL     1     158.296 172.024 183.972  0.00  0.00    -0.000 C 
ATOM     81  C   UNL     1     159.047 170.699 183.880  0.00  0.00    +0.063 C 
ATOM     82  C   UNL     1     158.267 169.595 184.609  0.00  0.00    -0.000 C 
ATOM     83  C   UNL     1     156.774 169.919 184.699  0.00  0.00    +0.061 C 
ATOM     84  O   UNL     1     156.361 170.565 183.490  0.00  0.00    -0.373 OA
ATOM     85  H   UNL     1     157.000 172.044 182.262  0.00  0.00    +0.059 HD
ATOM     86  H   UNL     1     158.862 172.828 183.487  0.00  0.00    +0.032 HD
ATOM     87  H   UNL     1     158.224 172.319 185.029  0.00  0.00    +0.032 HD
ATOM     88  H   UNL     1     159.161 170.437 182.820  0.00  0.00    +0.060 HD
ATOM     89  H   UNL     1     158.418 168.656 184.054  0.00  0.00    +0.032 HD
ATOM     90  H   UNL     1     158.669 169.416 185.616  0.00  0.00    +0.032 HD
ATOM     91  H   UNL     1     156.585 170.597 185.544  0.00  0.00    +0.060 HD
BRANCH  79  92
ATOM     92  C   UNL     1     155.922 172.908 183.887  0.00  0.00    -0.039 C 
ATOM     93  H   UNL     1     156.290 173.352 184.817  0.00  0.00    +0.025 HD
ATOM     94  H   UNL     1     155.764 173.704 183.152  0.00  0.00    +0.025 HD
ATOM     95  H   UNL     1     154.942 172.457 184.076  0.00  0.00    +0.025 HD
ENDBRANCH  79  92
BRANCH  81  96
ATOM     96  O   UNL     1     160.345 170.881 184.460  0.00  0.00    -0.380 OA
BRANCH  96  97
ATOM     97  C   UNL     1     161.184 171.730 183.687  0.00  0.00    +0.037 C 
ATOM     98  H   UNL     1     160.696 172.704 183.604  0.00  0.00    +0.052 HD
ATOM     99  H   UNL     1     161.322 171.324 182.681  0.00  0.00    +0.052 HD
ATOM    100  H   UNL     1     162.154 171.872 184.174  0.00  0.00    +0.052 HD
ENDBRANCH  96  97
ENDBRANCH  81  96
ENDBRANCH  76  83
ENDBRANCH  73  76
ENDBRANCH  67  73
ENDBRANCH  65  67
BRANCH  65 101
ATOM    101  O   UNL     1     155.726 165.102 187.622  0.00  0.00    -0.391 OA
ATOM    102  H   UNL     1     156.302 164.565 187.052  0.00  0.00    +0.210 HD
ENDBRANCH  65 101
ENDBRANCH  59  65
ENDBRANCH   1  59
BRANCH  19 103
ATOM    103  O   UNL     1     147.875 168.712 192.743  0.00  0.00    -0.385 OA
ATOM    104  H   UNL     1     148.488 169.192 192.160  0.00  0.00    +0.210 HD
ENDBRANCH  19 103
BRANCH  18 105
ATOM    105  O   UNL     1     148.244 165.405 194.296  0.00  0.00    -0.377 OA
BRANCH 105 106
ATOM    106  C   UNL     1     148.192 165.858 195.644  0.00  0.00    +0.037 C 
ATOM    107  H   UNL     1     148.447 165.040 196.326  0.00  0.00    +0.052 HD
ATOM    108  H   UNL     1     147.205 166.258 195.890  0.00  0.00    +0.052 HD
ATOM    109  H   UNL     1     148.930 166.655 195.768  0.00  0.00    +0.052 HD
ENDBRANCH 105 106
ENDBRANCH  18 105
BRANCH   9 110
ATOM    110  O   UNL     1     147.484 162.869 186.456  0.00  0.00    -0.377 OA
BRANCH 110 111
ATOM    111  C   UNL     1     146.164 162.476 186.094  0.00  0.00    +0.037 C 
ATOM    112  H   UNL     1     146.235 161.602 185.439  0.00  0.00    +0.052 HD
ATOM    113  H   UNL     1     145.663 163.276 185.541  0.00  0.00    +0.052 HD
ATOM    114  H   UNL     1     145.581 162.196 186.972  0.00  0.00    +0.052 HD
ENDBRANCH 110 111
ENDBRANCH   9 110
BRANCH   5 115
ATOM    115  O   UNL     1     148.594 160.172 187.339  0.00  0.00    -0.377 OA
BRANCH 115 116
ATOM    116  C   UNL     1     149.081 158.878 187.665  0.00  0.00    +0.037 C 
ATOM    117  H   UNL     1     150.118 158.978 187.989  0.00  0.00    +0.052 HD
ATOM    118  H   UNL     1     148.505 158.430 188.476  0.00  0.00    +0.052 HD
ATOM    119  H   UNL     1     149.056 158.228 186.784  0.00  0.00    +0.052 HD
ENDBRANCH 115 116
ENDBRANCH   5 115
BRANCH   3 120
ATOM    120  O   UNL     1     152.340 161.949 188.412  0.00  0.00    -0.379 OA
BRANCH 120 121
ATOM    121  C   UNL     1     152.343 161.933 189.833  0.00  0.00    +0.037 C 
ATOM    122  H   UNL     1     153.344 161.638 190.169  0.00  0.00    +0.052 HD
ATOM    123  H   UNL     1     151.621 161.208 190.221  0.00  0.00    +0.052 HD
ATOM    124  H   UNL     1     152.127 162.930 190.232  0.00  0.00    +0.052 HD
ENDBRANCH 120 121
ENDBRANCH   3 120
TORSDOF 23
ENDMDL
MODEL 8
REMARK VINA RESULT:      -5.6     16.137     21.787
REMARK  Name = Lobophorolide_conf1
REMARK  23 active torsions:
REMARK  status: ('A' for Active; 'I' for Inactive)
REMARK    1  A    between atoms: C_1  and  C_2
REMARK    2  A    between atoms: C_4  and  O_53
REMARK    3  A    between atoms: C_6  and  C_8
REMARK    4  A    between atoms: C_8  and  C_9
REMARK    5  A    between atoms: C_9  and  C_10
REMARK    6  A    between atoms: C_10  and  C_11
REMARK    7  A    between atoms: C_10  and  C_12
REMARK    8  A    between atoms: C_12  and  C_13
REMARK    9  A    between atoms: C_12  and  O_52
REMARK   10  A    between atoms: C_13  and  C_14
REMARK   11  A    between atoms: C_13  and  C_15
REMARK   12  A    between atoms: C_16  and  C_51
REMARK   13  A    between atoms: C_17  and  O_49
REMARK   14  A    between atoms: C_19  and  O_47
REMARK   15  A    between atoms: C_23  and  O_45
REMARK   16  A    between atoms: C_32  and  O_43
REMARK   17  A    between atoms: C_33  and  O_42
REMARK   18  A    between atoms: C_35  and  C_41
REMARK   19  A    between atoms: O_43  and  C_44
REMARK   20  A    between atoms: O_45  and  C_46
REMARK   21  A    between atoms: O_47  and  C_48
REMARK   22  A    between atoms: O_49  and  C_50
REMARK   23  A    between atoms: O_53  and  C_54
REMARK                            x       y       z     vdW  Elec       q    Type
REMARK                         _______ _______ _______ _____ _____    ______ ____
ROOT
ATOM      1  C   UNL     1     155.337 164.405 187.088  0.00  0.00    +0.113 C 
ATOM      2  C   UNL     1     155.200 162.882 186.769  0.00  0.00    +0.020 C 
ATOM      3  C   UNL     1     155.019 162.037 188.087  0.00  0.00    +0.067 C 
ATOM      4  C   UNL     1     154.789 160.546 187.770  0.00  0.00    +0.003 C 
ATOM      5  C   UNL     1     154.148 159.735 188.904  0.00  0.00    +0.094 C 
ATOM      6  C   UNL     1     152.662 159.987 189.190  0.00  0.00    +0.145 C 
ATOM      7  C   UNL     1     152.180 159.398 190.510  0.00  0.00    +0.083 C 
ATOM      8  O   UNL     1     152.434 160.798 190.363  0.00  0.00    -0.363 OA
ATOM      9  C   UNL     1     151.692 160.310 188.044  0.00  0.00    +0.094 C 
ATOM     10  C   UNL     1     150.201 160.014 188.304  0.00  0.00    +0.003 C 
ATOM     11  C   UNL     1     149.425 160.915 189.276  0.00  0.00    +0.065 C 
ATOM     12  C   UNL     1     147.924 160.551 189.189  0.00  0.00    -0.008 C 
ATOM     13  C   UNL     1     147.033 161.609 189.754  0.00  0.00    -0.083 C 
ATOM     14  C   UNL     1     147.513 162.824 190.046  0.00  0.00    -0.059 C 
ATOM     15  C   UNL     1     148.955 163.214 189.846  0.00  0.00    +0.080 C 
ATOM     16  O   UNL     1     149.624 162.294 188.948  0.00  0.00    -0.369 OA
ATOM     17  C   UNL     1     149.720 163.331 191.174  0.00  0.00    +0.006 C 
ATOM     18  C   UNL     1     149.202 164.393 192.169  0.00  0.00    +0.090 C 
ATOM     19  C   UNL     1     149.249 165.867 191.666  0.00  0.00    +0.100 C 
ATOM     20  C   UNL     1     150.504 166.195 190.910  0.00  0.00    -0.051 C 
ATOM     21  C   UNL     1     151.683 166.620 191.406  0.00  0.00    -0.052 C 
ATOM     22  C   UNL     1     152.854 166.692 190.546  0.00  0.00    -0.052 C 
ATOM     23  C   UNL     1     153.180 165.691 189.719  0.00  0.00    +0.023 C 
ATOM     24  C   UNL     1     154.388 165.714 188.878  0.00  0.00    +0.332 C 
ATOM     25  O   UNL     1     155.332 166.473 188.996  0.00  0.00    -0.246 OA
ATOM     26  O   UNL     1     154.237 164.714 187.979  0.00  0.00    -0.458 OA
ATOM     27  H   UNL     1     156.267 164.541 187.655  0.00  0.00    +0.074 HD
ATOM     28  H   UNL     1     154.275 162.728 186.202  0.00  0.00    +0.036 HD
ATOM     29  H   UNL     1     154.151 162.420 188.640  0.00  0.00    +0.060 HD
ATOM     30  H   UNL     1     155.761 160.086 187.548  0.00  0.00    +0.032 HD
ATOM     31  H   UNL     1     154.210 160.442 186.851  0.00  0.00    +0.032 HD
ATOM     32  H   UNL     1     154.702 159.948 189.827  0.00  0.00    +0.063 HD
ATOM     33  H   UNL     1     151.162 159.058 190.629  0.00  0.00    +0.059 HD
ATOM     34  H   UNL     1     152.877 158.821 191.107  0.00  0.00    +0.059 HD
ATOM     35  H   UNL     1     151.830 161.366 187.780  0.00  0.00    +0.063 HD
ATOM     36  H   UNL     1     149.685 160.081 187.337  0.00  0.00    +0.032 HD
ATOM     37  H   UNL     1     150.084 158.963 188.604  0.00  0.00    +0.032 HD
ATOM     38  H   UNL     1     149.771 160.741 190.297  0.00  0.00    +0.060 HD
ATOM     39  H   UNL     1     147.616 160.415 188.144  0.00  0.00    +0.033 HD
ATOM     40  H   UNL     1     147.749 159.599 189.705  0.00  0.00    +0.033 HD
ATOM     41  H   UNL     1     145.977 161.392 189.888  0.00  0.00    +0.057 HD
ATOM     42  H   UNL     1     146.842 163.594 190.420  0.00  0.00    +0.059 HD
ATOM     43  H   UNL     1     148.978 164.173 189.318  0.00  0.00    +0.064 HD
ATOM     44  H   UNL     1     149.708 162.365 191.697  0.00  0.00    +0.032 HD
ATOM     45  H   UNL     1     150.788 163.489 190.970  0.00  0.00    +0.032 HD
ATOM     46  H   UNL     1     148.164 164.139 192.417  0.00  0.00    +0.063 HD
ATOM     47  H   UNL     1     149.124 166.556 192.505  0.00  0.00    +0.066 HD
ATOM     48  H   UNL     1     150.433 165.984 189.840  0.00  0.00    +0.060 HD
ATOM     49  H   UNL     1     153.489 167.569 190.634  0.00  0.00    +0.062 HD
ATOM     50  H   UNL     1     152.577 164.792 189.647  0.00  0.00    +0.069 HD
ENDROOT
BRANCH  21  51
ATOM     51  C   UNL     1     151.948 166.965 192.845  0.00  0.00    -0.040 C 
ATOM     52  H   UNL     1     152.861 166.472 193.192  0.00  0.00    +0.028 HD
ATOM     53  H   UNL     1     151.141 166.669 193.516  0.00  0.00    +0.028 HD
ATOM     54  H   UNL     1     152.077 168.045 192.958  0.00  0.00    +0.028 HD
ENDBRANCH  21  51
BRANCH   2  55
ATOM     55  C   UNL     1     156.379 162.364 185.936  0.00  0.00    -0.057 C 
ATOM     56  H   UNL     1     156.162 161.382 185.501  0.00  0.00    +0.023 HD
ATOM     57  H   UNL     1     157.280 162.283 186.538  0.00  0.00    +0.023 HD
ATOM     58  H   UNL     1     156.644 163.040 185.121  0.00  0.00    +0.023 HD
ENDBRANCH   2  55
BRANCH   1  59
ATOM     59  C   UNL     1     155.322 165.438 185.910  0.00  0.00    +0.020 C 
ATOM     60  H   UNL     1     155.489 164.852 185.000  0.00  0.00    +0.036 HD
BRANCH  59  61
ATOM     61  C   UNL     1     153.932 166.053 185.698  0.00  0.00    -0.057 C 
ATOM     62  H   UNL     1     153.814 166.409 184.671  0.00  0.00    +0.023 HD
ATOM     63  H   UNL     1     153.115 165.370 185.922  0.00  0.00    +0.023 HD
ATOM     64  H   UNL     1     153.805 166.918 186.358  0.00  0.00    +0.023 HD
ENDBRANCH  59  61
BRANCH  59  65
ATOM     65  C   UNL     1     156.425 166.537 185.910  0.00  0.00    +0.064 C 
ATOM     66  H   UNL     1     155.936 167.506 186.077  0.00  0.00    +0.060 HD
BRANCH  65  67
ATOM     67  C   UNL     1     157.233 166.673 184.590  0.00  0.00    -0.017 C 
ATOM     68  H   UNL     1     158.296 166.781 184.818  0.00  0.00    +0.032 HD
BRANCH  67  69
ATOM     69  C   UNL     1     157.064 165.420 183.718  0.00  0.00    -0.060 C 
ATOM     70  H   UNL     1     157.153 165.671 182.654  0.00  0.00    +0.023 HD
ATOM     71  H   UNL     1     156.080 164.964 183.876  0.00  0.00    +0.023 HD
ATOM     72  H   UNL     1     157.823 164.664 183.924  0.00  0.00    +0.023 HD
ENDBRANCH  67  69
BRANCH  67  73
ATOM     73  C   UNL     1     156.831 167.910 183.745  0.00  0.00    -0.046 C 
ATOM     74  H   UNL     1     157.727 168.310 183.252  0.00  0.00    +0.027 HD
ATOM     75  H   UNL     1     156.147 167.610 182.943  0.00  0.00    +0.027 HD
BRANCH  73  76
ATOM     76  C   UNL     1     156.221 169.038 184.585  0.00  0.00    -0.026 C 
ATOM     77  H   UNL     1     155.164 169.182 184.336  0.00  0.00    +0.029 HD
ATOM     78  H   UNL     1     156.239 168.762 185.647  0.00  0.00    +0.029 HD
BRANCH  76  83
ATOM     79  C   UNL     1     156.761 172.478 183.335  0.00  0.00    +0.059 C 
ATOM     80  C   UNL     1     158.218 172.663 183.772  0.00  0.00    -0.000 C 
ATOM     81  C   UNL     1     159.034 171.427 183.405  0.00  0.00    +0.063 C 
ATOM     82  C   UNL     1     158.451 170.183 184.091  0.00  0.00    -0.000 C 
ATOM     83  C   UNL     1     156.970 170.364 184.435  0.00  0.00    +0.061 C 
ATOM     84  O   UNL     1     156.335 171.110 183.390  0.00  0.00    -0.373 OA
ATOM     85  H   UNL     1     156.677 172.772 182.282  0.00  0.00    +0.059 HD
ATOM     86  H   UNL     1     158.648 173.564 183.319  0.00  0.00    +0.032 HD
ATOM     87  H   UNL     1     158.289 172.825 184.858  0.00  0.00    +0.032 HD
ATOM     88  H   UNL     1     159.002 171.301 182.314  0.00  0.00    +0.060 HD
ATOM     89  H   UNL     1     158.578 169.331 183.404  0.00  0.00    +0.032 HD
ATOM     90  H   UNL     1     159.013 169.923 184.998  0.00  0.00    +0.032 HD
ATOM     91  H   UNL     1     156.868 170.921 185.377  0.00  0.00    +0.060 HD
BRANCH  79  92
ATOM     92  C   UNL     1     155.805 173.344 184.143  0.00  0.00    -0.039 C 
ATOM     93  H   UNL     1     154.891 172.796 184.393  0.00  0.00    +0.025 HD
ATOM     94  H   UNL     1     156.288 173.670 185.070  0.00  0.00    +0.025 HD
ATOM     95  H   UNL     1     155.532 174.253 183.596  0.00  0.00    +0.025 HD
ENDBRANCH  79  92
BRANCH  81  96
ATOM     96  O   UNL     1     160.390 171.651 183.812  0.00  0.00    -0.380 OA
BRANCH  96  97
ATOM     97  C   UNL     1     160.930 172.863 183.300  0.00  0.00    +0.037 C 
ATOM     98  H   UNL     1     162.018 172.811 183.385  0.00  0.00    +0.052 HD
ATOM     99  H   UNL     1     160.577 173.719 183.882  0.00  0.00    +0.052 HD
ATOM    100  H   UNL     1     160.673 172.992 182.244  0.00  0.00    +0.052 HD
ENDBRANCH  96  97
ENDBRANCH  81  96
ENDBRANCH  76  83
ENDBRANCH  73  76
ENDBRANCH  67  73
ENDBRANCH  65  67
BRANCH  65 101
ATOM    101  O   UNL     1     157.311 166.354 187.007  0.00  0.00    -0.391 OA
ATOM    102  H   UNL     1     156.882 165.757 187.642  0.00  0.00    +0.210 HD
ENDBRANCH  65 101
ENDBRANCH  59  65
ENDBRANCH   1  59
BRANCH  19 103
ATOM    103  O   UNL     1     148.154 166.098 190.776  0.00  0.00    -0.385 OA
ATOM    104  H   UNL     1     148.276 166.984 190.394  0.00  0.00    +0.210 HD
ENDBRANCH  19 103
BRANCH  18 105
ATOM    105  O   UNL     1     150.004 164.256 193.359  0.00  0.00    -0.377 OA
BRANCH 105 106
ATOM    106  C   UNL     1     149.604 165.128 194.410  0.00  0.00    +0.037 C 
ATOM    107  H   UNL     1     150.477 165.440 194.992  0.00  0.00    +0.052 HD
ATOM    108  H   UNL     1     148.869 164.650 195.062  0.00  0.00    +0.052 HD
ATOM    109  H   UNL     1     149.148 166.017 193.965  0.00  0.00    +0.052 HD
ENDBRANCH 105 106
ENDBRANCH  18 105
BRANCH   9 110
ATOM    110  O   UNL     1     152.053 159.487 186.914  0.00  0.00    -0.377 OA
BRANCH 110 111
ATOM    111  C   UNL     1     151.252 158.318 186.774  0.00  0.00    +0.037 C 
ATOM    112  H   UNL     1     151.677 157.535 187.411  0.00  0.00    +0.052 HD
ATOM    113  H   UNL     1     151.269 157.961 185.741  0.00  0.00    +0.052 HD
ATOM    114  H   UNL     1     150.226 158.500 187.099  0.00  0.00    +0.052 HD
ENDBRANCH 110 111
ENDBRANCH   9 110
BRANCH   5 115
ATOM    115  O   UNL     1     154.290 158.327 188.628  0.00  0.00    -0.377 OA
BRANCH 115 116
ATOM    116  C   UNL     1     155.343 157.715 189.358  0.00  0.00    +0.037 C 
ATOM    117  H   UNL     1     156.230 158.344 189.263  0.00  0.00    +0.052 HD
ATOM    118  H   UNL     1     155.092 157.626 190.416  0.00  0.00    +0.052 HD
ATOM    119  H   UNL     1     155.573 156.729 188.942  0.00  0.00    +0.052 HD
ENDBRANCH 115 116
ENDBRANCH   5 115
BRANCH   3 120
ATOM    120  O   UNL     1     156.224 162.142 188.866  0.00  0.00    -0.379 OA
BRANCH 120 121
ATOM    121  C   UNL     1     155.996 162.507 190.220  0.00  0.00    +0.037 C 
ATOM    122  H   UNL     1     156.663 163.341 190.465  0.00  0.00    +0.052 HD
ATOM    123  H   UNL     1     156.220 161.675 190.896  0.00  0.00    +0.052 HD
ATOM    124  H   UNL     1     154.962 162.840 190.363  0.00  0.00    +0.052 HD
ENDBRANCH 120 121
ENDBRANCH   3 120
TORSDOF 23
ENDMDL
MODEL 9
REMARK VINA RESULT:      -5.6      1.537      2.093
REMARK  Name = Lobophorolide_conf1
REMARK  23 active torsions:
REMARK  status: ('A' for Active; 'I' for Inactive)
REMARK    1  A    between atoms: C_1  and  C_2
REMARK    2  A    between atoms: C_4  and  O_53
REMARK    3  A    between atoms: C_6  and  C_8
REMARK    4  A    between atoms: C_8  and  C_9
REMARK    5  A    between atoms: C_9  and  C_10
REMARK    6  A    between atoms: C_10  and  C_11
REMARK    7  A    between atoms: C_10  and  C_12
REMARK    8  A    between atoms: C_12  and  C_13
REMARK    9  A    between atoms: C_12  and  O_52
REMARK   10  A    between atoms: C_13  and  C_14
REMARK   11  A    between atoms: C_13  and  C_15
REMARK   12  A    between atoms: C_16  and  C_51
REMARK   13  A    between atoms: C_17  and  O_49
REMARK   14  A    between atoms: C_19  and  O_47
REMARK   15  A    between atoms: C_23  and  O_45
REMARK   16  A    between atoms: C_32  and  O_43
REMARK   17  A    between atoms: C_33  and  O_42
REMARK   18  A    between atoms: C_35  and  C_41
REMARK   19  A    between atoms: O_43  and  C_44
REMARK   20  A    between atoms: O_45  and  C_46
REMARK   21  A    between atoms: O_47  and  C_48
REMARK   22  A    between atoms: O_49  and  C_50
REMARK   23  A    between atoms: O_53  and  C_54
REMARK                            x       y       z     vdW  Elec       q    Type
REMARK                         _______ _______ _______ _____ _____    ______ ____
ROOT
ATOM      1  C   UNL     1     138.378 177.172 194.997  0.00  0.00    +0.113 C 
ATOM      2  C   UNL     1     138.666 178.638 195.451  0.00  0.00    +0.020 C 
ATOM      3  C   UNL     1     137.473 179.217 196.303  0.00  0.00    +0.067 C 
ATOM      4  C   UNL     1     137.794 180.629 196.832  0.00  0.00    +0.003 C 
ATOM      5  C   UNL     1     136.941 181.083 198.024  0.00  0.00    +0.094 C 
ATOM      6  C   UNL     1     137.225 180.422 199.378  0.00  0.00    +0.145 C 
ATOM      7  C   UNL     1     136.149 180.679 200.427  0.00  0.00    +0.083 C 
ATOM      8  O   UNL     1     136.247 179.425 199.746  0.00  0.00    -0.363 OA
ATOM      9  C   UNL     1     138.656 180.026 199.766  0.00  0.00    +0.094 C 
ATOM     10  C   UNL     1     138.946 179.892 201.275  0.00  0.00    +0.003 C 
ATOM     11  C   UNL     1     138.358 178.696 202.039  0.00  0.00    +0.065 C 
ATOM     12  C   UNL     1     138.972 178.673 203.460  0.00  0.00    -0.008 C 
ATOM     13  C   UNL     1     138.810 177.354 204.144  0.00  0.00    -0.083 C 
ATOM     14  C   UNL     1     138.411 176.274 203.462  0.00  0.00    -0.059 C 
ATOM     15  C   UNL     1     138.088 176.297 201.990  0.00  0.00    +0.080 C 
ATOM     16  O   UNL     1     138.645 177.473 201.352  0.00  0.00    -0.369 OA
ATOM     17  C   UNL     1     136.577 176.195 201.720  0.00  0.00    +0.006 C 
ATOM     18  C   UNL     1     135.881 174.908 202.215  0.00  0.00    +0.090 C 
ATOM     19  C   UNL     1     136.389 173.580 201.577  0.00  0.00    +0.100 C 
ATOM     20  C   UNL     1     136.649 173.693 200.103  0.00  0.00    -0.051 C 
ATOM     21  C   UNL     1     135.775 173.517 199.092  0.00  0.00    -0.052 C 
ATOM     22  C   UNL     1     136.151 173.868 197.732  0.00  0.00    -0.052 C 
ATOM     23  C   UNL     1     136.764 175.024 197.448  0.00  0.00    +0.023 C 
ATOM     24  C   UNL     1     137.108 175.428 196.075  0.00  0.00    +0.332 C 
ATOM     25  O   UNL     1     136.683 174.926 195.051  0.00  0.00    -0.246 OA
ATOM     26  O   UNL     1     137.961 176.471 196.195  0.00  0.00    -0.458 OA
ATOM     27  H   UNL     1     137.517 177.200 194.317  0.00  0.00    +0.074 HD
ATOM     28  H   UNL     1     139.524 178.628 196.133  0.00  0.00    +0.036 HD
ATOM     29  H   UNL     1     137.289 178.552 197.157  0.00  0.00    +0.060 HD
ATOM     30  H   UNL     1     137.629 181.349 196.019  0.00  0.00    +0.032 HD
ATOM     31  H   UNL     1     138.856 180.709 197.069  0.00  0.00    +0.032 HD
ATOM     32  H   UNL     1     135.888 180.892 197.778  0.00  0.00    +0.063 HD
ATOM     33  H   UNL     1     136.396 180.728 201.476  0.00  0.00    +0.059 HD
ATOM     34  H   UNL     1     135.317 181.326 200.170  0.00  0.00    +0.059 HD
ATOM     35  H   UNL     1     138.893 179.087 199.249  0.00  0.00    +0.063 HD
ATOM     36  H   UNL     1     140.036 179.831 201.391  0.00  0.00    +0.032 HD
ATOM     37  H   UNL     1     138.669 180.825 201.785  0.00  0.00    +0.032 HD
ATOM     38  H   UNL     1     137.276 178.808 202.125  0.00  0.00    +0.060 HD
ATOM     39  H   UNL     1     140.051 178.871 203.421  0.00  0.00    +0.033 HD
ATOM     40  H   UNL     1     138.518 179.467 204.065  0.00  0.00    +0.033 HD
ATOM     41  H   UNL     1     139.062 177.274 205.197  0.00  0.00    +0.057 HD
ATOM     42  H   UNL     1     138.336 175.314 203.967  0.00  0.00    +0.059 HD
ATOM     43  H   UNL     1     138.607 175.459 201.514  0.00  0.00    +0.064 HD
ATOM     44  H   UNL     1     136.058 177.043 202.186  0.00  0.00    +0.032 HD
ATOM     45  H   UNL     1     136.385 176.345 200.649  0.00  0.00    +0.032 HD
ATOM     46  H   UNL     1     136.018 174.852 203.302  0.00  0.00    +0.063 HD
ATOM     47  H   UNL     1     135.680 172.772 201.774  0.00  0.00    +0.066 HD
ATOM     48  H   UNL     1     137.662 174.025 199.865  0.00  0.00    +0.060 HD
ATOM     49  H   UNL     1     135.873 173.178 196.939  0.00  0.00    +0.062 HD
ATOM     50  H   UNL     1     137.016 175.740 198.223  0.00  0.00    +0.069 HD
ENDROOT
BRANCH  21  51
ATOM     51  C   UNL     1     134.352 173.055 199.241  0.00  0.00    -0.040 C 
ATOM     52  H   UNL     1     134.323 172.033 199.629  0.00  0.00    +0.028 HD
ATOM     53  H   UNL     1     133.794 173.066 198.304  0.00  0.00    +0.028 HD
ATOM     54  H   UNL     1     133.815 173.703 199.940  0.00  0.00    +0.028 HD
ENDBRANCH  21  51
BRANCH   2  55
ATOM     55  C   UNL     1     138.992 179.551 194.263  0.00  0.00    -0.057 C 
ATOM     56  H   UNL     1     139.882 180.161 194.456  0.00  0.00    +0.023 HD
ATOM     57  H   UNL     1     138.162 180.215 194.037  0.00  0.00    +0.023 HD
ATOM     58  H   UNL     1     139.164 178.992 193.341  0.00  0.00    +0.023 HD
ENDBRANCH   2  55
BRANCH   1  59
ATOM     59  C   UNL     1     139.519 176.344 194.314  0.00  0.00    +0.020 C 
ATOM     60  H   UNL     1     139.225 175.294 194.419  0.00  0.00    +0.036 HD
BRANCH  59  61
ATOM     61  C   UNL     1     139.563 176.561 192.796  0.00  0.00    -0.057 C 
ATOM     62  H   UNL     1     140.498 177.042 192.496  0.00  0.00    +0.023 HD
ATOM     63  H   UNL     1     139.447 175.645 192.221  0.00  0.00    +0.023 HD
ATOM     64  H   UNL     1     138.746 177.225 192.493  0.00  0.00    +0.023 HD
ENDBRANCH  59  61
BRANCH  59  65
ATOM     65  C   UNL     1     140.944 176.443 194.935  0.00  0.00    +0.064 C 
ATOM     66  H   UNL     1     141.390 177.391 194.604  0.00  0.00    +0.060 HD
BRANCH  65  67
ATOM     67  C   UNL     1     141.934 175.320 194.520  0.00  0.00    -0.017 C 
ATOM     68  H   UNL     1     142.618 175.109 195.345  0.00  0.00    +0.032 HD
BRANCH  67  69
ATOM     69  C   UNL     1     141.178 174.024 194.191  0.00  0.00    -0.060 C 
ATOM     70  H   UNL     1     141.344 173.269 194.969  0.00  0.00    +0.023 HD
ATOM     71  H   UNL     1     141.517 173.606 193.237  0.00  0.00    +0.023 HD
ATOM     72  H   UNL     1     140.099 174.176 194.129  0.00  0.00    +0.023 HD
ENDBRANCH  67  69
BRANCH  67  73
ATOM     73  C   UNL     1     142.813 175.694 193.299  0.00  0.00    -0.046 C 
ATOM     74  H   UNL     1     142.160 175.932 192.449  0.00  0.00    +0.027 HD
ATOM     75  H   UNL     1     143.384 176.606 193.512  0.00  0.00    +0.027 HD
BRANCH  73  76
ATOM     76  C   UNL     1     143.748 174.561 192.862  0.00  0.00    -0.026 C 
ATOM     77  H   UNL     1     144.772 174.744 193.204  0.00  0.00    +0.029 HD
ATOM     78  H   UNL     1     143.442 173.621 193.340  0.00  0.00    +0.029 HD
BRANCH  76  83
ATOM     79  C   UNL     1     142.280 173.605 189.603  0.00  0.00    +0.059 C 
ATOM     80  C   UNL     1     143.562 173.584 188.763  0.00  0.00    -0.000 C 
ATOM     81  C   UNL     1     144.665 172.842 189.512  0.00  0.00    +0.063 C 
ATOM     82  C   UNL     1     144.948 173.529 190.856  0.00  0.00    -0.000 C 
ATOM     83  C   UNL     1     143.744 174.336 191.347  0.00  0.00    +0.061 C 
ATOM     84  O   UNL     1     142.542 173.634 191.013  0.00  0.00    -0.373 OA
ATOM     85  H   UNL     1     141.734 172.672 189.423  0.00  0.00    +0.059 HD
ATOM     86  H   UNL     1     143.376 173.124 187.785  0.00  0.00    +0.032 HD
ATOM     87  H   UNL     1     143.908 174.604 188.541  0.00  0.00    +0.032 HD
ATOM     88  H   UNL     1     144.333 171.809 189.684  0.00  0.00    +0.060 HD
ATOM     89  H   UNL     1     145.202 172.744 191.586  0.00  0.00    +0.032 HD
ATOM     90  H   UNL     1     145.831 174.179 190.797  0.00  0.00    +0.032 HD
ATOM     91  H   UNL     1     143.725 175.320 190.859  0.00  0.00    +0.060 HD
BRANCH  79  92
ATOM     92  C   UNL     1     141.368 174.764 189.229  0.00  0.00    -0.039 C 
ATOM     93  H   UNL     1     140.828 174.558 188.299  0.00  0.00    +0.025 HD
ATOM     94  H   UNL     1     140.641 174.942 190.028  0.00  0.00    +0.025 HD
ATOM     95  H   UNL     1     141.934 175.694 189.108  0.00  0.00    +0.025 HD
ENDBRANCH  79  92
BRANCH  81  96
ATOM     96  O   UNL     1     145.834 172.827 188.684  0.00  0.00    -0.380 OA
BRANCH  96  97
ATOM     97  C   UNL     1     145.537 172.965 187.300  0.00  0.00    +0.037 C 
ATOM     98  H   UNL     1     146.071 173.841 186.925  0.00  0.00    +0.052 HD
ATOM     99  H   UNL     1     144.464 173.121 187.150  0.00  0.00    +0.052 HD
ATOM    100  H   UNL     1     145.875 172.089 186.738  0.00  0.00    +0.052 HD
ENDBRANCH  96  97
ENDBRANCH  81  96
ENDBRANCH  76  83
ENDBRANCH  73  76
ENDBRANCH  67  73
ENDBRANCH  65  67
BRANCH  65 101
ATOM    101  O   UNL     1     140.865 176.525 196.352  0.00  0.00    -0.391 OA
ATOM    102  H   UNL     1     139.926 176.555 196.599  0.00  0.00    +0.210 HD
ENDBRANCH  65 101
ENDBRANCH  59  65
ENDBRANCH   1  59
BRANCH  19 103
ATOM    103  O   UNL     1     137.625 173.204 202.190  0.00  0.00    -0.385 OA
ATOM    104  H   UNL     1     137.409 172.609 202.929  0.00  0.00    +0.210 HD
ENDBRANCH  19 103
BRANCH  18 105
ATOM    105  O   UNL     1     134.477 175.078 201.938  0.00  0.00    -0.377 OA
BRANCH 105 106
ATOM    106  C   UNL     1     134.180 176.296 201.265  0.00  0.00    +0.037 C 
ATOM    107  H   UNL     1     134.580 177.145 201.829  0.00  0.00    +0.052 HD
ATOM    108  H   UNL     1     133.104 176.416 201.119  0.00  0.00    +0.052 HD
ATOM    109  H   UNL     1     134.664 176.274 200.284  0.00  0.00    +0.052 HD
ENDBRANCH 105 106
ENDBRANCH  18 105
BRANCH   9 110
ATOM    110  O   UNL     1     139.545 181.063 199.298  0.00  0.00    -0.377 OA
BRANCH 110 111
ATOM    111  C   UNL     1     139.955 181.972 200.315  0.00  0.00    +0.037 C 
ATOM    112  H   UNL     1     140.904 182.423 200.008  0.00  0.00    +0.052 HD
ATOM    113  H   UNL     1     140.120 181.445 201.259  0.00  0.00    +0.052 HD
ATOM    114  H   UNL     1     139.226 182.772 200.447  0.00  0.00    +0.052 HD
ENDBRANCH 110 111
ENDBRANCH   9 110
BRANCH   5 115
ATOM    115  O   UNL     1     137.092 182.505 198.209  0.00  0.00    -0.377 OA
BRANCH 115 116
ATOM    116  C   UNL     1     136.042 183.262 197.624  0.00  0.00    +0.037 C 
ATOM    117  H   UNL     1     135.094 182.870 197.996  0.00  0.00    +0.052 HD
ATOM    118  H   UNL     1     136.114 184.316 197.896  0.00  0.00    +0.052 HD
ATOM    119  H   UNL     1     136.056 183.154 196.534  0.00  0.00    +0.052 HD
ENDBRANCH 115 116
ENDBRANCH   5 115
BRANCH   3 120
ATOM    120  O   UNL     1     136.313 179.316 195.457  0.00  0.00    -0.379 OA
BRANCH 120 121
ATOM    121  C   UNL     1     135.167 178.663 195.984  0.00  0.00    +0.037 C 
ATOM    122  H   UNL     1     134.330 179.370 195.958  0.00  0.00    +0.052 HD
ATOM    123  H   UNL     1     135.329 178.359 197.024  0.00  0.00    +0.052 HD
ATOM    124  H   UNL     1     134.901 177.793 195.374  0.00  0.00    +0.052 HD
ENDBRANCH 120 121
ENDBRANCH   3 120
TORSDOF 23
ENDMDL
MODEL 10
REMARK VINA RESULT:      -5.5      2.556      3.523
REMARK  Name = Lobophorolide_conf1
REMARK  23 active torsions:
REMARK  status: ('A' for Active; 'I' for Inactive)
REMARK    1  A    between atoms: C_1  and  C_2
REMARK    2  A    between atoms: C_4  and  O_53
REMARK    3  A    between atoms: C_6  and  C_8
REMARK    4  A    between atoms: C_8  and  C_9
REMARK    5  A    between atoms: C_9  and  C_10
REMARK    6  A    between atoms: C_10  and  C_11
REMARK    7  A    between atoms: C_10  and  C_12
REMARK    8  A    between atoms: C_12  and  C_13
REMARK    9  A    between atoms: C_12  and  O_52
REMARK   10  A    between atoms: C_13  and  C_14
REMARK   11  A    between atoms: C_13  and  C_15
REMARK   12  A    between atoms: C_16  and  C_51
REMARK   13  A    between atoms: C_17  and  O_49
REMARK   14  A    between atoms: C_19  and  O_47
REMARK   15  A    between atoms: C_23  and  O_45
REMARK   16  A    between atoms: C_32  and  O_43
REMARK   17  A    between atoms: C_33  and  O_42
REMARK   18  A    between atoms: C_35  and  C_41
REMARK   19  A    between atoms: O_43  and  C_44
REMARK   20  A    between atoms: O_45  and  C_46
REMARK   21  A    between atoms: O_47  and  C_48
REMARK   22  A    between atoms: O_49  and  C_50
REMARK   23  A    between atoms: O_53  and  C_54
REMARK                            x       y       z     vdW  Elec       q    Type
REMARK                         _______ _______ _______ _____ _____    ______ ____
ROOT
ATOM      1  C   UNL     1     139.302 177.110 195.278  0.00  0.00    +0.113 C 
ATOM      2  C   UNL     1     139.617 178.593 195.657  0.00  0.00    +0.020 C 
ATOM      3  C   UNL     1     138.383 179.276 196.361  0.00  0.00    +0.067 C 
ATOM      4  C   UNL     1     138.722 180.708 196.820  0.00  0.00    +0.003 C 
ATOM      5  C   UNL     1     137.792 181.278 197.900  0.00  0.00    +0.094 C 
ATOM      6  C   UNL     1     137.932 180.703 199.316  0.00  0.00    +0.145 C 
ATOM      7  C   UNL     1     136.784 181.075 200.247  0.00  0.00    +0.083 C 
ATOM      8  O   UNL     1     136.882 179.773 199.662  0.00  0.00    -0.363 OA
ATOM      9  C   UNL     1     139.306 180.280 199.852  0.00  0.00    +0.094 C 
ATOM     10  C   UNL     1     139.461 180.242 201.386  0.00  0.00    +0.003 C 
ATOM     11  C   UNL     1     138.758 179.126 202.174  0.00  0.00    +0.065 C 
ATOM     12  C   UNL     1     139.248 179.180 203.641  0.00  0.00    -0.008 C 
ATOM     13  C   UNL     1     138.970 177.920 204.395  0.00  0.00    -0.083 C 
ATOM     14  C   UNL     1     138.582 176.810 203.755  0.00  0.00    -0.059 C 
ATOM     15  C   UNL     1     138.385 176.742 202.263  0.00  0.00    +0.080 C 
ATOM     16  O   UNL     1     139.046 177.848 201.598  0.00  0.00    -0.369 OA
ATOM     17  C   UNL     1     136.900 176.680 201.869  0.00  0.00    +0.006 C 
ATOM     18  C   UNL     1     136.107 175.459 202.386  0.00  0.00    +0.090 C 
ATOM     19  C   UNL     1     136.607 174.071 201.886  0.00  0.00    +0.100 C 
ATOM     20  C   UNL     1     136.995 174.069 200.435  0.00  0.00    -0.051 C 
ATOM     21  C   UNL     1     136.202 173.857 199.367  0.00  0.00    -0.052 C 
ATOM     22  C   UNL     1     136.707 174.096 198.024  0.00  0.00    -0.052 C 
ATOM     23  C   UNL     1     137.393 175.205 197.718  0.00  0.00    +0.023 C 
ATOM     24  C   UNL     1     137.869 175.497 196.356  0.00  0.00    +0.332 C 
ATOM     25  O   UNL     1     137.510 174.941 195.334  0.00  0.00    -0.246 OA
ATOM     26  O   UNL     1     138.755 176.512 196.480  0.00  0.00    -0.458 OA
ATOM     27  H   UNL     1     138.504 177.124 194.526  0.00  0.00    +0.074 HD
ATOM     28  H   UNL     1     140.413 178.597 196.410  0.00  0.00    +0.036 HD
ATOM     29  H   UNL     1     138.098 178.680 197.239  0.00  0.00    +0.060 HD
ATOM     30  H   UNL     1     138.659 181.374 195.949  0.00  0.00    +0.032 HD
ATOM     31  H   UNL     1     139.762 180.763 197.143  0.00  0.00    +0.032 HD
ATOM     32  H   UNL     1     136.756 181.111 197.577  0.00  0.00    +0.063 HD
ATOM     33  H   UNL     1     136.943 181.188 201.308  0.00  0.00    +0.059 HD
ATOM     34  H   UNL     1     136.006 181.734 199.876  0.00  0.00    +0.059 HD
ATOM     35  H   UNL     1     139.543 179.299 199.421  0.00  0.00    +0.063 HD
ATOM     36  H   UNL     1     140.533 180.147 201.600  0.00  0.00    +0.032 HD
ATOM     37  H   UNL     1     139.184 181.219 201.806  0.00  0.00    +0.032 HD
ATOM     38  H   UNL     1     137.678 179.286 202.158  0.00  0.00    +0.060 HD
ATOM     39  H   UNL     1     140.334 179.332 203.684  0.00  0.00    +0.033 HD
ATOM     40  H   UNL     1     138.781 180.031 204.151  0.00  0.00    +0.033 HD
ATOM     41  H   UNL     1     139.129 177.904 205.469  0.00  0.00    +0.057 HD
ATOM     42  H   UNL     1     138.422 175.891 204.315  0.00  0.00    +0.059 HD
ATOM     43  H   UNL     1     138.905 175.853 201.891  0.00  0.00    +0.064 HD
ATOM     44  H   UNL     1     136.381 177.579 202.231  0.00  0.00    +0.032 HD
ATOM     45  H   UNL     1     136.806 176.762 200.778  0.00  0.00    +0.032 HD
ATOM     46  H   UNL     1     136.150 175.475 203.483  0.00  0.00    +0.063 HD
ATOM     47  H   UNL     1     135.848 173.307 202.074  0.00  0.00    +0.066 HD
ATOM     48  H   UNL     1     138.038 174.345 200.265  0.00  0.00    +0.060 HD
ATOM     49  H   UNL     1     136.466 173.364 197.258  0.00  0.00    +0.062 HD
ATOM     50  H   UNL     1     137.610 175.964 198.462  0.00  0.00    +0.069 HD
ENDROOT
BRANCH  21  51
ATOM     51  C   UNL     1     134.753 173.462 199.422  0.00  0.00    -0.040 C 
ATOM     52  H   UNL     1     134.260 173.687 198.472  0.00  0.00    +0.028 HD
ATOM     53  H   UNL     1     134.196 173.973 200.209  0.00  0.00    +0.028 HD
ATOM     54  H   UNL     1     134.660 172.389 199.611  0.00  0.00    +0.028 HD
ENDBRANCH  21  51
BRANCH   2  55
ATOM     55  C   UNL     1     140.082 179.406 194.443  0.00  0.00    -0.057 C 
ATOM     56  H   UNL     1     139.295 179.483 193.685  0.00  0.00    +0.023 HD
ATOM     57  H   UNL     1     140.961 178.961 193.984  0.00  0.00    +0.023 HD
ATOM     58  H   UNL     1     140.387 180.420 194.712  0.00  0.00    +0.023 HD
ENDBRANCH   2  55
BRANCH   1  59
ATOM     59  C   UNL     1     140.459 176.192 194.755  0.00  0.00    +0.020 C 
ATOM     60  H   UNL     1     141.263 176.872 194.455  0.00  0.00    +0.036 HD
BRANCH  59  61
ATOM     61  C   UNL     1     141.087 175.356 195.877  0.00  0.00    -0.057 C 
ATOM     62  H   UNL     1     140.891 175.804 196.856  0.00  0.00    +0.023 HD
ATOM     63  H   UNL     1     140.743 174.324 195.897  0.00  0.00    +0.023 HD
ATOM     64  H   UNL     1     142.174 175.321 195.749  0.00  0.00    +0.023 HD
ENDBRANCH  59  61
BRANCH  59  65
ATOM     65  C   UNL     1     140.162 175.315 193.502  0.00  0.00    +0.064 C 
ATOM     66  H   UNL     1     140.186 174.262 193.815  0.00  0.00    +0.060 HD
BRANCH  65  67
ATOM     67  C   UNL     1     141.179 175.451 192.335  0.00  0.00    -0.017 C 
ATOM     68  H   UNL     1     140.642 175.567 191.391  0.00  0.00    +0.032 HD
BRANCH  67  69
ATOM     69  C   UNL     1     142.065 176.691 192.528  0.00  0.00    -0.060 C 
ATOM     70  H   UNL     1     141.457 177.605 192.537  0.00  0.00    +0.023 HD
ATOM     71  H   UNL     1     142.795 176.780 191.717  0.00  0.00    +0.023 HD
ATOM     72  H   UNL     1     142.609 176.670 193.474  0.00  0.00    +0.023 HD
ENDBRANCH  67  69
BRANCH  67  73
ATOM     73  C   UNL     1     142.102 174.215 192.173  0.00  0.00    -0.046 C 
ATOM     74  H   UNL     1     142.448 174.163 191.133  0.00  0.00    +0.027 HD
ATOM     75  H   UNL     1     143.000 174.335 192.790  0.00  0.00    +0.027 HD
BRANCH  73  76
ATOM     76  C   UNL     1     141.397 172.893 192.495  0.00  0.00    -0.026 C 
ATOM     77  H   UNL     1     142.123 172.115 192.753  0.00  0.00    +0.029 HD
ATOM     78  H   UNL     1     140.766 173.015 193.386  0.00  0.00    +0.029 HD
BRANCH  76  83
ATOM     79  C   UNL     1     138.207 172.430 190.677  0.00  0.00    +0.059 C 
ATOM     80  C   UNL     1     138.674 171.408 189.636  0.00  0.00    -0.000 C 
ATOM     81  C   UNL     1     139.500 170.316 190.309  0.00  0.00    +0.063 C 
ATOM     82  C   UNL     1     140.724 170.929 191.005  0.00  0.00    -0.000 C 
ATOM     83  C   UNL     1     140.501 172.403 191.354  0.00  0.00    +0.061 C 
ATOM     84  O   UNL     1     139.140 172.589 191.755  0.00  0.00    -0.373 OA
ATOM     85  H   UNL     1     137.285 172.058 191.137  0.00  0.00    +0.059 HD
ATOM     86  H   UNL     1     137.818 170.978 189.103  0.00  0.00    +0.032 HD
ATOM     87  H   UNL     1     139.287 171.887 188.858  0.00  0.00    +0.032 HD
ATOM     88  H   UNL     1     138.866 169.809 191.049  0.00  0.00    +0.060 HD
ATOM     89  H   UNL     1     140.914 170.348 191.922  0.00  0.00    +0.032 HD
ATOM     90  H   UNL     1     141.629 170.825 190.392  0.00  0.00    +0.032 HD
ATOM     91  H   UNL     1     140.698 173.032 190.474  0.00  0.00    +0.060 HD
BRANCH  79  92
ATOM     92  C   UNL     1     137.909 173.787 190.057  0.00  0.00    -0.039 C 
ATOM     93  H   UNL     1     137.678 174.532 190.825  0.00  0.00    +0.025 HD
ATOM     94  H   UNL     1     138.773 174.132 189.478  0.00  0.00    +0.025 HD
ATOM     95  H   UNL     1     137.067 173.730 189.358  0.00  0.00    +0.025 HD
ENDBRANCH  79  92
BRANCH  81  96
ATOM     96  O   UNL     1     139.896 169.374 189.306  0.00  0.00    -0.380 OA
BRANCH  96  97
ATOM     97  C   UNL     1     139.332 169.651 188.030  0.00  0.00    +0.037 C 
ATOM     98  H   UNL     1     139.664 170.645 187.722  0.00  0.00    +0.052 HD
ATOM     99  H   UNL     1     138.240 169.650 188.083  0.00  0.00    +0.052 HD
ATOM    100  H   UNL     1     139.676 168.927 187.284  0.00  0.00    +0.052 HD
ENDBRANCH  96  97
ENDBRANCH  81  96
ENDBRANCH  76  83
ENDBRANCH  73  76
ENDBRANCH  67  73
ENDBRANCH  65  67
BRANCH  65 101
ATOM    101  O   UNL     1     138.843 175.550 193.029  0.00  0.00    -0.391 OA
ATOM    102  H   UNL     1     138.233 175.451 193.780  0.00  0.00    +0.210 HD
ENDBRANCH  65 101
ENDBRANCH  59  65
ENDBRANCH   1  59
BRANCH  19 103
ATOM    103  O   UNL     1     137.769 173.691 202.628  0.00  0.00    -0.385 OA
ATOM    104  H   UNL     1     137.687 172.742 202.824  0.00  0.00    +0.210 HD
ENDBRANCH  19 103
BRANCH  18 105
ATOM    105  O   UNL     1     134.740 175.664 201.978  0.00  0.00    -0.377 OA
BRANCH 105 106
ATOM    106  C   UNL     1     133.866 175.946 203.064  0.00  0.00    +0.037 C 
ATOM    107  H   UNL     1     132.892 175.474 202.895  0.00  0.00    +0.052 HD
ATOM    108  H   UNL     1     133.741 177.022 203.204  0.00  0.00    +0.052 HD
ATOM    109  H   UNL     1     134.301 175.526 203.975  0.00  0.00    +0.052 HD
ENDBRANCH 105 106
ENDBRANCH  18 105
BRANCH   9 110
ATOM    110  O   UNL     1     140.277 181.246 199.395  0.00  0.00    -0.377 OA
BRANCH 110 111
ATOM    111  C   UNL     1     140.634 182.212 200.378  0.00  0.00    +0.037 C 
ATOM    112  H   UNL     1     141.678 182.498 200.213  0.00  0.00    +0.052 HD
ATOM    113  H   UNL     1     140.554 181.787 201.383  0.00  0.00    +0.052 HD
ATOM    114  H   UNL     1     140.019 183.109 200.293  0.00  0.00    +0.052 HD
ENDBRANCH 110 111
ENDBRANCH   9 110
BRANCH   5 115
ATOM    115  O   UNL     1     137.991 182.702 198.002  0.00  0.00    -0.377 OA
BRANCH 115 116
ATOM    116  C   UNL     1     138.734 183.245 196.920  0.00  0.00    +0.037 C 
ATOM    117  H   UNL     1     138.769 184.328 197.044  0.00  0.00    +0.052 HD
ATOM    118  H   UNL     1     139.755 182.862 196.909  0.00  0.00    +0.052 HD
ATOM    119  H   UNL     1     138.239 183.022 195.969  0.00  0.00    +0.052 HD
ENDBRANCH 115 116
ENDBRANCH   5 115
BRANCH   3 120
ATOM    120  O   UNL     1     137.305 179.360 195.413  0.00  0.00    -0.379 OA
BRANCH 120 121
ATOM    121  C   UNL     1     136.091 178.788 195.879  0.00  0.00    +0.037 C 
ATOM    122  H   UNL     1     136.073 178.870 196.972  0.00  0.00    +0.052 HD
ATOM    123  H   UNL     1     136.024 177.729 195.611  0.00  0.00    +0.052 HD
ATOM    124  H   UNL     1     135.227 179.333 195.481  0.00  0.00    +0.052 HD
ENDBRANCH 120 121
ENDBRANCH   3 120
TORSDOF 23
ENDMDL
