MODEL 1
REMARK VINA RESULT:      -5.7      0.000      0.000
REMARK  Name = Lobophorolide_conf2
REMARK  23 active torsions:
REMARK  status: ('A' for Active; 'I' for Inactive)
REMARK    1  A    between atoms: C_1  and  C_2
REMARK    2  A    between atoms: C_4  and  O_53
REMARK    3  A    between atoms: C_6  and  C_8
REMARK    4  A    between atoms: C_8  and  C_9
REMARK    5  A    between atoms: C_9  and  C_10
REMARK    6  A    between atoms: C_10  and  C_11
REMARK    7  A    between atoms: C_10  and  C_12
REMARK    8  A    between atoms: C_12  and  C_13
REMARK    9  A    between atoms: C_12  and  O_52
REMARK   10  A    between atoms: C_13  and  C_14
REMARK   11  A    between atoms: C_13  and  C_15
REMARK   12  A    between atoms: C_16  and  C_51
REMARK   13  A    between atoms: C_17  and  O_49
REMARK   14  A    between atoms: C_19  and  O_47
REMARK   15  A    between atoms: C_23  and  O_45
REMARK   16  A    between atoms: C_32  and  O_43
REMARK   17  A    between atoms: C_33  and  O_42
REMARK   18  A    between atoms: C_35  and  C_41
REMARK   19  A    between atoms: O_43  and  C_44
REMARK   20  A    between atoms: O_45  and  C_46
REMARK   21  A    between atoms: O_47  and  C_48
REMARK   22  A    between atoms: O_49  and  C_50
REMARK   23  A    between atoms: O_53  and  C_54
REMARK                            x       y       z     vdW  Elec       q    Type
REMARK                         _______ _______ _______ _____ _____    ______ ____
ROOT
ATOM      1  C   UNL     1     148.261 165.898 188.361  0.00  0.00    +0.113 C 
ATOM      2  C   UNL     1     147.167 165.180 187.514  0.00  0.00    +0.020 C 
ATOM      3  C   UNL     1     145.784 165.173 188.249  0.00  0.00    +0.067 C 
ATOM      4  C   UNL     1     144.608 165.311 187.249  0.00  0.00    +0.003 C 
ATOM      5  C   UNL     1     143.902 166.690 187.296  0.00  0.00    +0.094 C 
ATOM      6  C   UNL     1     142.983 166.923 188.493  0.00  0.00    +0.145 C 
ATOM      7  C   UNL     1     142.059 165.793 188.945  0.00  0.00    +0.083 C 
ATOM      8  O   UNL     1     143.253 166.128 189.660  0.00  0.00    -0.363 OA
ATOM      9  C   UNL     1     142.489 168.353 188.746  0.00  0.00    +0.094 C 
ATOM     10  C   UNL     1     142.342 168.668 190.250  0.00  0.00    +0.003 C 
ATOM     11  C   UNL     1     141.628 169.969 190.650  0.00  0.00    +0.065 C 
ATOM     12  C   UNL     1     140.096 169.846 190.606  0.00  0.00    -0.008 C 
ATOM     13  C   UNL     1     139.464 171.157 190.955  0.00  0.00    -0.083 C 
ATOM     14  C   UNL     1     140.166 172.292 190.855  0.00  0.00    -0.059 C 
ATOM     15  C   UNL     1     141.590 172.355 190.352  0.00  0.00    +0.080 C 
ATOM     16  O   UNL     1     142.070 171.085 189.862  0.00  0.00    -0.369 OA
ATOM     17  C   UNL     1     142.555 172.903 191.415  0.00  0.00    +0.006 C 
ATOM     18  C   UNL     1     143.783 173.554 190.752  0.00  0.00    +0.090 C 
ATOM     19  C   UNL     1     145.081 173.306 191.562  0.00  0.00    +0.100 C 
ATOM     20  C   UNL     1     145.632 171.911 191.441  0.00  0.00    -0.051 C 
ATOM     21  C   UNL     1     146.125 171.296 190.344  0.00  0.00    -0.052 C 
ATOM     22  C   UNL     1     146.595 169.913 190.457  0.00  0.00    -0.052 C 
ATOM     23  C   UNL     1     147.073 169.173 189.447  0.00  0.00    +0.023 C 
ATOM     24  C   UNL     1     147.518 167.782 189.658  0.00  0.00    +0.332 C 
ATOM     25  O   UNL     1     147.552 167.195 190.725  0.00  0.00    -0.246 OA
ATOM     26  O   UNL     1     147.865 167.286 188.442  0.00  0.00    -0.458 OA
ATOM     27  H   UNL     1     148.293 165.436 189.355  0.00  0.00    +0.074 HD
ATOM     28  H   UNL     1     147.046 165.781 186.604  0.00  0.00    +0.036 HD
ATOM     29  H   UNL     1     145.721 165.981 188.985  0.00  0.00    +0.060 HD
ATOM     30  H   UNL     1     143.884 164.506 187.396  0.00  0.00    +0.032 HD
ATOM     31  H   UNL     1     144.986 165.168 186.229  0.00  0.00    +0.032 HD
ATOM     32  H   UNL     1     143.257 166.766 186.410  0.00  0.00    +0.063 HD
ATOM     33  H   UNL     1     142.032 164.861 188.400  0.00  0.00    +0.059 HD
ATOM     34  H   UNL     1     141.107 166.049 189.399  0.00  0.00    +0.059 HD
ATOM     35  H   UNL     1     143.206 169.077 188.337  0.00  0.00    +0.063 HD
ATOM     36  H   UNL     1     143.359 168.694 190.666  0.00  0.00    +0.032 HD
ATOM     37  H   UNL     1     141.826 167.851 190.768  0.00  0.00    +0.032 HD
ATOM     38  H   UNL     1     141.918 170.149 191.693  0.00  0.00    +0.060 HD
ATOM     39  H   UNL     1     139.768 169.079 191.317  0.00  0.00    +0.033 HD
ATOM     40  H   UNL     1     139.729 169.561 189.616  0.00  0.00    +0.033 HD
ATOM     41  H   UNL     1     138.430 171.165 191.283  0.00  0.00    +0.057 HD
ATOM     42  H   UNL     1     139.694 173.237 191.113  0.00  0.00    +0.059 HD
ATOM     43  H   UNL     1     141.583 173.026 189.485  0.00  0.00    +0.064 HD
ATOM     44  H   UNL     1     142.046 173.646 192.041  0.00  0.00    +0.032 HD
ATOM     45  H   UNL     1     142.872 172.086 192.072  0.00  0.00    +0.032 HD
ATOM     46  H   UNL     1     143.907 173.186 189.727  0.00  0.00    +0.063 HD
ATOM     47  H   UNL     1     144.890 173.520 192.622  0.00  0.00    +0.066 HD
ATOM     48  H   UNL     1     145.603 171.357 192.378  0.00  0.00    +0.060 HD
ATOM     49  H   UNL     1     146.542 169.463 191.447  0.00  0.00    +0.062 HD
ATOM     50  H   UNL     1     147.152 169.538 188.432  0.00  0.00    +0.069 HD
ENDROOT
BRANCH  21  51
ATOM     51  C   UNL     1     146.228 171.957 188.991  0.00  0.00    -0.040 C 
ATOM     52  H   UNL     1     146.763 172.909 189.072  0.00  0.00    +0.028 HD
ATOM     53  H   UNL     1     145.237 172.148 188.570  0.00  0.00    +0.028 HD
ATOM     54  H   UNL     1     146.748 171.351 188.247  0.00  0.00    +0.028 HD
ENDBRANCH  21  51
BRANCH   2  55
ATOM     55  C   UNL     1     147.572 163.759 187.090  0.00  0.00    -0.057 C 
ATOM     56  H   UNL     1     147.542 163.653 186.001  0.00  0.00    +0.023 HD
ATOM     57  H   UNL     1     148.591 163.516 187.399  0.00  0.00    +0.023 HD
ATOM     58  H   UNL     1     146.903 163.009 187.528  0.00  0.00    +0.023 HD
ENDBRANCH   2  55
BRANCH   1  59
ATOM     59  C   UNL     1     149.703 165.833 187.772  0.00  0.00    +0.020 C 
ATOM     60  H   UNL     1     149.897 164.786 187.512  0.00  0.00    +0.036 HD
BRANCH  59  61
ATOM     61  C   UNL     1     149.843 166.624 186.469  0.00  0.00    -0.057 C 
ATOM     62  H   UNL     1     150.837 167.072 186.378  0.00  0.00    +0.023 HD
ATOM     63  H   UNL     1     149.715 165.981 185.595  0.00  0.00    +0.023 HD
ATOM     64  H   UNL     1     149.089 167.410 186.393  0.00  0.00    +0.023 HD
ENDBRANCH  59  61
BRANCH  59  65
ATOM     65  C   UNL     1     150.781 166.211 188.834  0.00  0.00    +0.064 C 
ATOM     66  H   UNL     1     151.748 165.874 188.436  0.00  0.00    +0.060 HD
BRANCH  65  67
ATOM     67  C   UNL     1     150.632 165.655 190.285  0.00  0.00    -0.017 C 
ATOM     68  H   UNL     1     149.583 165.713 190.582  0.00  0.00    +0.032 HD
BRANCH  67  69
ATOM     69  C   UNL     1     150.996 164.159 190.254  0.00  0.00    -0.060 C 
ATOM     70  H   UNL     1     150.139 163.544 189.967  0.00  0.00    +0.023 HD
ATOM     71  H   UNL     1     151.348 163.809 191.233  0.00  0.00    +0.023 HD
ATOM     72  H   UNL     1     151.790 163.969 189.522  0.00  0.00    +0.023 HD
ENDBRANCH  67  69
BRANCH  67  73
ATOM     73  C   UNL     1     151.512 166.354 191.356  0.00  0.00    -0.046 C 
ATOM     74  H   UNL     1     152.229 167.024 190.878  0.00  0.00    +0.027 HD
ATOM     75  H   UNL     1     152.118 165.623 191.905  0.00  0.00    +0.027 HD
BRANCH  73  76
ATOM     76  C   UNL     1     150.731 167.202 192.378  0.00  0.00    -0.026 C 
ATOM     77  H   UNL     1     151.462 167.791 192.948  0.00  0.00    +0.029 HD
ATOM     78  H   UNL     1     150.094 167.917 191.847  0.00  0.00    +0.029 HD
BRANCH  76  83
ATOM     79  C   UNL     1     148.009 166.677 194.896  0.00  0.00    +0.059 C 
ATOM     80  C   UNL     1     148.772 165.881 195.956  0.00  0.00    -0.000 C 
ATOM     81  C   UNL     1     150.266 166.156 195.885  0.00  0.00    +0.063 C 
ATOM     82  C   UNL     1     150.764 165.822 194.482  0.00  0.00    -0.000 C 
ATOM     83  C   UNL     1     149.868 166.418 193.384  0.00  0.00    +0.061 C 
ATOM     84  O   UNL     1     148.890 167.291 193.948  0.00  0.00    -0.373 OA
ATOM     85  H   UNL     1     147.497 167.510 195.395  0.00  0.00    +0.059 HD
ATOM     86  H   UNL     1     148.386 166.125 196.956  0.00  0.00    +0.032 HD
ATOM     87  H   UNL     1     148.590 164.801 195.849  0.00  0.00    +0.032 HD
ATOM     88  H   UNL     1     150.448 167.215 196.109  0.00  0.00    +0.060 HD
ATOM     89  H   UNL     1     151.803 166.157 194.373  0.00  0.00    +0.032 HD
ATOM     90  H   UNL     1     150.817 164.733 194.348  0.00  0.00    +0.032 HD
ATOM     91  H   UNL     1     149.361 165.613 192.840  0.00  0.00    +0.060 HD
BRANCH  79  92
ATOM     92  C   UNL     1     146.932 165.840 194.211  0.00  0.00    -0.039 C 
ATOM     93  H   UNL     1     146.253 165.382 194.936  0.00  0.00    +0.025 HD
ATOM     94  H   UNL     1     146.338 166.459 193.534  0.00  0.00    +0.025 HD
ATOM     95  H   UNL     1     147.385 165.024 193.637  0.00  0.00    +0.025 HD
ENDBRANCH  79  92
BRANCH  81  96
ATOM     96  O   UNL     1     150.910 165.348 196.876  0.00  0.00    -0.380 OA
BRANCH  96  97
ATOM     97  C   UNL     1     151.231 164.039 196.415  0.00  0.00    +0.037 C 
ATOM     98  H   UNL     1     151.370 164.034 195.329  0.00  0.00    +0.052 HD
ATOM     99  H   UNL     1     152.169 163.734 196.886  0.00  0.00    +0.052 HD
ATOM    100  H   UNL     1     150.455 163.324 196.702  0.00  0.00    +0.052 HD
ENDBRANCH  96  97
ENDBRANCH  81  96
ENDBRANCH  76  83
ENDBRANCH  73  76
ENDBRANCH  67  73
ENDBRANCH  65  67
BRANCH  65 101
ATOM    101  O   UNL     1     150.878 167.642 188.901  0.00  0.00    -0.391 OA
ATOM    102  H   UNL     1     151.629 167.910 188.345  0.00  0.00    +0.210 HD
ENDBRANCH  65 101
ENDBRANCH  59  65
ENDBRANCH   1  59
BRANCH  19 103
ATOM    103  O   UNL     1     146.098 174.228 191.166  0.00  0.00    -0.385 OA
ATOM    104  H   UNL     1     145.609 174.990 190.803  0.00  0.00    +0.210 HD
ENDBRANCH  19 103
BRANCH  18 105
ATOM    105  O   UNL     1     143.551 174.986 190.726  0.00  0.00    -0.377 OA
BRANCH 105 106
ATOM    106  C   UNL     1     142.936 175.462 191.920  0.00  0.00    +0.037 C 
ATOM    107  H   UNL     1     143.228 176.499 192.117  0.00  0.00    +0.052 HD
ATOM    108  H   UNL     1     143.278 174.841 192.752  0.00  0.00    +0.052 HD
ATOM    109  H   UNL     1     141.847 175.381 191.848  0.00  0.00    +0.052 HD
ENDBRANCH 105 106
ENDBRANCH  18 105
BRANCH   9 110
ATOM    110  O   UNL     1     141.222 168.479 188.086  0.00  0.00    -0.377 OA
BRANCH 110 111
ATOM    111  C   UNL     1     141.297 169.281 186.917  0.00  0.00    +0.037 C 
ATOM    112  H   UNL     1     141.657 168.659 186.094  0.00  0.00    +0.052 HD
ATOM    113  H   UNL     1     142.001 170.105 187.065  0.00  0.00    +0.052 HD
ATOM    114  H   UNL     1     140.312 169.672 186.648  0.00  0.00    +0.052 HD
ENDBRANCH 110 111
ENDBRANCH   9 110
BRANCH   5 115
ATOM    115  O   UNL     1     144.892 167.730 187.253  0.00  0.00    -0.377 OA
BRANCH 115 116
ATOM    116  C   UNL     1     145.115 168.239 185.945  0.00  0.00    +0.037 C 
ATOM    117  H   UNL     1     144.233 168.784 185.593  0.00  0.00    +0.052 HD
ATOM    118  H   UNL     1     145.365 167.436 185.246  0.00  0.00    +0.052 HD
ATOM    119  H   UNL     1     145.955 168.936 185.992  0.00  0.00    +0.052 HD
ENDBRANCH 115 116
ENDBRANCH   5 115
BRANCH   3 120
ATOM    120  O   UNL     1     145.597 163.909 188.921  0.00  0.00    -0.379 OA
BRANCH 120 121
ATOM    121  C   UNL     1     144.486 163.168 188.432  0.00  0.00    +0.037 C 
ATOM    122  H   UNL     1     144.710 162.726 187.459  0.00  0.00    +0.052 HD
ATOM    123  H   UNL     1     144.190 162.392 189.143  0.00  0.00    +0.052 HD
ATOM    124  H   UNL     1     143.644 163.855 188.310  0.00  0.00    +0.052 HD
ENDBRANCH 120 121
ENDBRANCH   3 120
TORSDOF 23
ENDMDL
MODEL 2
REMARK VINA RESULT:      -5.4      4.550     10.781
REMARK  Name = Lobophorolide_conf2
REMARK  23 active torsions:
REMARK  status: ('A' for Active; 'I' for Inactive)
REMARK    1  A    between atoms: C_1  and  C_2
REMARK    2  A    between atoms: C_4  and  O_53
REMARK    3  A    between atoms: C_6  and  C_8
REMARK    4  A    between atoms: C_8  and  C_9
REMARK    5  A    between atoms: C_9  and  C_10
REMARK    6  A    between atoms: C_10  and  C_11
REMARK    7  A    between atoms: C_10  and  C_12
REMARK    8  A    between atoms: C_12  and  C_13
REMARK    9  A    between atoms: C_12  and  O_52
REMARK   10  A    between atoms: C_13  and  C_14
REMARK   11  A    between atoms: C_13  and  C_15
REMARK   12  A    between atoms: C_16  and  C_51
REMARK   13  A    between atoms: C_17  and  O_49
REMARK   14  A    between atoms: C_19  and  O_47
REMARK   15  A    between atoms: C_23  and  O_45
REMARK   16  A    between atoms: C_32  and  O_43
REMARK   17  A    between atoms: C_33  and  O_42
REMARK   18  A    between atoms: C_35  and  C_41
REMARK   19  A    between atoms: O_43  and  C_44
REMARK   20  A    between atoms: O_45  and  C_46
REMARK   21  A    between atoms: O_47  and  C_48
REMARK   22  A    between atoms: O_49  and  C_50
REMARK   23  A    between atoms: O_53  and  C_54
REMARK                            x       y       z     vdW  Elec       q    Type
REMARK                         _______ _______ _______ _____ _____    ______ ____
ROOT
ATOM      1  C   UNL     1     150.607 165.710 190.180  0.00  0.00    +0.113 C 
ATOM      2  C   UNL     1     151.666 165.694 189.037  0.00  0.00    +0.020 C 
ATOM      3  C   UNL     1     152.380 164.303 188.934  0.00  0.00    +0.067 C 
ATOM      4  C   UNL     1     152.707 163.939 187.463  0.00  0.00    +0.003 C 
ATOM      5  C   UNL     1     151.821 162.807 186.884  0.00  0.00    +0.094 C 
ATOM      6  C   UNL     1     152.152 161.396 187.364  0.00  0.00    +0.145 C 
ATOM      7  C   UNL     1     153.617 160.977 187.469  0.00  0.00    +0.083 C 
ATOM      8  O   UNL     1     152.838 161.302 188.624  0.00  0.00    -0.363 OA
ATOM      9  C   UNL     1     151.142 160.283 187.058  0.00  0.00    +0.094 C 
ATOM     10  C   UNL     1     151.073 159.225 188.179  0.00  0.00    +0.003 C 
ATOM     11  C   UNL     1     150.292 157.930 187.905  0.00  0.00    +0.065 C 
ATOM     12  C   UNL     1     151.104 156.904 187.096  0.00  0.00    -0.008 C 
ATOM     13  C   UNL     1     150.271 155.691 186.819  0.00  0.00    -0.083 C 
ATOM     14  C   UNL     1     148.937 155.758 186.892  0.00  0.00    -0.059 C 
ATOM     15  C   UNL     1     148.177 157.028 187.200  0.00  0.00    +0.080 C 
ATOM     16  O   UNL     1     149.030 158.190 187.273  0.00  0.00    -0.369 OA
ATOM     17  C   UNL     1     147.348 156.908 188.489  0.00  0.00    +0.006 C 
ATOM     18  C   UNL     1     146.145 157.868 188.453  0.00  0.00    +0.090 C 
ATOM     19  C   UNL     1     145.840 158.470 189.848  0.00  0.00    +0.100 C 
ATOM     20  C   UNL     1     146.805 159.539 190.288  0.00  0.00    -0.051 C 
ATOM     21  C   UNL     1     147.017 160.755 189.741  0.00  0.00    -0.052 C 
ATOM     22  C   UNL     1     148.030 161.631 190.332  0.00  0.00    -0.052 C 
ATOM     23  C   UNL     1     148.368 162.844 189.871  0.00  0.00    +0.023 C 
ATOM     24  C   UNL     1     149.409 163.655 190.533  0.00  0.00    +0.332 C 
ATOM     25  O   UNL     1     150.011 163.356 191.549  0.00  0.00    -0.246 OA
ATOM     26  O   UNL     1     149.573 164.778 189.789  0.00  0.00    -0.458 OA
ATOM     27  H   UNL     1     151.092 165.394 191.111  0.00  0.00    +0.074 HD
ATOM     28  H   UNL     1     151.106 165.839 188.104  0.00  0.00    +0.036 HD
ATOM     29  H   UNL     1     151.765 163.508 189.368  0.00  0.00    +0.060 HD
ATOM     30  H   UNL     1     153.765 163.688 187.358  0.00  0.00    +0.032 HD
ATOM     31  H   UNL     1     152.563 164.826 186.834  0.00  0.00    +0.032 HD
ATOM     32  H   UNL     1     151.969 162.791 185.796  0.00  0.00    +0.063 HD
ATOM     33  H   UNL     1     154.401 161.657 187.170  0.00  0.00    +0.059 HD
ATOM     34  H   UNL     1     153.874 159.935 187.307  0.00  0.00    +0.059 HD
ATOM     35  H   UNL     1     150.134 160.706 186.956  0.00  0.00    +0.063 HD
ATOM     36  H   UNL     1     150.619 159.719 189.050  0.00  0.00    +0.032 HD
ATOM     37  H   UNL     1     152.080 158.928 188.494  0.00  0.00    +0.032 HD
ATOM     38  H   UNL     1     150.097 157.494 188.894  0.00  0.00    +0.060 HD
ATOM     39  H   UNL     1     151.999 156.616 187.659  0.00  0.00    +0.033 HD
ATOM     40  H   UNL     1     151.431 157.301 186.131  0.00  0.00    +0.033 HD
ATOM     41  H   UNL     1     150.773 154.766 186.555  0.00  0.00    +0.057 HD
ATOM     42  H   UNL     1     148.346 154.868 186.691  0.00  0.00    +0.059 HD
ATOM     43  H   UNL     1     147.508 157.202 186.350  0.00  0.00    +0.064 HD
ATOM     44  H   UNL     1     146.986 155.880 188.611  0.00  0.00    +0.032 HD
ATOM     45  H   UNL     1     147.983 157.134 189.351  0.00  0.00    +0.032 HD
ATOM     46  H   UNL     1     146.316 158.673 187.729  0.00  0.00    +0.063 HD
ATOM     47  H   UNL     1     145.839 157.666 190.595  0.00  0.00    +0.066 HD
ATOM     48  H   UNL     1     147.394 159.250 191.157  0.00  0.00    +0.060 HD
ATOM     49  H   UNL     1     148.544 161.253 191.214  0.00  0.00    +0.062 HD
ATOM     50  H   UNL     1     147.914 163.294 188.998  0.00  0.00    +0.069 HD
ENDROOT
BRANCH  21  51
ATOM     51  C   UNL     1     146.260 161.276 188.543  0.00  0.00    -0.040 C 
ATOM     52  H   UNL     1     146.523 162.322 188.352  0.00  0.00    +0.028 HD
ATOM     53  H   UNL     1     145.181 161.210 188.701  0.00  0.00    +0.028 HD
ATOM     54  H   UNL     1     146.454 160.717 187.626  0.00  0.00    +0.028 HD
ENDBRANCH  21  51
BRANCH   2  55
ATOM     55  C   UNL     1     152.692 166.831 189.153  0.00  0.00    -0.057 C 
ATOM     56  H   UNL     1     152.301 167.651 189.764  0.00  0.00    +0.023 HD
ATOM     57  H   UNL     1     153.616 166.500 189.632  0.00  0.00    +0.023 HD
ATOM     58  H   UNL     1     152.953 167.232 188.166  0.00  0.00    +0.023 HD
ENDBRANCH   2  55
BRANCH   1  59
ATOM     59  C   UNL     1     149.943 167.095 190.449  0.00  0.00    +0.020 C 
ATOM     60  H   UNL     1     150.598 167.855 190.009  0.00  0.00    +0.036 HD
BRANCH  59  61
ATOM     61  C   UNL     1     148.591 167.246 189.747  0.00  0.00    -0.057 C 
ATOM     62  H   UNL     1     148.660 167.920 188.888  0.00  0.00    +0.023 HD
ATOM     63  H   UNL     1     148.234 166.289 189.357  0.00  0.00    +0.023 HD
ATOM     64  H   UNL     1     147.822 167.613 190.429  0.00  0.00    +0.023 HD
ENDBRANCH  59  61
BRANCH  59  65
ATOM     65  C   UNL     1     149.880 167.423 191.973  0.00  0.00    +0.064 C 
ATOM     66  H   UNL     1     148.956 167.992 192.135  0.00  0.00    +0.060 HD
BRANCH  65  67
ATOM     67  C   UNL     1     151.060 168.213 192.619  0.00  0.00    -0.017 C 
ATOM     68  H   UNL     1     150.723 168.649 193.562  0.00  0.00    +0.032 HD
BRANCH  67  69
ATOM     69  C   UNL     1     152.163 167.200 192.975  0.00  0.00    -0.060 C 
ATOM     70  H   UNL     1     152.652 167.454 193.919  0.00  0.00    +0.023 HD
ATOM     71  H   UNL     1     152.937 167.156 192.197  0.00  0.00    +0.023 HD
ATOM     72  H   UNL     1     151.743 166.194 193.090  0.00  0.00    +0.023 HD
ENDBRANCH  67  69
BRANCH  67  73
ATOM     73  C   UNL     1     151.679 169.324 191.729  0.00  0.00    -0.046 C 
ATOM     74  H   UNL     1     151.389 169.180 190.686  0.00  0.00    +0.027 HD
ATOM     75  H   UNL     1     152.775 169.267 191.735  0.00  0.00    +0.027 HD
BRANCH  73  76
ATOM     76  C   UNL     1     151.265 170.759 192.107  0.00  0.00    -0.026 C 
ATOM     77  H   UNL     1     151.726 170.992 193.076  0.00  0.00    +0.029 HD
ATOM     78  H   UNL     1     151.684 171.462 191.380  0.00  0.00    +0.029 HD
BRANCH  76  83
ATOM     79  C   UNL     1     147.810 171.575 190.917  0.00  0.00    +0.059 C 
ATOM     80  C   UNL     1     147.382 172.573 191.993  0.00  0.00    -0.000 C 
ATOM     81  C   UNL     1     148.587 173.240 192.639  0.00  0.00    +0.063 C 
ATOM     82  C   UNL     1     149.496 172.160 193.220  0.00  0.00    -0.000 C 
ATOM     83  C   UNL     1     149.751 171.013 192.229  0.00  0.00    +0.061 C 
ATOM     84  O   UNL     1     149.221 171.328 190.943  0.00  0.00    -0.373 OA
ATOM     85  H   UNL     1     147.614 172.024 189.935  0.00  0.00    +0.059 HD
ATOM     86  H   UNL     1     146.716 173.331 191.556  0.00  0.00    +0.032 HD
ATOM     87  H   UNL     1     146.770 172.086 192.768  0.00  0.00    +0.032 HD
ATOM     88  H   UNL     1     149.127 173.821 191.881  0.00  0.00    +0.060 HD
ATOM     89  H   UNL     1     150.437 172.615 193.553  0.00  0.00    +0.032 HD
ATOM     90  H   UNL     1     149.056 171.749 194.139  0.00  0.00    +0.032 HD
ATOM     91  H   UNL     1     149.282 170.093 192.598  0.00  0.00    +0.060 HD
BRANCH  79  92
ATOM     92  C   UNL     1     147.005 170.279 190.982  0.00  0.00    -0.039 C 
ATOM     93  H   UNL     1     146.795 169.884 189.983  0.00  0.00    +0.025 HD
ATOM     94  H   UNL     1     147.553 169.515 191.540  0.00  0.00    +0.025 HD
ATOM     95  H   UNL     1     146.040 170.449 191.470  0.00  0.00    +0.025 HD
ENDBRANCH  79  92
BRANCH  81  96
ATOM     96  O   UNL     1     148.107 174.125 193.658  0.00  0.00    -0.380 OA
BRANCH  96  97
ATOM     97  C   UNL     1     146.705 174.017 193.883  0.00  0.00    +0.037 C 
ATOM     98  H   UNL     1     146.460 174.255 194.923  0.00  0.00    +0.052 HD
ATOM     99  H   UNL     1     146.200 174.737 193.234  0.00  0.00    +0.052 HD
ATOM    100  H   UNL     1     146.347 173.016 193.628  0.00  0.00    +0.052 HD
ENDBRANCH  96  97
ENDBRANCH  81  96
ENDBRANCH  76  83
ENDBRANCH  73  76
ENDBRANCH  67  73
ENDBRANCH  65  67
BRANCH  65 101
ATOM    101  O   UNL     1     149.700 166.196 192.698  0.00  0.00    -0.391 OA
ATOM    102  H   UNL     1     149.649 165.477 192.046  0.00  0.00    +0.210 HD
ENDBRANCH  65 101
ENDBRANCH  59  65
ENDBRANCH   1  59
BRANCH  19 103
ATOM    103  O   UNL     1     144.520 159.017 189.876  0.00  0.00    -0.385 OA
ATOM    104  H   UNL     1     144.649 159.973 189.733  0.00  0.00    +0.210 HD
ENDBRANCH  19 103
BRANCH  18 105
ATOM    105  O   UNL     1     144.986 157.094 188.049  0.00  0.00    -0.377 OA
BRANCH 105 106
ATOM    106  C   UNL     1     145.048 155.743 188.497  0.00  0.00    +0.037 C 
ATOM    107  H   UNL     1     145.123 155.703 189.589  0.00  0.00    +0.052 HD
ATOM    108  H   UNL     1     145.943 155.282 188.071  0.00  0.00    +0.052 HD
ATOM    109  H   UNL     1     144.171 155.185 188.155  0.00  0.00    +0.052 HD
ENDBRANCH 105 106
ENDBRANCH  18 105
BRANCH   9 110
ATOM    110  O   UNL     1     151.553 159.674 185.826  0.00  0.00    -0.377 OA
BRANCH 110 111
ATOM    111  C   UNL     1     150.724 160.043 184.735  0.00  0.00    +0.037 C 
ATOM    112  H   UNL     1     149.997 160.779 185.087  0.00  0.00    +0.052 HD
ATOM    113  H   UNL     1     150.182 159.172 184.356  0.00  0.00    +0.052 HD
ATOM    114  H   UNL     1     151.312 160.497 183.933  0.00  0.00    +0.052 HD
ENDBRANCH 110 111
ENDBRANCH   9 110
BRANCH   5 115
ATOM    115  O   UNL     1     150.442 163.091 187.172  0.00  0.00    -0.377 OA
BRANCH 115 116
ATOM    116  C   UNL     1     149.811 163.880 186.172  0.00  0.00    +0.037 C 
ATOM    117  H   UNL     1     149.890 164.942 186.419  0.00  0.00    +0.052 HD
ATOM    118  H   UNL     1     148.761 163.598 186.051  0.00  0.00    +0.052 HD
ATOM    119  H   UNL     1     150.331 163.706 185.226  0.00  0.00    +0.052 HD
ENDBRANCH 115 116
ENDBRANCH   5 115
BRANCH   3 120
ATOM    120  O   UNL     1     153.644 164.353 189.629  0.00  0.00    -0.379 OA
BRANCH 120 121
ATOM    121  C   UNL     1     154.766 164.167 188.775  0.00  0.00    +0.037 C 
ATOM    122  H   UNL     1     154.472 164.233 187.726  0.00  0.00    +0.052 HD
ATOM    123  H   UNL     1     155.551 164.896 188.998  0.00  0.00    +0.052 HD
ATOM    124  H   UNL     1     155.170 163.168 188.956  0.00  0.00    +0.052 HD
ENDBRANCH 120 121
ENDBRANCH   3 120
TORSDOF 23
ENDMDL
MODEL 3
REMARK VINA RESULT:      -5.2      2.580      4.531
REMARK  Name = Lobophorolide_conf2
REMARK  23 active torsions:
REMARK  status: ('A' for Active; 'I' for Inactive)
REMARK    1  A    between atoms: C_1  and  C_2
REMARK    2  A    between atoms: C_4  and  O_53
REMARK    3  A    between atoms: C_6  and  C_8
REMARK    4  A    between atoms: C_8  and  C_9
REMARK    5  A    between atoms: C_9  and  C_10
REMARK    6  A    between atoms: C_10  and  C_11
REMARK    7  A    between atoms: C_10  and  C_12
REMARK    8  A    between atoms: C_12  and  C_13
REMARK    9  A    between atoms: C_12  and  O_52
REMARK   10  A    between atoms: C_13  and  C_14
REMARK   11  A    between atoms: C_13  and  C_15
REMARK   12  A    between atoms: C_16  and  C_51
REMARK   13  A    between atoms: C_17  and  O_49
REMARK   14  A    between atoms: C_19  and  O_47
REMARK   15  A    between atoms: C_23  and  O_45
REMARK   16  A    between atoms: C_32  and  O_43
REMARK   17  A    between atoms: C_33  and  O_42
REMARK   18  A    between atoms: C_35  and  C_41
REMARK   19  A    between atoms: O_43  and  C_44
REMARK   20  A    between atoms: O_45  and  C_46
REMARK   21  A    between atoms: O_47  and  C_48
REMARK   22  A    between atoms: O_49  and  C_50
REMARK   23  A    between atoms: O_53  and  C_54
REMARK                            x       y       z     vdW  Elec       q    Type
REMARK                         _______ _______ _______ _____ _____    ______ ____
ROOT
ATOM      1  C   UNL     1     146.055 170.233 189.953  0.00  0.00    +0.113 C 
ATOM      2  C   UNL     1     145.993 169.812 188.454  0.00  0.00    +0.020 C 
ATOM      3  C   UNL     1     144.649 169.079 188.119  0.00  0.00    +0.067 C 
ATOM      4  C   UNL     1     144.159 169.417 186.688  0.00  0.00    +0.003 C 
ATOM      5  C   UNL     1     142.917 170.343 186.651  0.00  0.00    +0.094 C 
ATOM      6  C   UNL     1     141.588 169.683 187.009  0.00  0.00    +0.145 C 
ATOM      7  C   UNL     1     141.280 168.294 186.452  0.00  0.00    +0.083 C 
ATOM      8  O   UNL     1     141.670 168.495 187.815  0.00  0.00    -0.363 OA
ATOM      9  C   UNL     1     140.384 170.598 187.271  0.00  0.00    +0.094 C 
ATOM     10  C   UNL     1     139.445 170.038 188.359  0.00  0.00    +0.003 C 
ATOM     11  C   UNL     1     138.079 170.716 188.555  0.00  0.00    +0.065 C 
ATOM     12  C   UNL     1     137.033 170.255 187.526  0.00  0.00    -0.008 C 
ATOM     13  C   UNL     1     135.745 170.989 187.738  0.00  0.00    -0.083 C 
ATOM     14  C   UNL     1     135.730 172.144 188.413  0.00  0.00    -0.059 C 
ATOM     15  C   UNL     1     136.971 172.811 188.959  0.00  0.00    +0.080 C 
ATOM     16  O   UNL     1     138.189 172.147 188.560  0.00  0.00    -0.369 OA
ATOM     17  C   UNL     1     136.929 172.950 190.489  0.00  0.00    +0.006 C 
ATOM     18  C   UNL     1     137.798 174.132 190.953  0.00  0.00    +0.090 C 
ATOM     19  C   UNL     1     138.518 173.835 192.292  0.00  0.00    +0.100 C 
ATOM     20  C   UNL     1     139.688 172.894 192.173  0.00  0.00    -0.051 C 
ATOM     21  C   UNL     1     140.853 173.084 191.517  0.00  0.00    -0.052 C 
ATOM     22  C   UNL     1     141.851 172.012 191.521  0.00  0.00    -0.052 C 
ATOM     23  C   UNL     1     143.030 172.050 190.885  0.00  0.00    +0.023 C 
ATOM     24  C   UNL     1     143.972 170.915 190.942  0.00  0.00    +0.332 C 
ATOM     25  O   UNL     1     143.819 169.890 191.583  0.00  0.00    -0.246 OA
ATOM     26  O   UNL     1     145.022 171.226 190.139  0.00  0.00    -0.458 OA
ATOM     27  H   UNL     1     145.870 169.348 190.573  0.00  0.00    +0.074 HD
ATOM     28  H   UNL     1     146.004 170.745 187.877  0.00  0.00    +0.036 HD
ATOM     29  H   UNL     1     143.864 169.342 188.835  0.00  0.00    +0.060 HD
ATOM     30  H   UNL     1     143.970 168.501 186.122  0.00  0.00    +0.032 HD
ATOM     31  H   UNL     1     144.965 169.923 186.143  0.00  0.00    +0.032 HD
ATOM     32  H   UNL     1     142.799 170.704 185.621  0.00  0.00    +0.063 HD
ATOM     33  H   UNL     1     141.977 167.808 185.786  0.00  0.00    +0.059 HD
ATOM     34  H   UNL     1     140.246 168.029 186.255  0.00  0.00    +0.059 HD
ATOM     35  H   UNL     1     140.726 171.581 187.619  0.00  0.00    +0.063 HD
ATOM     36  H   UNL     1     139.994 170.098 189.309  0.00  0.00    +0.032 HD
ATOM     37  H   UNL     1     139.249 168.972 188.192  0.00  0.00    +0.032 HD
ATOM     38  H   UNL     1     137.736 170.394 189.546  0.00  0.00    +0.060 HD
ATOM     39  H   UNL     1     136.864 169.177 187.631  0.00  0.00    +0.033 HD
ATOM     40  H   UNL     1     137.349 170.444 186.497  0.00  0.00    +0.033 HD
ATOM     41  H   UNL     1     134.833 170.566 187.329  0.00  0.00    +0.057 HD
ATOM     42  H   UNL     1     134.787 172.664 188.561  0.00  0.00    +0.059 HD
ATOM     43  H   UNL     1     137.012 173.808 188.503  0.00  0.00    +0.064 HD
ATOM     44  H   UNL     1     135.896 173.105 190.826  0.00  0.00    +0.032 HD
ATOM     45  H   UNL     1     137.284 172.020 190.946  0.00  0.00    +0.032 HD
ATOM     46  H   UNL     1     138.534 174.394 190.184  0.00  0.00    +0.063 HD
ATOM     47  H   UNL     1     137.796 173.411 193.004  0.00  0.00    +0.066 HD
ATOM     48  H   UNL     1     139.530 171.948 192.689  0.00  0.00    +0.060 HD
ATOM     49  H   UNL     1     141.600 171.117 192.088  0.00  0.00    +0.062 HD
ATOM     50  H   UNL     1     143.356 172.895 190.293  0.00  0.00    +0.069 HD
ENDROOT
BRANCH  21  51
ATOM     51  C   UNL     1     141.197 174.352 190.774  0.00  0.00    -0.040 C 
ATOM     52  H   UNL     1     142.218 174.298 190.383  0.00  0.00    +0.028 HD
ATOM     53  H   UNL     1     141.118 175.224 191.427  0.00  0.00    +0.028 HD
ATOM     54  H   UNL     1     140.535 174.558 189.931  0.00  0.00    +0.028 HD
ENDBRANCH  21  51
BRANCH   2  55
ATOM     55  C   UNL     1     147.202 168.972 188.016  0.00  0.00    -0.057 C 
ATOM     56  H   UNL     1     147.683 168.498 188.878  0.00  0.00    +0.023 HD
ATOM     57  H   UNL     1     146.914 168.164 187.338  0.00  0.00    +0.023 HD
ATOM     58  H   UNL     1     147.947 169.589 187.501  0.00  0.00    +0.023 HD
ENDBRANCH   2  55
BRANCH   1  59
ATOM     59  C   UNL     1     147.413 170.847 190.413  0.00  0.00    +0.020 C 
ATOM     60  H   UNL     1     148.066 170.875 189.533  0.00  0.00    +0.036 HD
BRANCH  59  61
ATOM     61  C   UNL     1     147.275 172.296 190.883  0.00  0.00    -0.057 C 
ATOM     62  H   UNL     1     147.031 172.964 190.052  0.00  0.00    +0.023 HD
ATOM     63  H   UNL     1     146.468 172.405 191.612  0.00  0.00    +0.023 HD
ATOM     64  H   UNL     1     148.186 172.650 191.370  0.00  0.00    +0.023 HD
ENDBRANCH  59  61
BRANCH  59  65
ATOM     65  C   UNL     1     148.140 169.934 191.449  0.00  0.00    +0.064 C 
ATOM     66  H   UNL     1     148.246 170.525 192.369  0.00  0.00    +0.060 HD
BRANCH  65  67
ATOM     67  C   UNL     1     149.539 169.349 191.081  0.00  0.00    -0.017 C 
ATOM     68  H   UNL     1     149.842 169.735 190.106  0.00  0.00    +0.032 HD
BRANCH  67  69
ATOM     69  C   UNL     1     150.557 169.891 192.102  0.00  0.00    -0.060 C 
ATOM     70  H   UNL     1     151.585 169.712 191.777  0.00  0.00    +0.023 HD
ATOM     71  H   UNL     1     150.430 169.423 193.086  0.00  0.00    +0.023 HD
ATOM     72  H   UNL     1     150.441 170.975 192.226  0.00  0.00    +0.023 HD
ENDBRANCH  67  69
BRANCH  67  73
ATOM     73  C   UNL     1     149.627 167.799 191.074  0.00  0.00    -0.046 C 
ATOM     74  H   UNL     1     150.069 167.449 190.139  0.00  0.00    +0.027 HD
ATOM     75  H   UNL     1     148.627 167.349 191.110  0.00  0.00    +0.027 HD
BRANCH  73  76
ATOM     76  C   UNL     1     150.472 167.196 192.212  0.00  0.00    -0.026 C 
ATOM     77  H   UNL     1     151.199 166.509 191.758  0.00  0.00    +0.029 HD
ATOM     78  H   UNL     1     151.048 167.990 192.699  0.00  0.00    +0.029 HD
BRANCH  76  83
ATOM     79  C   UNL     1     147.913 166.663 194.894  0.00  0.00    +0.059 C 
ATOM     80  C   UNL     1     148.760 165.927 195.933  0.00  0.00    -0.000 C 
ATOM     81  C   UNL     1     150.238 166.249 195.770  0.00  0.00    +0.063 C 
ATOM     82  C   UNL     1     150.668 165.886 194.352  0.00  0.00    -0.000 C 
ATOM     83  C   UNL     1     149.693 166.417 193.288  0.00  0.00    +0.061 C 
ATOM     84  O   UNL     1     148.719 167.275 193.880  0.00  0.00    -0.373 OA
ATOM     85  H   UNL     1     147.401 167.494 195.395  0.00  0.00    +0.059 HD
ATOM     86  H   UNL     1     148.421 166.190 196.945  0.00  0.00    +0.032 HD
ATOM     87  H   UNL     1     148.610 164.838 195.870  0.00  0.00    +0.032 HD
ATOM     88  H   UNL     1     150.395 167.319 195.951  0.00  0.00    +0.060 HD
ATOM     89  H   UNL     1     151.688 166.251 194.175  0.00  0.00    +0.032 HD
ATOM     90  H   UNL     1     150.752 164.795 194.248  0.00  0.00    +0.032 HD
ATOM     91  H   UNL     1     149.186 165.578 192.799  0.00  0.00    +0.060 HD
BRANCH  79  92
ATOM     92  C   UNL     1     146.830 165.769 194.296  0.00  0.00    -0.039 C 
ATOM     93  H   UNL     1     147.176 164.738 194.180  0.00  0.00    +0.025 HD
ATOM     94  H   UNL     1     145.944 165.759 194.937  0.00  0.00    +0.025 HD
ATOM     95  H   UNL     1     146.542 166.125 193.302  0.00  0.00    +0.025 HD
ENDBRANCH  79  92
BRANCH  81  96
ATOM     96  O   UNL     1     150.963 165.494 196.748  0.00  0.00    -0.380 OA
BRANCH  96  97
ATOM     97  C   UNL     1     151.324 164.191 196.300  0.00  0.00    +0.037 C 
ATOM     98  H   UNL     1     152.220 163.837 196.819  0.00  0.00    +0.052 HD
ATOM     99  H   UNL     1     150.499 163.512 196.530  0.00  0.00    +0.052 HD
ATOM    100  H   UNL     1     151.482 164.182 195.218  0.00  0.00    +0.052 HD
ENDBRANCH  96  97
ENDBRANCH  81  96
ENDBRANCH  76  83
ENDBRANCH  73  76
ENDBRANCH  67  73
ENDBRANCH  65  67
BRANCH  65 101
ATOM    101  O   UNL     1     147.267 168.848 191.796  0.00  0.00    -0.391 OA
ATOM    102  H   UNL     1     146.508 169.225 192.273  0.00  0.00    +0.210 HD
ENDBRANCH  65 101
ENDBRANCH  59  65
ENDBRANCH   1  59
BRANCH  19 103
ATOM    103  O   UNL     1     138.976 175.048 192.892  0.00  0.00    -0.385 OA
ATOM    104  H   UNL     1     139.918 174.885 193.084  0.00  0.00    +0.210 HD
ENDBRANCH  19 103
BRANCH  18 105
ATOM    105  O   UNL     1     136.911 175.259 191.176  0.00  0.00    -0.377 OA
BRANCH 105 106
ATOM    106  C   UNL     1     135.660 174.868 191.734  0.00  0.00    +0.037 C 
ATOM    107  H   UNL     1     135.517 173.786 191.637  0.00  0.00    +0.052 HD
ATOM    108  H   UNL     1     134.865 175.373 191.180  0.00  0.00    +0.052 HD
ATOM    109  H   UNL     1     135.599 175.167 192.785  0.00  0.00    +0.052 HD
ENDBRANCH 105 106
ENDBRANCH  18 105
BRANCH   9 110
ATOM    110  O   UNL     1     139.682 170.727 186.027  0.00  0.00    -0.377 OA
BRANCH 110 111
ATOM    111  C   UNL     1     139.856 172.005 185.435  0.00  0.00    +0.037 C 
ATOM    112  H   UNL     1     140.908 172.117 185.160  0.00  0.00    +0.052 HD
ATOM    113  H   UNL     1     139.597 172.793 186.148  0.00  0.00    +0.052 HD
ATOM    114  H   UNL     1     139.251 172.102 184.530  0.00  0.00    +0.052 HD
ENDBRANCH 110 111
ENDBRANCH   9 110
BRANCH   5 115
ATOM    115  O   UNL     1     143.137 171.463 187.523  0.00  0.00    -0.377 OA
BRANCH 115 116
ATOM    116  C   UNL     1     143.797 172.550 186.887  0.00  0.00    +0.037 C 
ATOM    117  H   UNL     1     143.662 172.494 185.803  0.00  0.00    +0.052 HD
ATOM    118  H   UNL     1     144.862 172.564 187.134  0.00  0.00    +0.052 HD
ATOM    119  H   UNL     1     143.343 173.477 187.244  0.00  0.00    +0.052 HD
ENDBRANCH 115 116
ENDBRANCH   5 115
BRANCH   3 120
ATOM    120  O   UNL     1     144.854 167.651 188.149  0.00  0.00    -0.379 OA
BRANCH 120 121
ATOM    121  C   UNL     1     144.361 167.033 189.332  0.00  0.00    +0.037 C 
ATOM    122  H   UNL     1     144.397 165.946 189.248  0.00  0.00    +0.052 HD
ATOM    123  H   UNL     1     144.923 167.366 190.209  0.00  0.00    +0.052 HD
ATOM    124  H   UNL     1     143.318 167.333 189.463  0.00  0.00    +0.052 HD
ENDBRANCH 120 121
ENDBRANCH   3 120
TORSDOF 23
ENDMDL
MODEL 4
REMARK VINA RESULT:      -5.2      5.660      9.984
REMARK  Name = Lobophorolide_conf2
REMARK  23 active torsions:
REMARK  status: ('A' for Active; 'I' for Inactive)
REMARK    1  A    between atoms: C_1  and  C_2
REMARK    2  A    between atoms: C_4  and  O_53
REMARK    3  A    between atoms: C_6  and  C_8
REMARK    4  A    between atoms: C_8  and  C_9
REMARK    5  A    between atoms: C_9  and  C_10
REMARK    6  A    between atoms: C_10  and  C_11
REMARK    7  A    between atoms: C_10  and  C_12
REMARK    8  A    between atoms: C_12  and  C_13
REMARK    9  A    between atoms: C_12  and  O_52
REMARK   10  A    between atoms: C_13  and  C_14
REMARK   11  A    between atoms: C_13  and  C_15
REMARK   12  A    between atoms: C_16  and  C_51
REMARK   13  A    between atoms: C_17  and  O_49
REMARK   14  A    between atoms: C_19  and  O_47
REMARK   15  A    between atoms: C_23  and  O_45
REMARK   16  A    between atoms: C_32  and  O_43
REMARK   17  A    between atoms: C_33  and  O_42
REMARK   18  A    between atoms: C_35  and  C_41
REMARK   19  A    between atoms: O_43  and  C_44
REMARK   20  A    between atoms: O_45  and  C_46
REMARK   21  A    between atoms: O_47  and  C_48
REMARK   22  A    between atoms: O_49  and  C_50
REMARK   23  A    between atoms: O_53  and  C_54
REMARK                            x       y       z     vdW  Elec       q    Type
REMARK                         _______ _______ _______ _____ _____    ______ ____
ROOT
ATOM      1  C   UNL     1     152.953 165.253 189.350  0.00  0.00    +0.113 C 
ATOM      2  C   UNL     1     154.035 164.425 188.594  0.00  0.00    +0.020 C 
ATOM      3  C   UNL     1     154.013 162.919 189.028  0.00  0.00    +0.067 C 
ATOM      4  C   UNL     1     154.343 161.980 187.840  0.00  0.00    +0.003 C 
ATOM      5  C   UNL     1     153.124 161.181 187.314  0.00  0.00    +0.094 C 
ATOM      6  C   UNL     1     152.674 160.010 188.185  0.00  0.00    +0.145 C 
ATOM      7  C   UNL     1     153.735 159.097 188.799  0.00  0.00    +0.083 C 
ATOM      8  O   UNL     1     153.041 160.080 189.574  0.00  0.00    -0.363 OA
ATOM      9  C   UNL     1     151.316 159.369 187.874  0.00  0.00    +0.094 C 
ATOM     10  C   UNL     1     150.592 158.877 189.145  0.00  0.00    +0.003 C 
ATOM     11  C   UNL     1     149.342 157.999 188.972  0.00  0.00    +0.065 C 
ATOM     12  C   UNL     1     149.683 156.526 188.691  0.00  0.00    -0.008 C 
ATOM     13  C   UNL     1     148.428 155.738 188.481  0.00  0.00    -0.083 C 
ATOM     14  C   UNL     1     147.288 156.359 188.154  0.00  0.00    -0.059 C 
ATOM     15  C   UNL     1     147.182 157.849 187.925  0.00  0.00    +0.080 C 
ATOM     16  O   UNL     1     148.461 158.517 187.963  0.00  0.00    -0.369 OA
ATOM     17  C   UNL     1     146.215 158.519 188.915  0.00  0.00    +0.006 C 
ATOM     18  C   UNL     1     145.628 159.809 188.314  0.00  0.00    +0.090 C 
ATOM     19  C   UNL     1     145.441 160.916 189.382  0.00  0.00    +0.100 C 
ATOM     20  C   UNL     1     146.720 161.582 189.815  0.00  0.00    -0.051 C 
ATOM     21  C   UNL     1     147.559 162.345 189.082  0.00  0.00    -0.052 C 
ATOM     22  C   UNL     1     148.766 162.880 189.714  0.00  0.00    -0.052 C 
ATOM     23  C   UNL     1     149.700 163.619 189.098  0.00  0.00    +0.023 C 
ATOM     24  C   UNL     1     150.890 164.110 189.820  0.00  0.00    +0.332 C 
ATOM     25  O   UNL     1     151.123 163.957 191.006  0.00  0.00    -0.246 OA
ATOM     26  O   UNL     1     151.673 164.747 188.911  0.00  0.00    -0.458 OA
ATOM     27  H   UNL     1     153.089 165.104 190.428  0.00  0.00    +0.074 HD
ATOM     28  H   UNL     1     153.754 164.459 187.534  0.00  0.00    +0.036 HD
ATOM     29  H   UNL     1     153.040 162.640 189.443  0.00  0.00    +0.060 HD
ATOM     30  H   UNL     1     155.160 161.304 188.102  0.00  0.00    +0.032 HD
ATOM     31  H   UNL     1     154.729 162.579 187.006  0.00  0.00    +0.032 HD
ATOM     32  H   UNL     1     153.405 160.739 186.349  0.00  0.00    +0.063 HD
ATOM     33  H   UNL     1     154.782 159.257 188.585  0.00  0.00    +0.059 HD
ATOM     34  H   UNL     1     153.490 158.053 188.966  0.00  0.00    +0.059 HD
ATOM     35  H   UNL     1     150.655 160.101 187.393  0.00  0.00    +0.063 HD
ATOM     36  H   UNL     1     150.302 159.775 189.709  0.00  0.00    +0.032 HD
ATOM     37  H   UNL     1     151.281 158.324 189.794  0.00  0.00    +0.032 HD
ATOM     38  H   UNL     1     148.822 158.043 189.937  0.00  0.00    +0.060 HD
ATOM     39  H   UNL     1     150.241 156.110 189.538  0.00  0.00    +0.033 HD
ATOM     40  H   UNL     1     150.297 156.404 187.795  0.00  0.00    +0.033 HD
ATOM     41  H   UNL     1     148.466 154.660 188.596  0.00  0.00    +0.057 HD
ATOM     42  H   UNL     1     146.384 155.773 188.006  0.00  0.00    +0.059 HD
ATOM     43  H   UNL     1     146.807 157.980 186.903  0.00  0.00    +0.064 HD
ATOM     44  H   UNL     1     145.397 157.832 189.167  0.00  0.00    +0.032 HD
ATOM     45  H   UNL     1     146.747 158.746 189.844  0.00  0.00    +0.032 HD
ATOM     46  H   UNL     1     146.263 160.178 187.500  0.00  0.00    +0.063 HD
ATOM     47  H   UNL     1     144.950 160.485 190.265  0.00  0.00    +0.066 HD
ATOM     48  H   UNL     1     146.968 161.393 190.858  0.00  0.00    +0.060 HD
ATOM     49  H   UNL     1     148.904 162.649 190.769  0.00  0.00    +0.062 HD
ATOM     50  H   UNL     1     149.646 163.888 188.052  0.00  0.00    +0.069 HD
ENDROOT
BRANCH  21  51
ATOM     51  C   UNL     1     147.323 162.688 187.631  0.00  0.00    -0.040 C 
ATOM     52  H   UNL     1     148.052 163.432 187.293  0.00  0.00    +0.028 HD
ATOM     53  H   UNL     1     146.318 163.090 187.480  0.00  0.00    +0.028 HD
ATOM     54  H   UNL     1     147.397 161.830 186.961  0.00  0.00    +0.028 HD
ENDBRANCH  21  51
BRANCH   2  55
ATOM     55  C   UNL     1     155.447 165.016 188.727  0.00  0.00    -0.057 C 
ATOM     56  H   UNL     1     156.199 164.223 188.779  0.00  0.00    +0.023 HD
ATOM     57  H   UNL     1     155.711 165.639 187.870  0.00  0.00    +0.023 HD
ATOM     58  H   UNL     1     155.534 165.634 189.628  0.00  0.00    +0.023 HD
ENDBRANCH   2  55
BRANCH   1  59
ATOM     59  C   UNL     1     152.990 166.790 189.086  0.00  0.00    +0.020 C 
ATOM     60  H   UNL     1     154.001 167.133 189.335  0.00  0.00    +0.036 HD
BRANCH  59  61
ATOM     61  C   UNL     1     152.777 167.138 187.611  0.00  0.00    -0.057 C 
ATOM     62  H   UNL     1     152.139 168.019 187.497  0.00  0.00    +0.023 HD
ATOM     63  H   UNL     1     153.721 167.377 187.116  0.00  0.00    +0.023 HD
ATOM     64  H   UNL     1     152.337 166.305 187.061  0.00  0.00    +0.023 HD
ENDBRANCH  59  61
BRANCH  59  65
ATOM     65  C   UNL     1     152.033 167.567 190.042  0.00  0.00    +0.064 C 
ATOM     66  H   UNL     1     152.406 168.598 190.091  0.00  0.00    +0.060 HD
BRANCH  65  67
ATOM     67  C   UNL     1     151.846 167.046 191.502  0.00  0.00    -0.017 C 
ATOM     68  H   UNL     1     151.879 165.955 191.498  0.00  0.00    +0.032 HD
BRANCH  67  69
ATOM     69  C   UNL     1     153.058 167.518 192.327  0.00  0.00    -0.060 C 
ATOM     70  H   UNL     1     153.103 168.609 192.385  0.00  0.00    +0.023 HD
ATOM     71  H   UNL     1     154.003 167.166 191.893  0.00  0.00    +0.023 HD
ATOM     72  H   UNL     1     152.997 167.141 193.355  0.00  0.00    +0.023 HD
ENDBRANCH  67  69
BRANCH  67  73
ATOM     73  C   UNL     1     150.551 167.521 192.213  0.00  0.00    -0.046 C 
ATOM     74  H   UNL     1     150.211 168.468 191.789  0.00  0.00    +0.027 HD
ATOM     75  H   UNL     1     150.738 167.729 193.274  0.00  0.00    +0.027 HD
BRANCH  73  76
ATOM     76  C   UNL     1     149.364 166.543 192.112  0.00  0.00    -0.026 C 
ATOM     77  H   UNL     1     148.526 167.084 191.654  0.00  0.00    +0.029 HD
ATOM     78  H   UNL     1     149.623 165.725 191.432  0.00  0.00    +0.029 HD
BRANCH  76  83
ATOM     79  C   UNL     1     147.473 166.440 195.343  0.00  0.00    +0.059 C 
ATOM     80  C   UNL     1     148.554 165.886 196.271  0.00  0.00    -0.000 C 
ATOM     81  C   UNL     1     149.947 166.185 195.737  0.00  0.00    +0.063 C 
ATOM     82  C   UNL     1     150.074 165.598 194.334  0.00  0.00    -0.000 C 
ATOM     83  C   UNL     1     148.870 165.945 193.443  0.00  0.00    +0.061 C 
ATOM     84  O   UNL     1     148.013 166.883 194.092  0.00  0.00    -0.373 OA
ATOM     85  H   UNL     1     147.048 167.339 195.808  0.00  0.00    +0.059 HD
ATOM     86  H   UNL     1     148.433 166.309 197.279  0.00  0.00    +0.032 HD
ATOM     87  H   UNL     1     148.439 164.801 196.415  0.00  0.00    +0.032 HD
ATOM     88  H   UNL     1     150.097 167.271 195.709  0.00  0.00    +0.060 HD
ATOM     89  H   UNL     1     151.015 165.935 193.881  0.00  0.00    +0.032 HD
ATOM     90  H   UNL     1     150.177 164.506 194.387  0.00  0.00    +0.032 HD
ATOM     91  H   UNL     1     148.303 165.035 193.215  0.00  0.00    +0.060 HD
BRANCH  79  92
ATOM     92  C   UNL     1     146.323 165.455 195.147  0.00  0.00    -0.039 C 
ATOM     93  H   UNL     1     146.096 165.304 194.088  0.00  0.00    +0.025 HD
ATOM     94  H   UNL     1     146.571 164.483 195.582  0.00  0.00    +0.025 HD
ATOM     95  H   UNL     1     145.410 165.831 195.621  0.00  0.00    +0.025 HD
ENDBRANCH  79  92
BRANCH  81  96
ATOM     96  O   UNL     1     150.897 165.602 196.637  0.00  0.00    -0.380 OA
BRANCH  96  97
ATOM     97  C   UNL     1     151.200 164.244 196.335  0.00  0.00    +0.037 C 
ATOM     98  H   UNL     1     150.846 163.581 197.131  0.00  0.00    +0.052 HD
ATOM     99  H   UNL     1     150.683 163.979 195.409  0.00  0.00    +0.052 HD
ATOM    100  H   UNL     1     152.274 164.110 196.179  0.00  0.00    +0.052 HD
ENDBRANCH  96  97
ENDBRANCH  81  96
ENDBRANCH  76  83
ENDBRANCH  73  76
ENDBRANCH  67  73
ENDBRANCH  65  67
BRANCH  65 101
ATOM    101  O   UNL     1     150.741 167.660 189.422  0.00  0.00    -0.391 OA
ATOM    102  H   UNL     1     150.884 167.854 188.480  0.00  0.00    +0.210 HD
ENDBRANCH  65 101
ENDBRANCH  59  65
ENDBRANCH   1  59
BRANCH  19 103
ATOM    103  O   UNL     1     144.548 161.923 188.904  0.00  0.00    -0.385 OA
ATOM    104  H   UNL     1     145.080 162.741 188.905  0.00  0.00    +0.210 HD
ENDBRANCH  19 103
BRANCH  18 105
ATOM    105  O   UNL     1     144.314 159.482 187.790  0.00  0.00    -0.377 OA
BRANCH 105 106
ATOM    106  C   UNL     1     144.266 159.532 186.366  0.00  0.00    +0.037 C 
ATOM    107  H   UNL     1     143.867 160.495 186.029  0.00  0.00    +0.052 HD
ATOM    108  H   UNL     1     143.598 158.739 186.019  0.00  0.00    +0.052 HD
ATOM    109  H   UNL     1     145.261 159.363 185.943  0.00  0.00    +0.052 HD
ENDBRANCH 105 106
ENDBRANCH  18 105
BRANCH   9 110
ATOM    110  O   UNL     1     151.568 158.268 186.990  0.00  0.00    -0.377 OA
BRANCH 110 111
ATOM    111  C   UNL     1     151.153 158.536 185.659  0.00  0.00    +0.037 C 
ATOM    112  H   UNL     1     150.794 157.605 185.215  0.00  0.00    +0.052 HD
ATOM    113  H   UNL     1     151.994 158.904 185.064  0.00  0.00    +0.052 HD
ATOM    114  H   UNL     1     150.336 159.263 185.644  0.00  0.00    +0.052 HD
ENDBRANCH 110 111
ENDBRANCH   9 110
BRANCH   5 115
ATOM    115  O   UNL     1     152.017 162.076 187.122  0.00  0.00    -0.377 OA
BRANCH 115 116
ATOM    116  C   UNL     1     152.001 162.680 185.836  0.00  0.00    +0.037 C 
ATOM    117  H   UNL     1     152.300 163.730 185.904  0.00  0.00    +0.052 HD
ATOM    118  H   UNL     1     151.012 162.600 185.374  0.00  0.00    +0.052 HD
ATOM    119  H   UNL     1     152.724 162.156 185.206  0.00  0.00    +0.052 HD
ENDBRANCH 115 116
ENDBRANCH   5 115
BRANCH   3 120
ATOM    120  O   UNL     1     155.033 162.687 190.022  0.00  0.00    -0.379 OA
BRANCH 120 121
ATOM    121  C   UNL     1     156.075 161.828 189.573  0.00  0.00    +0.037 C 
ATOM    122  H   UNL     1     155.666 160.933 189.101  0.00  0.00    +0.052 HD
ATOM    123  H   UNL     1     156.743 162.352 188.884  0.00  0.00    +0.052 HD
ATOM    124  H   UNL     1     156.660 161.518 190.444  0.00  0.00    +0.052 HD
ENDBRANCH 120 121
ENDBRANCH   3 120
TORSDOF 23
ENDMDL
MODEL 5
REMARK VINA RESULT:      -5.2      3.600     10.046
REMARK  Name = Lobophorolide_conf2
REMARK  23 active torsions:
REMARK  status: ('A' for Active; 'I' for Inactive)
REMARK    1  A    between atoms: C_1  and  C_2
REMARK    2  A    between atoms: C_4  and  O_53
REMARK    3  A    between atoms: C_6  and  C_8
REMARK    4  A    between atoms: C_8  and  C_9
REMARK    5  A    between atoms: C_9  and  C_10
REMARK    6  A    between atoms: C_10  and  C_11
REMARK    7  A    between atoms: C_10  and  C_12
REMARK    8  A    between atoms: C_12  and  C_13
REMARK    9  A    between atoms: C_12  and  O_52
REMARK   10  A    between atoms: C_13  and  C_14
REMARK   11  A    between atoms: C_13  and  C_15
REMARK   12  A    between atoms: C_16  and  C_51
REMARK   13  A    between atoms: C_17  and  O_49
REMARK   14  A    between atoms: C_19  and  O_47
REMARK   15  A    between atoms: C_23  and  O_45
REMARK   16  A    between atoms: C_32  and  O_43
REMARK   17  A    between atoms: C_33  and  O_42
REMARK   18  A    between atoms: C_35  and  C_41
REMARK   19  A    between atoms: O_43  and  C_44
REMARK   20  A    between atoms: O_45  and  C_46
REMARK   21  A    between atoms: O_47  and  C_48
REMARK   22  A    between atoms: O_49  and  C_50
REMARK   23  A    between atoms: O_53  and  C_54
REMARK                            x       y       z     vdW  Elec       q    Type
REMARK                         _______ _______ _______ _____ _____    ______ ____
ROOT
ATOM      1  C   UNL     1     146.752 166.434 189.124  0.00  0.00    +0.113 C 
ATOM      2  C   UNL     1     146.120 165.068 189.525  0.00  0.00    +0.020 C 
ATOM      3  C   UNL     1     146.691 163.894 188.658  0.00  0.00    +0.067 C 
ATOM      4  C   UNL     1     146.821 162.588 189.483  0.00  0.00    +0.003 C 
ATOM      5  C   UNL     1     148.283 162.199 189.817  0.00  0.00    +0.094 C 
ATOM      6  C   UNL     1     149.093 161.615 188.662  0.00  0.00    +0.145 C 
ATOM      7  C   UNL     1     148.429 160.597 187.736  0.00  0.00    +0.083 C 
ATOM      8  O   UNL     1     148.643 161.955 187.340  0.00  0.00    -0.363 OA
ATOM      9  C   UNL     1     150.610 161.482 188.849  0.00  0.00    +0.094 C 
ATOM     10  C   UNL     1     151.388 161.717 187.537  0.00  0.00    +0.003 C 
ATOM     11  C   UNL     1     152.887 161.378 187.515  0.00  0.00    +0.065 C 
ATOM     12  C   UNL     1     153.156 159.877 187.314  0.00  0.00    -0.008 C 
ATOM     13  C   UNL     1     154.628 159.608 187.354  0.00  0.00    -0.083 C 
ATOM     14  C   UNL     1     155.459 160.487 187.925  0.00  0.00    -0.059 C 
ATOM     15  C   UNL     1     154.999 161.759 188.599  0.00  0.00    +0.080 C 
ATOM     16  O   UNL     1     153.562 161.862 188.686  0.00  0.00    -0.369 OA
ATOM     17  C   UNL     1     155.572 163.014 187.922  0.00  0.00    +0.006 C 
ATOM     18  C   UNL     1     155.655 164.183 188.921  0.00  0.00    +0.090 C 
ATOM     19  C   UNL     1     155.336 165.543 188.252  0.00  0.00    +0.100 C 
ATOM     20  C   UNL     1     153.875 165.766 187.961  0.00  0.00    -0.051 C 
ATOM     21  C   UNL     1     152.855 165.886 188.837  0.00  0.00    -0.052 C 
ATOM     22  C   UNL     1     151.498 166.081 188.322  0.00  0.00    -0.052 C 
ATOM     23  C   UNL     1     150.392 166.181 189.073  0.00  0.00    +0.023 C 
ATOM     24  C   UNL     1     149.062 166.371 188.461  0.00  0.00    +0.332 C 
ATOM     25  O   UNL     1     148.834 166.507 187.272  0.00  0.00    -0.246 OA
ATOM     26  O   UNL     1     148.153 166.351 189.469  0.00  0.00    -0.458 OA
ATOM     27  H   UNL     1     146.617 166.578 188.045  0.00  0.00    +0.074 HD
ATOM     28  H   UNL     1     146.430 164.884 190.562  0.00  0.00    +0.036 HD
ATOM     29  H   UNL     1     147.669 164.149 188.240  0.00  0.00    +0.060 HD
ATOM     30  H   UNL     1     146.312 161.764 188.978  0.00  0.00    +0.032 HD
ATOM     31  H   UNL     1     146.286 162.710 190.433  0.00  0.00    +0.032 HD
ATOM     32  H   UNL     1     148.254 161.414 190.584  0.00  0.00    +0.063 HD
ATOM     33  H   UNL     1     147.417 160.270 187.923  0.00  0.00    +0.059 HD
ATOM     34  H   UNL     1     149.046 159.831 187.276  0.00  0.00    +0.059 HD
ATOM     35  H   UNL     1     150.968 162.229 189.570  0.00  0.00    +0.063 HD
ATOM     36  H   UNL     1     151.275 162.782 187.291  0.00  0.00    +0.032 HD
ATOM     37  H   UNL     1     150.926 161.166 186.709  0.00  0.00    +0.032 HD
ATOM     38  H   UNL     1     153.290 161.908 186.642  0.00  0.00    +0.060 HD
ATOM     39  H   UNL     1     152.749 159.556 186.348  0.00  0.00    +0.033 HD
ATOM     40  H   UNL     1     152.692 159.264 188.091  0.00  0.00    +0.033 HD
ATOM     41  H   UNL     1     155.000 158.687 186.916  0.00  0.00    +0.057 HD
ATOM     42  H   UNL     1     156.526 160.279 187.944  0.00  0.00    +0.059 HD
ATOM     43  H   UNL     1     155.357 161.707 189.634  0.00  0.00    +0.064 HD
ATOM     44  H   UNL     1     156.574 162.805 187.526  0.00  0.00    +0.032 HD
ATOM     45  H   UNL     1     154.937 163.289 187.073  0.00  0.00    +0.032 HD
ATOM     46  H   UNL     1     154.977 164.015 189.766  0.00  0.00    +0.063 HD
ATOM     47  H   UNL     1     155.899 165.624 187.312  0.00  0.00    +0.066 HD
ATOM     48  H   UNL     1     153.655 165.821 186.896  0.00  0.00    +0.060 HD
ATOM     49  H   UNL     1     151.394 166.146 187.240  0.00  0.00    +0.062 HD
ATOM     50  H   UNL     1     150.402 166.119 190.153  0.00  0.00    +0.069 HD
ENDROOT
BRANCH  21  51
ATOM     51  C   UNL     1     153.029 165.837 190.336  0.00  0.00    -0.040 C 
ATOM     52  H   UNL     1     152.140 166.234 190.836  0.00  0.00    +0.028 HD
ATOM     53  H   UNL     1     153.897 166.423 190.650  0.00  0.00    +0.028 HD
ATOM     54  H   UNL     1     153.201 164.831 190.723  0.00  0.00    +0.028 HD
ENDBRANCH  21  51
BRANCH   2  55
ATOM     55  C   UNL     1     144.584 165.082 189.489  0.00  0.00    -0.057 C 
ATOM     56  H   UNL     1     144.184 165.855 190.153  0.00  0.00    +0.023 HD
ATOM     57  H   UNL     1     144.201 165.301 188.490  0.00  0.00    +0.023 HD
ATOM     58  H   UNL     1     144.171 164.115 189.799  0.00  0.00    +0.023 HD
ENDBRANCH   2  55
BRANCH   1  59
ATOM     59  C   UNL     1     146.144 167.680 189.838  0.00  0.00    +0.020 C 
ATOM     60  H   UNL     1     145.060 167.522 189.892  0.00  0.00    +0.036 HD
BRANCH  59  61
ATOM     61  C   UNL     1     146.622 167.821 191.285  0.00  0.00    -0.057 C 
ATOM     62  H   UNL     1     145.845 167.521 191.994  0.00  0.00    +0.023 HD
ATOM     63  H   UNL     1     147.484 167.179 191.485  0.00  0.00    +0.023 HD
ATOM     64  H   UNL     1     146.934 168.843 191.508  0.00  0.00    +0.023 HD
ENDBRANCH  59  61
BRANCH  59  65
ATOM     65  C   UNL     1     146.338 168.982 189.001  0.00  0.00    +0.064 C 
ATOM     66  H   UNL     1     147.221 169.491 189.410  0.00  0.00    +0.060 HD
BRANCH  65  67
ATOM     67  C   UNL     1     145.168 170.012 188.932  0.00  0.00    -0.017 C 
ATOM     68  H   UNL     1     145.154 170.469 187.941  0.00  0.00    +0.032 HD
BRANCH  67  69
ATOM     69  C   UNL     1     143.848 169.232 189.074  0.00  0.00    -0.060 C 
ATOM     70  H   UNL     1     143.648 168.968 190.115  0.00  0.00    +0.023 HD
ATOM     71  H   UNL     1     143.864 168.303 188.488  0.00  0.00    +0.023 HD
ATOM     72  H   UNL     1     143.002 169.836 188.725  0.00  0.00    +0.023 HD
ENDBRANCH  67  69
BRANCH  67  73
ATOM     73  C   UNL     1     145.202 171.125 190.014  0.00  0.00    -0.046 C 
ATOM     74  H   UNL     1     145.105 170.688 191.010  0.00  0.00    +0.027 HD
ATOM     75  H   UNL     1     144.344 171.801 189.909  0.00  0.00    +0.027 HD
BRANCH  73  76
ATOM     76  C   UNL     1     146.489 171.972 190.028  0.00  0.00    -0.026 C 
ATOM     77  H   UNL     1     147.180 171.537 189.294  0.00  0.00    +0.029 HD
ATOM     78  H   UNL     1     146.261 172.987 189.686  0.00  0.00    +0.029 HD
BRANCH  76  83
ATOM     79  C   UNL     1     148.443 173.589 192.783  0.00  0.00    +0.059 C 
ATOM     80  C   UNL     1     149.488 172.504 193.046  0.00  0.00    -0.000 C 
ATOM     81  C   UNL     1     149.695 171.627 191.820  0.00  0.00    +0.063 C 
ATOM     82  C   UNL     1     148.356 171.016 191.419  0.00  0.00    -0.000 C 
ATOM     83  C   UNL     1     147.224 172.056 191.379  0.00  0.00    +0.061 C 
ATOM     84  O   UNL     1     147.743 173.374 191.552  0.00  0.00    -0.373 OA
ATOM     85  H   UNL     1     148.966 174.545 192.654  0.00  0.00    +0.059 HD
ATOM     86  H   UNL     1     150.438 172.966 193.349  0.00  0.00    +0.032 HD
ATOM     87  H   UNL     1     149.203 171.877 193.904  0.00  0.00    +0.032 HD
ATOM     88  H   UNL     1     150.092 172.241 191.002  0.00  0.00    +0.060 HD
ATOM     89  H   UNL     1     148.462 170.506 190.453  0.00  0.00    +0.032 HD
ATOM     90  H   UNL     1     148.080 170.214 192.117  0.00  0.00    +0.032 HD
ATOM     91  H   UNL     1     146.499 171.846 192.173  0.00  0.00    +0.060 HD
BRANCH  79  92
ATOM     92  C   UNL     1     147.484 173.762 193.959  0.00  0.00    -0.039 C 
ATOM     93  H   UNL     1     147.371 172.835 194.527  0.00  0.00    +0.025 HD
ATOM     94  H   UNL     1     147.849 174.535 194.641  0.00  0.00    +0.025 HD
ATOM     95  H   UNL     1     146.488 174.046 193.605  0.00  0.00    +0.025 HD
ENDBRANCH  79  92
BRANCH  81  96
ATOM     96  O   UNL     1     150.652 170.617 192.158  0.00  0.00    -0.380 OA
BRANCH  96  97
ATOM     97  C   UNL     1     150.217 169.299 191.840  0.00  0.00    +0.037 C 
ATOM     98  H   UNL     1     150.793 168.555 192.399  0.00  0.00    +0.052 HD
ATOM     99  H   UNL     1     149.166 169.211 192.125  0.00  0.00    +0.052 HD
ATOM    100  H   UNL     1     150.297 169.113 190.765  0.00  0.00    +0.052 HD
ENDBRANCH  96  97
ENDBRANCH  81  96
ENDBRANCH  76  83
ENDBRANCH  73  76
ENDBRANCH  67  73
ENDBRANCH  65  67
BRANCH  65 101
ATOM    101  O   UNL     1     146.703 168.614 187.661  0.00  0.00    -0.391 OA
ATOM    102  H   UNL     1     145.951 168.833 187.084  0.00  0.00    +0.210 HD
ENDBRANCH  65 101
ENDBRANCH  59  65
ENDBRANCH   1  59
BRANCH  19 103
ATOM    103  O   UNL     1     155.801 166.620 189.067  0.00  0.00    -0.385 OA
ATOM    104  H   UNL     1     155.082 166.768 189.710  0.00  0.00    +0.210 HD
ENDBRANCH  19 103
BRANCH  18 105
ATOM    105  O   UNL     1     157.022 164.243 189.402  0.00  0.00    -0.377 OA
BRANCH 105 106
ATOM    106  C   UNL     1     157.959 163.744 188.452  0.00  0.00    +0.037 C 
ATOM    107  H   UNL     1     157.680 162.735 188.130  0.00  0.00    +0.052 HD
ATOM    108  H   UNL     1     158.940 163.695 188.933  0.00  0.00    +0.052 HD
ATOM    109  H   UNL     1     158.025 164.414 187.590  0.00  0.00    +0.052 HD
ENDBRANCH 105 106
ENDBRANCH  18 105
BRANCH   9 110
ATOM    110  O   UNL     1     150.855 160.158 189.342  0.00  0.00    -0.377 OA
BRANCH 110 111
ATOM    111  C   UNL     1     151.251 160.151 190.705  0.00  0.00    +0.037 C 
ATOM    112  H   UNL     1     152.319 159.924 190.753  0.00  0.00    +0.052 HD
ATOM    113  H   UNL     1     150.706 159.379 191.256  0.00  0.00    +0.052 HD
ATOM    114  H   UNL     1     151.085 161.129 191.165  0.00  0.00    +0.052 HD
ENDBRANCH 110 111
ENDBRANCH   9 110
BRANCH   5 115
ATOM    115  O   UNL     1     148.971 163.347 190.340  0.00  0.00    -0.377 OA
BRANCH 115 116
ATOM    116  C   UNL     1     149.100 163.328 191.756  0.00  0.00    +0.037 C 
ATOM    117  H   UNL     1     148.663 164.231 192.190  0.00  0.00    +0.052 HD
ATOM    118  H   UNL     1     150.148 163.235 192.055  0.00  0.00    +0.052 HD
ATOM    119  H   UNL     1     148.551 162.462 192.134  0.00  0.00    +0.052 HD
ENDBRANCH 115 116
ENDBRANCH   5 115
BRANCH   3 120
ATOM    120  O   UNL     1     145.779 163.600 187.578  0.00  0.00    -0.379 OA
BRANCH 120 121
ATOM    121  C   UNL     1     146.208 164.111 186.322  0.00  0.00    +0.037 C 
ATOM    122  H   UNL     1     146.866 163.401 185.817  0.00  0.00    +0.052 HD
ATOM    123  H   UNL     1     145.352 164.355 185.687  0.00  0.00    +0.052 HD
ATOM    124  H   UNL     1     146.771 165.031 186.502  0.00  0.00    +0.052 HD
ENDBRANCH 120 121
ENDBRANCH   3 120
TORSDOF 23
ENDMDL
MODEL 6
REMARK VINA RESULT:      -5.2      1.549      2.351
REMARK  Name = Lobophorolide_conf2
REMARK  23 active torsions:
REMARK  status: ('A' for Active; 'I' for Inactive)
REMARK    1  A    between atoms: C_1  and  C_2
REMARK    2  A    between atoms: C_4  and  O_53
REMARK    3  A    between atoms: C_6  and  C_8
REMARK    4  A    between atoms: C_8  and  C_9
REMARK    5  A    between atoms: C_9  and  C_10
REMARK    6  A    between atoms: C_10  and  C_11
REMARK    7  A    between atoms: C_10  and  C_12
REMARK    8  A    between atoms: C_12  and  C_13
REMARK    9  A    between atoms: C_12  and  O_52
REMARK   10  A    between atoms: C_13  and  C_14
REMARK   11  A    between atoms: C_13  and  C_15
REMARK   12  A    between atoms: C_16  and  C_51
REMARK   13  A    between atoms: C_17  and  O_49
REMARK   14  A    between atoms: C_19  and  O_47
REMARK   15  A    between atoms: C_23  and  O_45
REMARK   16  A    between atoms: C_32  and  O_43
REMARK   17  A    between atoms: C_33  and  O_42
REMARK   18  A    between atoms: C_35  and  C_41
REMARK   19  A    between atoms: O_43  and  C_44
REMARK   20  A    between atoms: O_45  and  C_46
REMARK   21  A    between atoms: O_47  and  C_48
REMARK   22  A    between atoms: O_49  and  C_50
REMARK   23  A    between atoms: O_53  and  C_54
REMARK                            x       y       z     vdW  Elec       q    Type
REMARK                         _______ _______ _______ _____ _____    ______ ____
ROOT
ATOM      1  C   UNL     1     147.759 166.087 187.729  0.00  0.00    +0.113 C 
ATOM      2  C   UNL     1     146.640 165.503 186.815  0.00  0.00    +0.020 C 
ATOM      3  C   UNL     1     145.253 165.484 187.544  0.00  0.00    +0.067 C 
ATOM      4  C   UNL     1     144.090 165.771 186.560  0.00  0.00    +0.003 C 
ATOM      5  C   UNL     1     143.444 167.167 186.740  0.00  0.00    +0.094 C 
ATOM      6  C   UNL     1     142.529 167.322 187.953  0.00  0.00    +0.145 C 
ATOM      7  C   UNL     1     141.555 166.194 188.291  0.00  0.00    +0.083 C 
ATOM      8  O   UNL     1     142.758 166.405 189.038  0.00  0.00    -0.363 OA
ATOM      9  C   UNL     1     142.096 168.740 188.345  0.00  0.00    +0.094 C 
ATOM     10  C   UNL     1     141.954 168.913 189.871  0.00  0.00    +0.003 C 
ATOM     11  C   UNL     1     141.295 170.198 190.396  0.00  0.00    +0.065 C 
ATOM     12  C   UNL     1     139.759 170.147 190.338  0.00  0.00    -0.008 C 
ATOM     13  C   UNL     1     139.181 171.444 190.813  0.00  0.00    -0.083 C 
ATOM     14  C   UNL     1     139.932 172.552 190.825  0.00  0.00    -0.059 C 
ATOM     15  C   UNL     1     141.361 172.601 190.333  0.00  0.00    +0.080 C 
ATOM     16  O   UNL     1     141.789 171.366 189.722  0.00  0.00    -0.369 OA
ATOM     17  C   UNL     1     142.343 173.001 191.446  0.00  0.00    +0.006 C 
ATOM     18  C   UNL     1     143.601 173.659 190.852  0.00  0.00    +0.090 C 
ATOM     19  C   UNL     1     144.882 173.278 191.635  0.00  0.00    +0.100 C 
ATOM     20  C   UNL     1     145.374 171.878 191.379  0.00  0.00    -0.051 C 
ATOM     21  C   UNL     1     145.846 171.353 190.228  0.00  0.00    -0.052 C 
ATOM     22  C   UNL     1     146.255 169.947 190.206  0.00  0.00    -0.052 C 
ATOM     23  C   UNL     1     146.706 169.289 189.129  0.00  0.00    +0.023 C 
ATOM     24  C   UNL     1     147.091 167.865 189.203  0.00  0.00    +0.332 C 
ATOM     25  O   UNL     1     147.093 167.176 190.208  0.00  0.00    -0.246 OA
ATOM     26  O   UNL     1     147.422 167.476 187.946  0.00  0.00    -0.458 OA
ATOM     27  H   UNL     1     147.765 165.530 188.673  0.00  0.00    +0.074 HD
ATOM     28  H   UNL     1     146.550 166.195 185.968  0.00  0.00    +0.036 HD
ATOM     29  H   UNL     1     145.222 166.218 188.355  0.00  0.00    +0.060 HD
ATOM     30  H   UNL     1     143.331 164.987 186.627  0.00  0.00    +0.032 HD
ATOM     31  H   UNL     1     144.467 165.711 185.532  0.00  0.00    +0.032 HD
ATOM     32  H   UNL     1     142.808 167.357 185.866  0.00  0.00    +0.063 HD
ATOM     33  H   UNL     1     141.491 165.322 187.657  0.00  0.00    +0.059 HD
ATOM     34  H   UNL     1     140.612 166.445 188.767  0.00  0.00    +0.059 HD
ATOM     35  H   UNL     1     142.845 169.469 188.010  0.00  0.00    +0.063 HD
ATOM     36  H   UNL     1     142.969 168.854 190.290  0.00  0.00    +0.032 HD
ATOM     37  H   UNL     1     141.401 168.072 190.307  0.00  0.00    +0.032 HD
ATOM     38  H   UNL     1     141.586 170.263 191.453  0.00  0.00    +0.060 HD
ATOM     39  H   UNL     1     139.394 169.329 190.970  0.00  0.00    +0.033 HD
ATOM     40  H   UNL     1     139.386 169.976 189.325  0.00  0.00    +0.033 HD
ATOM     41  H   UNL     1     138.147 171.464 191.138  0.00  0.00    +0.057 HD
ATOM     42  H   UNL     1     139.500 173.486 191.174  0.00  0.00    +0.059 HD
ATOM     43  H   UNL     1     141.387 173.354 189.536  0.00  0.00    +0.064 HD
ATOM     44  H   UNL     1     141.862 173.700 192.141  0.00  0.00    +0.032 HD
ATOM     45  H   UNL     1     142.620 172.111 192.021  0.00  0.00    +0.032 HD
ATOM     46  H   UNL     1     143.715 173.388 189.796  0.00  0.00    +0.063 HD
ATOM     47  H   UNL     1     144.695 173.395 192.711  0.00  0.00    +0.066 HD
ATOM     48  H   UNL     1     145.316 171.237 192.257  0.00  0.00    +0.060 HD
ATOM     49  H   UNL     1     146.178 169.404 191.147  0.00  0.00    +0.062 HD
ATOM     50  H   UNL     1     146.807 169.747 188.154  0.00  0.00    +0.069 HD
ENDROOT
BRANCH  21  51
ATOM     51  C   UNL     1     145.985 172.137 188.946  0.00  0.00    -0.040 C 
ATOM     52  H   UNL     1     145.886 173.210 189.144  0.00  0.00    +0.028 HD
ATOM     53  H   UNL     1     145.221 171.844 188.221  0.00  0.00    +0.028 HD
ATOM     54  H   UNL     1     146.940 171.985 188.441  0.00  0.00    +0.028 HD
ENDBRANCH  21  51
BRANCH   2  55
ATOM     55  C   UNL     1     146.986 164.115 186.254  0.00  0.00    -0.057 C 
ATOM     56  H   UNL     1     147.987 163.803 186.571  0.00  0.00    +0.023 HD
ATOM     57  H   UNL     1     146.294 163.347 186.610  0.00  0.00    +0.023 HD
ATOM     58  H   UNL     1     146.954 164.110 185.159  0.00  0.00    +0.023 HD
ENDBRANCH   2  55
BRANCH   1  59
ATOM     59  C   UNL     1     149.200 166.018 187.139  0.00  0.00    +0.020 C 
ATOM     60  H   UNL     1     149.364 164.984 186.812  0.00  0.00    +0.036 HD
BRANCH  59  61
ATOM     61  C   UNL     1     149.367 166.887 185.890  0.00  0.00    -0.057 C 
ATOM     62  H   UNL     1     148.471 167.484 185.697  0.00  0.00    +0.023 HD
ATOM     63  H   UNL     1     150.190 167.597 186.004  0.00  0.00    +0.023 HD
ATOM     64  H   UNL     1     149.593 166.285 185.008  0.00  0.00    +0.023 HD
ENDBRANCH  59  61
BRANCH  59  65
ATOM     65  C   UNL     1     150.286 166.293 188.225  0.00  0.00    +0.064 C 
ATOM     66  H   UNL     1     150.340 167.382 188.348  0.00  0.00    +0.060 HD
BRANCH  65  67
ATOM     67  C   UNL     1     151.733 165.757 187.992  0.00  0.00    -0.017 C 
ATOM     68  H   UNL     1     151.695 164.923 187.288  0.00  0.00    +0.032 HD
BRANCH  67  69
ATOM     69  C   UNL     1     152.541 166.873 187.304  0.00  0.00    -0.060 C 
ATOM     70  H   UNL     1     153.315 166.463 186.650  0.00  0.00    +0.023 HD
ATOM     71  H   UNL     1     153.032 167.525 188.038  0.00  0.00    +0.023 HD
ATOM     72  H   UNL     1     151.888 167.496 186.682  0.00  0.00    +0.023 HD
ENDBRANCH  67  69
BRANCH  67  73
ATOM     73  C   UNL     1     152.491 165.317 189.273  0.00  0.00    -0.046 C 
ATOM     74  H   UNL     1     153.261 164.583 189.026  0.00  0.00    +0.027 HD
ATOM     75  H   UNL     1     151.817 164.807 189.973  0.00  0.00    +0.027 HD
BRANCH  73  76
ATOM     76  C   UNL     1     153.199 166.460 190.027  0.00  0.00    -0.026 C 
ATOM     77  H   UNL     1     154.199 166.103 190.307  0.00  0.00    +0.029 HD
ATOM     78  H   UNL     1     153.342 167.308 189.350  0.00  0.00    +0.029 HD
BRANCH  76  83
ATOM     79  C   UNL     1     150.861 166.304 192.949  0.00  0.00    +0.059 C 
ATOM     80  C   UNL     1     150.243 167.700 192.875  0.00  0.00    -0.000 C 
ATOM     81  C   UNL     1     150.320 168.265 191.464  0.00  0.00    +0.063 C 
ATOM     82  C   UNL     1     151.780 168.286 191.021  0.00  0.00    -0.000 C 
ATOM     83  C   UNL     1     152.499 166.957 191.306  0.00  0.00    +0.061 C 
ATOM     84  O   UNL     1     151.573 165.967 191.752  0.00  0.00    -0.373 OA
ATOM     85  H   UNL     1     150.047 165.571 193.016  0.00  0.00    +0.059 HD
ATOM     86  H   UNL     1     149.198 167.664 193.214  0.00  0.00    +0.032 HD
ATOM     87  H   UNL     1     150.734 168.391 193.577  0.00  0.00    +0.032 HD
ATOM     88  H   UNL     1     149.728 167.633 190.791  0.00  0.00    +0.060 HD
ATOM     89  H   UNL     1     151.835 168.547 189.956  0.00  0.00    +0.032 HD
ATOM     90  H   UNL     1     152.319 169.100 191.525  0.00  0.00    +0.032 HD
ATOM     91  H   UNL     1     153.265 167.108 192.075  0.00  0.00    +0.060 HD
BRANCH  79  92
ATOM     92  C   UNL     1     151.726 166.123 194.194  0.00  0.00    -0.039 C 
ATOM     93  H   UNL     1     152.791 166.091 193.946  0.00  0.00    +0.025 HD
ATOM     94  H   UNL     1     151.566 166.946 194.896  0.00  0.00    +0.025 HD
ATOM     95  H   UNL     1     151.485 165.180 194.696  0.00  0.00    +0.025 HD
ENDBRANCH  79  92
BRANCH  81  96
ATOM     96  O   UNL     1     149.760 169.583 191.487  0.00  0.00    -0.380 OA
BRANCH  96  97
ATOM     97  C   UNL     1     150.692 170.585 191.882  0.00  0.00    +0.037 C 
ATOM     98  H   UNL     1     151.569 170.579 191.228  0.00  0.00    +0.052 HD
ATOM     99  H   UNL     1     150.201 171.558 191.796  0.00  0.00    +0.052 HD
ATOM    100  H   UNL     1     150.994 170.445 192.924  0.00  0.00    +0.052 HD
ENDBRANCH  96  97
ENDBRANCH  81  96
ENDBRANCH  76  83
ENDBRANCH  73  76
ENDBRANCH  67  73
ENDBRANCH  65  67
BRANCH  65 101
ATOM    101  O   UNL     1     149.811 165.792 189.485  0.00  0.00    -0.391 OA
ATOM    102  H   UNL     1     149.777 164.823 189.419  0.00  0.00    +0.210 HD
ENDBRANCH  65 101
ENDBRANCH  59  65
ENDBRANCH   1  59
BRANCH  19 103
ATOM    103  O   UNL     1     145.940 174.189 191.333  0.00  0.00    -0.385 OA
ATOM    104  H   UNL     1     145.735 174.512 190.436  0.00  0.00    +0.210 HD
ENDBRANCH  19 103
BRANCH  18 105
ATOM    105  O   UNL     1     143.431 175.096 190.966  0.00  0.00    -0.377 OA
BRANCH 105 106
ATOM    106  C   UNL     1     142.808 175.477 192.189  0.00  0.00    +0.037 C 
ATOM    107  H   UNL     1     142.752 174.625 192.874  0.00  0.00    +0.052 HD
ATOM    108  H   UNL     1     141.791 175.810 191.965  0.00  0.00    +0.052 HD
ATOM    109  H   UNL     1     143.352 176.305 192.655  0.00  0.00    +0.052 HD
ENDBRANCH 105 106
ENDBRANCH  18 105
BRANCH   9 110
ATOM    110  O   UNL     1     140.839 168.985 187.698  0.00  0.00    -0.377 OA
BRANCH 110 111
ATOM    111  C   UNL     1     140.957 169.889 186.609  0.00  0.00    +0.037 C 
ATOM    112  H   UNL     1     142.017 170.021 186.383  0.00  0.00    +0.052 HD
ATOM    113  H   UNL     1     140.533 170.861 186.874  0.00  0.00    +0.052 HD
ATOM    114  H   UNL     1     140.461 169.492 185.719  0.00  0.00    +0.052 HD
ENDBRANCH 110 111
ENDBRANCH   9 110
BRANCH   5 115
ATOM    115  O   UNL     1     144.478 168.163 186.801  0.00  0.00    -0.377 OA
BRANCH 115 116
ATOM    116  C   UNL     1     144.788 168.728 185.535  0.00  0.00    +0.037 C 
ATOM    117  H   UNL     1     144.697 169.818 185.572  0.00  0.00    +0.052 HD
ATOM    118  H   UNL     1     144.140 168.322 184.752  0.00  0.00    +0.052 HD
ATOM    119  H   UNL     1     145.824 168.476 185.296  0.00  0.00    +0.052 HD
ENDBRANCH 115 116
ENDBRANCH   5 115
BRANCH   3 120
ATOM    120  O   UNL     1     145.009 164.170 188.088  0.00  0.00    -0.379 OA
BRANCH 120 121
ATOM    121  C   UNL     1     145.322 164.064 189.471  0.00  0.00    +0.037 C 
ATOM    122  H   UNL     1     146.393 163.911 189.618  0.00  0.00    +0.052 HD
ATOM    123  H   UNL     1     144.985 164.949 190.017  0.00  0.00    +0.052 HD
ATOM    124  H   UNL     1     144.794 163.195 189.874  0.00  0.00    +0.052 HD
ENDBRANCH 120 121
ENDBRANCH   3 120
TORSDOF 23
ENDMDL
MODEL 7
REMARK VINA RESULT:      -5.1      3.987     11.504
REMARK  Name = Lobophorolide_conf2
REMARK  23 active torsions:
REMARK  status: ('A' for Active; 'I' for Inactive)
REMARK    1  A    between atoms: C_1  and  C_2
REMARK    2  A    between atoms: C_4  and  O_53
REMARK    3  A    between atoms: C_6  and  C_8
REMARK    4  A    between atoms: C_8  and  C_9
REMARK    5  A    between atoms: C_9  and  C_10
REMARK    6  A    between atoms: C_10  and  C_11
REMARK    7  A    between atoms: C_10  and  C_12
REMARK    8  A    between atoms: C_12  and  C_13
REMARK    9  A    between atoms: C_12  and  O_52
REMARK   10  A    between atoms: C_13  and  C_14
REMARK   11  A    between atoms: C_13  and  C_15
REMARK   12  A    between atoms: C_16  and  C_51
REMARK   13  A    between atoms: C_17  and  O_49
REMARK   14  A    between atoms: C_19  and  O_47
REMARK   15  A    between atoms: C_23  and  O_45
REMARK   16  A    between atoms: C_32  and  O_43
REMARK   17  A    between atoms: C_33  and  O_42
REMARK   18  A    between atoms: C_35  and  C_41
REMARK   19  A    between atoms: O_43  and  C_44
REMARK   20  A    between atoms: O_45  and  C_46
REMARK   21  A    between atoms: O_47  and  C_48
REMARK   22  A    between atoms: O_49  and  C_50
REMARK   23  A    between atoms: O_53  and  C_54
REMARK                            x       y       z     vdW  Elec       q    Type
REMARK                         _______ _______ _______ _____ _____    ______ ____
ROOT
ATOM      1  C   UNL     1     147.418 165.947 190.603  0.00  0.00    +0.113 C 
ATOM      2  C   UNL     1     148.234 166.960 189.744  0.00  0.00    +0.020 C 
ATOM      3  C   UNL     1     149.771 166.846 190.027  0.00  0.00    +0.067 C 
ATOM      4  C   UNL     1     150.605 167.094 188.744  0.00  0.00    +0.003 C 
ATOM      5  C   UNL     1     151.268 165.817 188.169  0.00  0.00    +0.094 C 
ATOM      6  C   UNL     1     152.489 165.304 188.929  0.00  0.00    +0.145 C 
ATOM      7  C   UNL     1     153.525 166.312 189.425  0.00  0.00    +0.083 C 
ATOM      8  O   UNL     1     152.583 165.696 190.310  0.00  0.00    -0.363 OA
ATOM      9  C   UNL     1     153.007 163.902 188.586  0.00  0.00    +0.094 C 
ATOM     10  C   UNL     1     153.576 163.167 189.817  0.00  0.00    +0.003 C 
ATOM     11  C   UNL     1     154.350 161.859 189.585  0.00  0.00    +0.065 C 
ATOM     12  C   UNL     1     155.807 162.097 189.152  0.00  0.00    -0.008 C 
ATOM     13  C   UNL     1     156.487 160.789 188.892  0.00  0.00    -0.083 C 
ATOM     14  C   UNL     1     155.765 159.689 188.653  0.00  0.00    -0.059 C 
ATOM     15  C   UNL     1     154.255 159.678 188.576  0.00  0.00    +0.080 C 
ATOM     16  O   UNL     1     153.678 160.999 188.652  0.00  0.00    -0.369 OA
ATOM     17  C   UNL     1     153.628 158.772 189.648  0.00  0.00    +0.006 C 
ATOM     18  C   UNL     1     152.249 158.263 189.191  0.00  0.00    +0.090 C 
ATOM     19  C   UNL     1     151.245 158.166 190.367  0.00  0.00    +0.100 C 
ATOM     20  C   UNL     1     150.709 159.492 190.837  0.00  0.00    -0.051 C 
ATOM     21  C   UNL     1     149.932 160.369 190.165  0.00  0.00    -0.052 C 
ATOM     22  C   UNL     1     149.542 161.619 190.821  0.00  0.00    -0.052 C 
ATOM     23  C   UNL     1     148.806 162.589 190.261  0.00  0.00    +0.023 C 
ATOM     24  C   UNL     1     148.467 163.820 191.001  0.00  0.00    +0.332 C 
ATOM     25  O   UNL     1     148.754 164.061 192.161  0.00  0.00    -0.246 OA
ATOM     26  O   UNL     1     147.794 164.629 190.144  0.00  0.00    -0.458 OA
ATOM     27  H   UNL     1     147.683 166.089 191.657  0.00  0.00    +0.074 HD
ATOM     28  H   UNL     1     148.075 166.666 188.699  0.00  0.00    +0.036 HD
ATOM     29  H   UNL     1     150.027 165.862 190.433  0.00  0.00    +0.060 HD
ATOM     30  H   UNL     1     151.356 167.868 188.920  0.00  0.00    +0.032 HD
ATOM     31  H   UNL     1     149.951 167.506 187.966  0.00  0.00    +0.032 HD
ATOM     32  H   UNL     1     151.627 166.053 187.159  0.00  0.00    +0.063 HD
ATOM     33  H   UNL     1     153.412 167.363 189.205  0.00  0.00    +0.059 HD
ATOM     34  H   UNL     1     154.563 166.000 189.494  0.00  0.00    +0.059 HD
ATOM     35  H   UNL     1     152.189 163.283 188.194  0.00  0.00    +0.063 HD
ATOM     36  H   UNL     1     152.723 162.946 190.473  0.00  0.00    +0.032 HD
ATOM     37  H   UNL     1     154.235 163.827 190.393  0.00  0.00    +0.032 HD
ATOM     38  H   UNL     1     154.370 161.357 190.561  0.00  0.00    +0.060 HD
ATOM     39  H   UNL     1     156.341 162.640 189.941  0.00  0.00    +0.033 HD
ATOM     40  H   UNL     1     155.877 162.688 188.235  0.00  0.00    +0.033 HD
ATOM     41  H   UNL     1     157.571 160.758 188.898  0.00  0.00    +0.057 HD
ATOM     42  H   UNL     1     156.273 158.746 188.468  0.00  0.00    +0.059 HD
ATOM     43  H   UNL     1     153.999 159.297 187.581  0.00  0.00    +0.064 HD
ATOM     44  H   UNL     1     154.282 157.915 189.848  0.00  0.00    +0.032 HD
ATOM     45  H   UNL     1     153.530 159.333 190.584  0.00  0.00    +0.032 HD
ATOM     46  H   UNL     1     151.841 158.909 188.405  0.00  0.00    +0.063 HD
ATOM     47  H   UNL     1     151.729 157.662 191.214  0.00  0.00    +0.066 HD
ATOM     48  H   UNL     1     151.018 159.743 191.850  0.00  0.00    +0.060 HD
ATOM     49  H   UNL     1     149.886 161.757 191.844  0.00  0.00    +0.062 HD
ATOM     50  H   UNL     1     148.430 162.538 189.248  0.00  0.00    +0.069 HD
ENDROOT
BRANCH  21  51
ATOM     51  C   UNL     1     149.430 160.134 188.760  0.00  0.00    -0.040 C 
ATOM     52  H   UNL     1     148.893 159.181 188.703  0.00  0.00    +0.028 HD
ATOM     53  H   UNL     1     150.257 160.112 188.046  0.00  0.00    +0.028 HD
ATOM     54  H   UNL     1     148.755 160.913 188.401  0.00  0.00    +0.028 HD
ENDBRANCH  21  51
BRANCH   2  55
ATOM     55  C   UNL     1     147.751 168.409 189.904  0.00  0.00    -0.057 C 
ATOM     56  H   UNL     1     146.695 168.503 189.630  0.00  0.00    +0.023 HD
ATOM     57  H   UNL     1     147.836 168.756 190.937  0.00  0.00    +0.023 HD
ATOM     58  H   UNL     1     148.333 169.093 189.275  0.00  0.00    +0.023 HD
ENDBRANCH   2  55
BRANCH   1  59
ATOM     59  C   UNL     1     145.868 166.082 190.491  0.00  0.00    +0.020 C 
ATOM     60  H   UNL     1     145.664 167.046 190.013  0.00  0.00    +0.036 HD
BRANCH  59  61
ATOM     61  C   UNL     1     145.249 165.019 189.581  0.00  0.00    -0.057 C 
ATOM     62  H   UNL     1     145.462 164.009 189.944  0.00  0.00    +0.023 HD
ATOM     63  H   UNL     1     144.161 165.108 189.544  0.00  0.00    +0.023 HD
ATOM     64  H   UNL     1     145.606 165.112 188.554  0.00  0.00    +0.023 HD
ENDBRANCH  59  61
BRANCH  59  65
ATOM     65  C   UNL     1     145.190 166.155 191.894  0.00  0.00    +0.064 C 
ATOM     66  H   UNL     1     145.397 165.200 192.395  0.00  0.00    +0.060 HD
BRANCH  65  67
ATOM     67  C   UNL     1     143.655 166.424 191.972  0.00  0.00    -0.017 C 
ATOM     68  H   UNL     1     143.122 165.476 191.879  0.00  0.00    +0.032 HD
BRANCH  67  69
ATOM     69  C   UNL     1     143.344 166.964 193.381  0.00  0.00    -0.060 C 
ATOM     70  H   UNL     1     142.548 167.711 193.358  0.00  0.00    +0.023 HD
ATOM     71  H   UNL     1     144.228 167.428 193.838  0.00  0.00    +0.023 HD
ATOM     72  H   UNL     1     143.009 166.154 194.040  0.00  0.00    +0.023 HD
ENDBRANCH  67  69
BRANCH  67  73
ATOM     73  C   UNL     1     143.105 167.431 190.927  0.00  0.00    -0.046 C 
ATOM     74  H   UNL     1     142.049 167.234 190.729  0.00  0.00    +0.027 HD
ATOM     75  H   UNL     1     143.609 167.308 189.960  0.00  0.00    +0.027 HD
BRANCH  73  76
ATOM     76  C   UNL     1     143.206 168.911 191.342  0.00  0.00    -0.026 C 
ATOM     77  H   UNL     1     142.276 169.407 191.033  0.00  0.00    +0.029 HD
ATOM     78  H   UNL     1     143.254 168.981 192.434  0.00  0.00    +0.029 HD
BRANCH  76  83
ATOM     79  C   UNL     1     145.386 171.892 190.718  0.00  0.00    +0.059 C 
ATOM     80  C   UNL     1     145.559 171.787 189.202  0.00  0.00    -0.000 C 
ATOM     81  C   UNL     1     144.408 171.022 188.566  0.00  0.00    +0.063 C 
ATOM     82  C   UNL     1     144.320 169.640 189.206  0.00  0.00    -0.000 C 
ATOM     83  C   UNL     1     144.385 169.700 190.741  0.00  0.00    +0.061 C 
ATOM     84  O   UNL     1     144.330 171.051 191.197  0.00  0.00    -0.373 OA
ATOM     85  H   UNL     1     145.070 172.915 190.957  0.00  0.00    +0.059 HD
ATOM     86  H   UNL     1     145.637 172.792 188.764  0.00  0.00    +0.032 HD
ATOM     87  H   UNL     1     146.513 171.302 188.943  0.00  0.00    +0.032 HD
ATOM     88  H   UNL     1     143.475 171.575 188.728  0.00  0.00    +0.060 HD
ATOM     89  H   UNL     1     143.406 169.137 188.866  0.00  0.00    +0.032 HD
ATOM     90  H   UNL     1     145.133 168.999 188.839  0.00  0.00    +0.032 HD
ATOM     91  H   UNL     1     145.315 169.238 191.092  0.00  0.00    +0.060 HD
BRANCH  79  92
ATOM     92  C   UNL     1     146.693 171.644 191.465  0.00  0.00    -0.039 C 
ATOM     93  H   UNL     1     146.729 170.639 191.895  0.00  0.00    +0.025 HD
ATOM     94  H   UNL     1     147.548 171.756 190.792  0.00  0.00    +0.025 HD
ATOM     95  H   UNL     1     146.803 172.352 192.294  0.00  0.00    +0.025 HD
ENDBRANCH  79  92
BRANCH  81  96
ATOM     96  O   UNL     1     144.664 170.932 187.159  0.00  0.00    -0.380 OA
BRANCH  96  97
ATOM     97  C   UNL     1     146.049 170.830 186.843  0.00  0.00    +0.037 C 
ATOM     98  H   UNL     1     146.307 171.492 186.011  0.00  0.00    +0.052 HD
ATOM     99  H   UNL     1     146.621 171.139 187.722  0.00  0.00    +0.052 HD
ATOM    100  H   UNL     1     146.318 169.797 186.606  0.00  0.00    +0.052 HD
ENDBRANCH  96  97
ENDBRANCH  81  96
ENDBRANCH  76  83
ENDBRANCH  73  76
ENDBRANCH  67  73
ENDBRANCH  65  67
BRANCH  65 101
ATOM    101  O   UNL     1     145.868 167.149 192.680  0.00  0.00    -0.391 OA
ATOM    102  H   UNL     1     145.215 167.535 193.288  0.00  0.00    +0.210 HD
ENDBRANCH  65 101
ENDBRANCH  59  65
ENDBRANCH   1  59
BRANCH  19 103
ATOM    103  O   UNL     1     150.139 157.334 190.012  0.00  0.00    -0.385 OA
ATOM    104  H   UNL     1     150.538 156.463 189.832  0.00  0.00    +0.210 HD
ENDBRANCH  19 103
BRANCH  18 105
ATOM    105  O   UNL     1     152.435 156.923 188.666  0.00  0.00    -0.377 OA
BRANCH 105 106
ATOM    106  C   UNL     1     153.527 156.243 189.279  0.00  0.00    +0.037 C 
ATOM    107  H   UNL     1     153.512 155.179 189.020  0.00  0.00    +0.052 HD
ATOM    108  H   UNL     1     153.424 156.338 190.363  0.00  0.00    +0.052 HD
ATOM    109  H   UNL     1     154.478 156.694 188.977  0.00  0.00    +0.052 HD
ENDBRANCH 105 106
ENDBRANCH  18 105
BRANCH   9 110
ATOM    110  O   UNL     1     154.027 164.067 187.591  0.00  0.00    -0.377 OA
BRANCH 110 111
ATOM    111  C   UNL     1     153.599 163.654 186.302  0.00  0.00    +0.037 C 
ATOM    112  H   UNL     1     152.536 163.407 186.354  0.00  0.00    +0.052 HD
ATOM    113  H   UNL     1     154.149 162.763 185.985  0.00  0.00    +0.052 HD
ATOM    114  H   UNL     1     153.731 164.456 185.571  0.00  0.00    +0.052 HD
ENDBRANCH 110 111
ENDBRANCH   9 110
BRANCH   5 115
ATOM    115  O   UNL     1     150.288 164.769 188.091  0.00  0.00    -0.377 OA
BRANCH 115 116
ATOM    116  C   UNL     1     149.564 164.768 186.868  0.00  0.00    +0.037 C 
ATOM    117  H   UNL     1     150.184 165.162 186.058  0.00  0.00    +0.052 HD
ATOM    118  H   UNL     1     148.642 165.350 186.954  0.00  0.00    +0.052 HD
ATOM    119  H   UNL     1     149.303 163.733 186.630  0.00  0.00    +0.052 HD
ENDBRANCH 115 116
ENDBRANCH   5 115
BRANCH   3 120
ATOM    120  O   UNL     1     150.167 167.863 190.970  0.00  0.00    -0.379 OA
BRANCH 120 121
ATOM    121  C   UNL     1     150.354 167.368 192.291  0.00  0.00    +0.037 C 
ATOM    122  H   UNL     1     149.397 167.112 192.750  0.00  0.00    +0.052 HD
ATOM    123  H   UNL     1     151.022 166.502 192.292  0.00  0.00    +0.052 HD
ATOM    124  H   UNL     1     150.820 168.157 192.888  0.00  0.00    +0.052 HD
ENDBRANCH 120 121
ENDBRANCH   3 120
TORSDOF 23
ENDMDL
MODEL 8
REMARK VINA RESULT:      -5.1      3.482      6.561
REMARK  Name = Lobophorolide_conf2
REMARK  23 active torsions:
REMARK  status: ('A' for Active; 'I' for Inactive)
REMARK    1  A    between atoms: C_1  and  C_2
REMARK    2  A    between atoms: C_4  and  O_53
REMARK    3  A    between atoms: C_6  and  C_8
REMARK    4  A    between atoms: C_8  and  C_9
REMARK    5  A    between atoms: C_9  and  C_10
REMARK    6  A    between atoms: C_10  and  C_11
REMARK    7  A    between atoms: C_10  and  C_12
REMARK    8  A    between atoms: C_12  and  C_13
REMARK    9  A    between atoms: C_12  and  O_52
REMARK   10  A    between atoms: C_13  and  C_14
REMARK   11  A    between atoms: C_13  and  C_15
REMARK   12  A    between atoms: C_16  and  C_51
REMARK   13  A    between atoms: C_17  and  O_49
REMARK   14  A    between atoms: C_19  and  O_47
REMARK   15  A    between atoms: C_23  and  O_45
REMARK   16  A    between atoms: C_32  and  O_43
REMARK   17  A    between atoms: C_33  and  O_42
REMARK   18  A    between atoms: C_35  and  C_41
REMARK   19  A    between atoms: O_43  and  C_44
REMARK   20  A    between atoms: O_45  and  C_46
REMARK   21  A    between atoms: O_47  and  C_48
REMARK   22  A    between atoms: O_49  and  C_50
REMARK   23  A    between atoms: O_53  and  C_54
REMARK                            x       y       z     vdW  Elec       q    Type
REMARK                         _______ _______ _______ _____ _____    ______ ____
ROOT
ATOM      1  C   UNL     1     151.518 164.493 188.927  0.00  0.00    +0.113 C 
ATOM      2  C   UNL     1     150.853 164.220 190.309  0.00  0.00    +0.020 C 
ATOM      3  C   UNL     1     150.466 165.554 191.035  0.00  0.00    +0.067 C 
ATOM      4  C   UNL     1     149.153 165.401 191.843  0.00  0.00    +0.003 C 
ATOM      5  C   UNL     1     147.942 166.140 191.220  0.00  0.00    +0.094 C 
ATOM      6  C   UNL     1     147.934 167.658 191.388  0.00  0.00    +0.145 C 
ATOM      7  C   UNL     1     148.332 168.252 192.739  0.00  0.00    +0.083 C 
ATOM      8  O   UNL     1     149.214 168.275 191.611  0.00  0.00    -0.363 OA
ATOM      9  C   UNL     1     146.929 168.464 190.556  0.00  0.00    +0.094 C 
ATOM     10  C   UNL     1     147.486 169.838 190.128  0.00  0.00    +0.003 C 
ATOM     11  C   UNL     1     146.513 170.850 189.502  0.00  0.00    +0.065 C 
ATOM     12  C   UNL     1     145.679 171.603 190.553  0.00  0.00    -0.008 C 
ATOM     13  C   UNL     1     144.719 172.532 189.879  0.00  0.00    -0.083 C 
ATOM     14  C   UNL     1     144.384 172.343 188.597  0.00  0.00    -0.059 C 
ATOM     15  C   UNL     1     144.889 171.190 187.761  0.00  0.00    +0.080 C 
ATOM     16  O   UNL     1     145.660 170.237 188.524  0.00  0.00    -0.369 OA
ATOM     17  C   UNL     1     145.703 171.667 186.548  0.00  0.00    +0.006 C 
ATOM     18  C   UNL     1     145.652 170.627 185.414  0.00  0.00    +0.090 C 
ATOM     19  C   UNL     1     146.996 170.534 184.649  0.00  0.00    +0.100 C 
ATOM     20  C   UNL     1     148.087 169.813 185.395  0.00  0.00    -0.051 C 
ATOM     21  C   UNL     1     148.135 168.514 185.762  0.00  0.00    -0.052 C 
ATOM     22  C   UNL     1     149.301 168.030 186.506  0.00  0.00    -0.052 C 
ATOM     23  C   UNL     1     149.463 166.780 186.962  0.00  0.00    +0.023 C 
ATOM     24  C   UNL     1     150.674 166.386 187.708  0.00  0.00    +0.332 C 
ATOM     25  O   UNL     1     151.637 167.097 187.937  0.00  0.00    -0.246 OA
ATOM     26  O   UNL     1     150.500 165.097 188.098  0.00  0.00    -0.458 OA
ATOM     27  H   UNL     1     152.365 165.175 189.075  0.00  0.00    +0.074 HD
ATOM     28  H   UNL     1     149.918 163.687 190.094  0.00  0.00    +0.036 HD
ATOM     29  H   UNL     1     150.351 166.375 190.320  0.00  0.00    +0.060 HD
ATOM     30  H   UNL     1     149.302 165.717 192.878  0.00  0.00    +0.032 HD
ATOM     31  H   UNL     1     148.893 164.338 191.908  0.00  0.00    +0.032 HD
ATOM     32  H   UNL     1     147.035 165.783 191.725  0.00  0.00    +0.063 HD
ATOM     33  H   UNL     1     148.576 167.605 193.568  0.00  0.00    +0.059 HD
ATOM     34  H   UNL     1     147.881 169.189 193.049  0.00  0.00    +0.059 HD
ATOM     35  H   UNL     1     146.680 167.920 189.635  0.00  0.00    +0.063 HD
ATOM     36  H   UNL     1     148.286 169.640 189.400  0.00  0.00    +0.032 HD
ATOM     37  H   UNL     1     147.967 170.342 190.974  0.00  0.00    +0.032 HD
ATOM     38  H   UNL     1     147.148 171.585 188.992  0.00  0.00    +0.060 HD
ATOM     39  H   UNL     1     146.345 172.175 191.210  0.00  0.00    +0.033 HD
ATOM     40  H   UNL     1     145.093 170.928 191.181  0.00  0.00    +0.033 HD
ATOM     41  H   UNL     1     144.300 173.352 190.453  0.00  0.00    +0.057 HD
ATOM     42  H   UNL     1     143.687 173.028 188.120  0.00  0.00    +0.059 HD
ATOM     43  H   UNL     1     144.002 170.647 187.414  0.00  0.00    +0.064 HD
ATOM     44  H   UNL     1     145.309 172.623 186.180  0.00  0.00    +0.032 HD
ATOM     45  H   UNL     1     146.741 171.840 186.853  0.00  0.00    +0.032 HD
ATOM     46  H   UNL     1     145.379 169.641 185.808  0.00  0.00    +0.063 HD
ATOM     47  H   UNL     1     147.345 171.547 184.407  0.00  0.00    +0.066 HD
ATOM     48  H   UNL     1     148.922 170.459 185.661  0.00  0.00    +0.060 HD
ATOM     49  H   UNL     1     150.089 168.756 186.698  0.00  0.00    +0.062 HD
ATOM     50  H   UNL     1     148.728 165.999 186.823  0.00  0.00    +0.069 HD
ENDROOT
BRANCH  21  51
ATOM     51  C   UNL     1     147.048 167.515 185.446  0.00  0.00    -0.040 C 
ATOM     52  H   UNL     1     147.310 166.938 184.553  0.00  0.00    +0.028 HD
ATOM     53  H   UNL     1     146.093 168.017 185.270  0.00  0.00    +0.028 HD
ATOM     54  H   UNL     1     146.860 166.804 186.252  0.00  0.00    +0.028 HD
ENDBRANCH  21  51
BRANCH   2  55
ATOM     55  C   UNL     1     151.707 163.325 191.221  0.00  0.00    -0.057 C 
ATOM     56  H   UNL     1     152.620 163.842 191.532  0.00  0.00    +0.023 HD
ATOM     57  H   UNL     1     151.177 163.052 192.136  0.00  0.00    +0.023 HD
ATOM     58  H   UNL     1     151.993 162.398 190.711  0.00  0.00    +0.023 HD
ENDBRANCH   2  55
BRANCH   1  59
ATOM     59  C   UNL     1     152.063 163.230 188.192  0.00  0.00    +0.020 C 
ATOM     60  H   UNL     1     152.174 162.443 188.948  0.00  0.00    +0.036 HD
BRANCH  59  61
ATOM     61  C   UNL     1     151.080 162.683 187.155  0.00  0.00    -0.057 C 
ATOM     62  H   UNL     1     150.963 163.372 186.313  0.00  0.00    +0.023 HD
ATOM     63  H   UNL     1     151.429 161.738 186.732  0.00  0.00    +0.023 HD
ATOM     64  H   UNL     1     150.100 162.486 187.594  0.00  0.00    +0.023 HD
ENDBRANCH  59  61
BRANCH  59  65
ATOM     65  C   UNL     1     153.493 163.465 187.615  0.00  0.00    +0.064 C 
ATOM     66  H   UNL     1     153.483 163.088 186.584  0.00  0.00    +0.060 HD
BRANCH  65  67
ATOM     67  C   UNL     1     154.714 162.834 188.354  0.00  0.00    -0.017 C 
ATOM     68  H   UNL     1     155.428 162.469 187.613  0.00  0.00    +0.032 HD
BRANCH  67  69
ATOM     69  C   UNL     1     155.424 163.958 189.130  0.00  0.00    -0.060 C 
ATOM     70  H   UNL     1     156.339 163.599 189.609  0.00  0.00    +0.023 HD
ATOM     71  H   UNL     1     154.778 164.378 189.913  0.00  0.00    +0.023 HD
ATOM     72  H   UNL     1     155.711 164.773 188.455  0.00  0.00    +0.023 HD
ENDBRANCH  67  69
BRANCH  67  73
ATOM     73  C   UNL     1     154.369 161.691 189.346  0.00  0.00    -0.046 C 
ATOM     74  H   UNL     1     153.347 161.804 189.713  0.00  0.00    +0.027 HD
ATOM     75  H   UNL     1     155.005 161.740 190.239  0.00  0.00    +0.027 HD
BRANCH  73  76
ATOM     76  C   UNL     1     154.470 160.272 188.755  0.00  0.00    -0.026 C 
ATOM     77  H   UNL     1     154.676 160.374 187.682  0.00  0.00    +0.029 HD
ATOM     78  H   UNL     1     155.330 159.755 189.195  0.00  0.00    +0.029 HD
BRANCH  76  83
ATOM     79  C   UNL     1     151.239 158.669 187.749  0.00  0.00    +0.059 C 
ATOM     80  C   UNL     1     150.421 158.889 189.021  0.00  0.00    -0.000 C 
ATOM     81  C   UNL     1     150.943 160.076 189.816  0.00  0.00    +0.063 C 
ATOM     82  C   UNL     1     152.415 159.843 190.142  0.00  0.00    -0.000 C 
ATOM     83  C   UNL     1     153.222 159.385 188.917  0.00  0.00    +0.061 C 
ATOM     84  O   UNL     1     152.431 159.464 187.732  0.00  0.00    -0.373 OA
ATOM     85  H   UNL     1     150.647 159.020 186.894  0.00  0.00    +0.059 HD
ATOM     86  H   UNL     1     149.362 159.038 188.763  0.00  0.00    +0.032 HD
ATOM     87  H   UNL     1     150.423 157.990 189.657  0.00  0.00    +0.032 HD
ATOM     88  H   UNL     1     150.827 160.989 189.218  0.00  0.00    +0.060 HD
ATOM     89  H   UNL     1     152.841 160.755 190.581  0.00  0.00    +0.032 HD
ATOM     90  H   UNL     1     152.513 159.091 190.937  0.00  0.00    +0.032 HD
ATOM     91  H   UNL     1     153.557 158.351 189.059  0.00  0.00    +0.060 HD
BRANCH  79  92
ATOM     92  C   UNL     1     151.539 157.192 187.505  0.00  0.00    -0.039 C 
ATOM     93  H   UNL     1     152.549 156.925 187.830  0.00  0.00    +0.025 HD
ATOM     94  H   UNL     1     150.831 156.561 188.050  0.00  0.00    +0.025 HD
ATOM     95  H   UNL     1     151.472 156.956 186.438  0.00  0.00    +0.025 HD
ENDBRANCH  79  92
BRANCH  81  96
ATOM     96  O   UNL     1     150.153 160.191 191.006  0.00  0.00    -0.380 OA
BRANCH  96  97
ATOM     97  C   UNL     1     148.918 160.869 190.799  0.00  0.00    +0.037 C 
ATOM     98  H   UNL     1     148.813 161.174 189.754  0.00  0.00    +0.052 HD
ATOM     99  H   UNL     1     148.107 160.178 191.042  0.00  0.00    +0.052 HD
ATOM    100  H   UNL     1     148.836 161.737 191.459  0.00  0.00    +0.052 HD
ENDBRANCH  96  97
ENDBRANCH  81  96
ENDBRANCH  76  83
ENDBRANCH  73  76
ENDBRANCH  67  73
ENDBRANCH  65  67
BRANCH  65 101
ATOM    101  O   UNL     1     153.712 164.880 187.497  0.00  0.00    -0.391 OA
ATOM    102  H   UNL     1     153.530 165.127 186.575  0.00  0.00    +0.210 HD
ENDBRANCH  65 101
ENDBRANCH  59  65
ENDBRANCH   1  59
BRANCH  19 103
ATOM    103  O   UNL     1     146.809 169.886 183.389  0.00  0.00    -0.385 OA
ATOM    104  H   UNL     1     146.933 170.594 182.730  0.00  0.00    +0.210 HD
ENDBRANCH  19 103
BRANCH  18 105
ATOM    105  O   UNL     1     144.642 171.066 184.469  0.00  0.00    -0.377 OA
BRANCH 105 106
ATOM    106  C   UNL     1     144.624 172.482 184.308  0.00  0.00    +0.037 C 
ATOM    107  H   UNL     1     145.578 172.918 184.621  0.00  0.00    +0.052 HD
ATOM    108  H   UNL     1     143.832 172.888 184.944  0.00  0.00    +0.052 HD
ATOM    109  H   UNL     1     144.407 172.747 183.269  0.00  0.00    +0.052 HD
ENDBRANCH 105 106
ENDBRANCH  18 105
BRANCH   9 110
ATOM    110  O   UNL     1     145.758 168.633 191.366  0.00  0.00    -0.377 OA
BRANCH 110 111
ATOM    111  C   UNL     1     144.684 167.804 190.949  0.00  0.00    +0.037 C 
ATOM    112  H   UNL     1     144.703 167.738 189.858  0.00  0.00    +0.052 HD
ATOM    113  H   UNL     1     143.727 168.236 191.255  0.00  0.00    +0.052 HD
ATOM    114  H   UNL     1     144.789 166.795 191.357  0.00  0.00    +0.052 HD
ENDBRANCH 110 111
ENDBRANCH   9 110
BRANCH   5 115
ATOM    115  O   UNL     1     147.862 165.822 189.821  0.00  0.00    -0.377 OA
BRANCH 115 116
ATOM    116  C   UNL     1     147.126 164.636 189.556  0.00  0.00    +0.037 C 
ATOM    117  H   UNL     1     147.166 164.393 188.490  0.00  0.00    +0.052 HD
ATOM    118  H   UNL     1     146.086 164.735 189.882  0.00  0.00    +0.052 HD
ATOM    119  H   UNL     1     147.590 163.818 190.113  0.00  0.00    +0.052 HD
ENDBRANCH 115 116
ENDBRANCH   5 115
BRANCH   3 120
ATOM    120  O   UNL     1     151.491 165.901 191.990  0.00  0.00    -0.379 OA
BRANCH 120 121
ATOM    121  C   UNL     1     152.352 166.941 191.542  0.00  0.00    +0.037 C 
ATOM    122  H   UNL     1     152.542 166.855 190.471  0.00  0.00    +0.052 HD
ATOM    123  H   UNL     1     151.934 167.923 191.778  0.00  0.00    +0.052 HD
ATOM    124  H   UNL     1     153.306 166.843 192.068  0.00  0.00    +0.052 HD
ENDBRANCH 120 121
ENDBRANCH   3 120
TORSDOF 23
ENDMDL
MODEL 9
REMARK VINA RESULT:      -5.1      2.492      8.993
REMARK  Name = Lobophorolide_conf2
REMARK  23 active torsions:
REMARK  status: ('A' for Active; 'I' for Inactive)
REMARK    1  A    between atoms: C_1  and  C_2
REMARK    2  A    between atoms: C_4  and  O_53
REMARK    3  A    between atoms: C_6  and  C_8
REMARK    4  A    between atoms: C_8  and  C_9
REMARK    5  A    between atoms: C_9  and  C_10
REMARK    6  A    between atoms: C_10  and  C_11
REMARK    7  A    between atoms: C_10  and  C_12
REMARK    8  A    between atoms: C_12  and  C_13
REMARK    9  A    between atoms: C_12  and  O_52
REMARK   10  A    between atoms: C_13  and  C_14
REMARK   11  A    between atoms: C_13  and  C_15
REMARK   12  A    between atoms: C_16  and  C_51
REMARK   13  A    between atoms: C_17  and  O_49
REMARK   14  A    between atoms: C_19  and  O_47
REMARK   15  A    between atoms: C_23  and  O_45
REMARK   16  A    between atoms: C_32  and  O_43
REMARK   17  A    between atoms: C_33  and  O_42
REMARK   18  A    between atoms: C_35  and  C_41
REMARK   19  A    between atoms: O_43  and  C_44
REMARK   20  A    between atoms: O_45  and  C_46
REMARK   21  A    between atoms: O_47  and  C_48
REMARK   22  A    between atoms: O_49  and  C_50
REMARK   23  A    between atoms: O_53  and  C_54
REMARK                            x       y       z     vdW  Elec       q    Type
REMARK                         _______ _______ _______ _____ _____    ______ ____
ROOT
ATOM      1  C   UNL     1     149.171 169.542 191.729  0.00  0.00    +0.113 C 
ATOM      2  C   UNL     1     150.600 168.990 191.445  0.00  0.00    +0.020 C 
ATOM      3  C   UNL     1     150.712 167.471 191.812  0.00  0.00    +0.067 C 
ATOM      4  C   UNL     1     151.648 166.716 190.834  0.00  0.00    +0.003 C 
ATOM      5  C   UNL     1     150.906 165.767 189.860  0.00  0.00    +0.094 C 
ATOM      6  C   UNL     1     150.399 164.461 190.467  0.00  0.00    +0.145 C 
ATOM      7  C   UNL     1     151.302 163.696 191.433  0.00  0.00    +0.083 C 
ATOM      8  O   UNL     1     150.185 164.466 191.889  0.00  0.00    -0.363 OA
ATOM      9  C   UNL     1     149.418 163.622 189.638  0.00  0.00    +0.094 C 
ATOM     10  C   UNL     1     148.375 162.897 190.515  0.00  0.00    +0.003 C 
ATOM     11  C   UNL     1     147.486 161.833 189.851  0.00  0.00    +0.065 C 
ATOM     12  C   UNL     1     148.192 160.474 189.705  0.00  0.00    -0.008 C 
ATOM     13  C   UNL     1     147.294 159.500 189.007  0.00  0.00    -0.083 C 
ATOM     14  C   UNL     1     146.268 159.939 188.268  0.00  0.00    -0.059 C 
ATOM     15  C   UNL     1     145.966 161.402 188.039  0.00  0.00    +0.080 C 
ATOM     16  O   UNL     1     146.974 162.278 188.586  0.00  0.00    -0.369 OA
ATOM     17  C   UNL     1     144.582 161.798 188.580  0.00  0.00    +0.006 C 
ATOM     18  C   UNL     1     144.027 163.015 187.816  0.00  0.00    +0.090 C 
ATOM     19  C   UNL     1     143.232 163.969 188.742  0.00  0.00    +0.100 C 
ATOM     20  C   UNL     1     144.090 164.808 189.653  0.00  0.00    -0.051 C 
ATOM     21  C   UNL     1     144.977 165.770 189.320  0.00  0.00    -0.052 C 
ATOM     22  C   UNL     1     145.720 166.448 190.383  0.00  0.00    -0.052 C 
ATOM     23  C   UNL     1     146.653 167.392 190.195  0.00  0.00    +0.023 C 
ATOM     24  C   UNL     1     147.355 168.017 191.333  0.00  0.00    +0.332 C 
ATOM     25  O   UNL     1     147.142 167.799 192.513  0.00  0.00    -0.246 OA
ATOM     26  O   UNL     1     148.282 168.862 190.815  0.00  0.00    -0.458 OA
ATOM     27  H   UNL     1     148.911 169.322 192.771  0.00  0.00    +0.074 HD
ATOM     28  H   UNL     1     150.745 169.071 190.360  0.00  0.00    +0.036 HD
ATOM     29  H   UNL     1     149.730 166.988 191.807  0.00  0.00    +0.060 HD
ATOM     30  H   UNL     1     152.419 166.173 191.386  0.00  0.00    +0.032 HD
ATOM     31  H   UNL     1     152.198 167.448 190.229  0.00  0.00    +0.032 HD
ATOM     32  H   UNL     1     151.616 165.471 189.076  0.00  0.00    +0.063 HD
ATOM     33  H   UNL     1     152.297 164.056 191.650  0.00  0.00    +0.059 HD
ATOM     34  H   UNL     1     151.222 162.614 191.475  0.00  0.00    +0.059 HD
ATOM     35  H   UNL     1     148.860 164.268 188.948  0.00  0.00    +0.063 HD
ATOM     36  H   UNL     1     147.721 163.675 190.934  0.00  0.00    +0.032 HD
ATOM     37  H   UNL     1     148.858 162.416 191.374  0.00  0.00    +0.032 HD
ATOM     38  H   UNL     1     146.639 161.696 190.536  0.00  0.00    +0.060 HD
ATOM     39  H   UNL     1     148.455 160.087 190.696  0.00  0.00    +0.033 HD
ATOM     40  H   UNL     1     149.112 160.544 189.120  0.00  0.00    +0.033 HD
ATOM     41  H   UNL     1     147.497 158.440 189.110  0.00  0.00    +0.057 HD
ATOM     42  H   UNL     1     145.624 159.220 187.769  0.00  0.00    +0.059 HD
ATOM     43  H   UNL     1     145.992 161.558 186.954  0.00  0.00    +0.064 HD
ATOM     44  H   UNL     1     143.883 160.959 188.480  0.00  0.00    +0.032 HD
ATOM     45  H   UNL     1     144.663 162.029 189.647  0.00  0.00    +0.032 HD
ATOM     46  H   UNL     1     144.839 163.563 187.324  0.00  0.00    +0.063 HD
ATOM     47  H   UNL     1     142.537 163.381 189.355  0.00  0.00    +0.066 HD
ATOM     48  H   UNL     1     143.953 164.570 190.707  0.00  0.00    +0.060 HD
ATOM     49  H   UNL     1     145.487 166.149 191.404  0.00  0.00    +0.062 HD
ATOM     50  H   UNL     1     146.951 167.743 189.216  0.00  0.00    +0.069 HD
ENDROOT
BRANCH  21  51
ATOM     51  C   UNL     1     145.251 166.197 187.898  0.00  0.00    -0.040 C 
ATOM     52  H   UNL     1     145.190 165.337 187.224  0.00  0.00    +0.028 HD
ATOM     53  H   UNL     1     146.244 166.643 187.806  0.00  0.00    +0.028 HD
ATOM     54  H   UNL     1     144.557 166.953 187.527  0.00  0.00    +0.028 HD
ENDBRANCH  21  51
BRANCH   2  55
ATOM     55  C   UNL     1     151.707 169.805 192.130  0.00  0.00    -0.057 C 
ATOM     56  H   UNL     1     152.358 169.156 192.726  0.00  0.00    +0.023 HD
ATOM     57  H   UNL     1     152.350 170.310 191.406  0.00  0.00    +0.023 HD
ATOM     58  H   UNL     1     151.284 170.569 192.792  0.00  0.00    +0.023 HD
ENDBRANCH   2  55
BRANCH   1  59
ATOM     59  C   UNL     1     149.002 171.079 191.524  0.00  0.00    +0.020 C 
ATOM     60  H   UNL     1     149.968 171.464 191.176  0.00  0.00    +0.036 HD
BRANCH  59  61
ATOM     61  C   UNL     1     147.992 171.419 190.426  0.00  0.00    -0.057 C 
ATOM     62  H   UNL     1     147.465 172.353 190.643  0.00  0.00    +0.023 HD
ATOM     63  H   UNL     1     148.483 171.561 189.460  0.00  0.00    +0.023 HD
ATOM     64  H   UNL     1     147.261 170.620 190.291  0.00  0.00    +0.023 HD
ENDBRANCH  59  61
BRANCH  59  65
ATOM     65  C   UNL     1     148.715 171.816 192.869  0.00  0.00    +0.064 C 
ATOM     66  H   UNL     1     148.797 171.064 193.664  0.00  0.00    +0.060 HD
BRANCH  65  67
ATOM     67  C   UNL     1     147.353 172.560 193.041  0.00  0.00    -0.017 C 
ATOM     68  H   UNL     1     146.642 171.892 193.530  0.00  0.00    +0.032 HD
BRANCH  67  69
ATOM     69  C   UNL     1     147.582 173.738 194.005  0.00  0.00    -0.060 C 
ATOM     70  H   UNL     1     146.784 174.481 193.928  0.00  0.00    +0.023 HD
ATOM     71  H   UNL     1     148.534 174.245 193.803  0.00  0.00    +0.023 HD
ATOM     72  H   UNL     1     147.599 173.389 195.045  0.00  0.00    +0.023 HD
ENDBRANCH  67  69
BRANCH  67  73
ATOM     73  C   UNL     1     146.729 173.110 191.730  0.00  0.00    -0.046 C 
ATOM     74  H   UNL     1     146.924 172.426 190.902  0.00  0.00    +0.027 HD
ATOM     75  H   UNL     1     147.198 174.059 191.440  0.00  0.00    +0.027 HD
BRANCH  73  76
ATOM     76  C   UNL     1     145.204 173.318 191.780  0.00  0.00    -0.026 C 
ATOM     77  H   UNL     1     144.896 173.261 192.833  0.00  0.00    +0.029 HD
ATOM     78  H   UNL     1     144.962 174.328 191.433  0.00  0.00    +0.029 HD
BRANCH  76  83
ATOM     79  C   UNL     1     144.073 169.938 190.631  0.00  0.00    +0.059 C 
ATOM     80  C   UNL     1     143.973 170.184 189.125  0.00  0.00    -0.000 C 
ATOM     81  C   UNL     1     144.876 171.329 188.691  0.00  0.00    +0.063 C 
ATOM     82  C   UNL     1     144.501 172.580 189.479  0.00  0.00    -0.000 C 
ATOM     83  C   UNL     1     144.360 172.304 190.985  0.00  0.00    +0.061 C 
ATOM     84  O   UNL     1     144.792 170.981 191.299  0.00  0.00    -0.373 OA
ATOM     85  H   UNL     1     144.668 169.030 190.791  0.00  0.00    +0.059 HD
ATOM     86  H   UNL     1     144.231 169.266 188.578  0.00  0.00    +0.032 HD
ATOM     87  H   UNL     1     142.936 170.398 188.824  0.00  0.00    +0.032 HD
ATOM     88  H   UNL     1     145.921 171.057 188.886  0.00  0.00    +0.060 HD
ATOM     89  H   UNL     1     145.240 173.368 189.287  0.00  0.00    +0.032 HD
ATOM     90  H   UNL     1     143.558 172.998 189.102  0.00  0.00    +0.032 HD
ATOM     91  H   UNL     1     143.313 172.423 191.287  0.00  0.00    +0.060 HD
BRANCH  79  92
ATOM     92  C   UNL     1     142.707 169.692 191.266  0.00  0.00    -0.039 C 
ATOM     93  H   UNL     1     142.350 170.571 191.809  0.00  0.00    +0.025 HD
ATOM     94  H   UNL     1     141.967 169.442 190.501  0.00  0.00    +0.025 HD
ATOM     95  H   UNL     1     142.760 168.869 191.987  0.00  0.00    +0.025 HD
ENDBRANCH  79  92
BRANCH  81  96
ATOM     96  O   UNL     1     144.696 171.522 187.283  0.00  0.00    -0.380 OA
BRANCH  96  97
ATOM     97  C   UNL     1     145.707 172.331 186.691  0.00  0.00    +0.037 C 
ATOM     98  H   UNL     1     146.273 171.762 185.947  0.00  0.00    +0.052 HD
ATOM     99  H   UNL     1     145.219 173.170 186.188  0.00  0.00    +0.052 HD
ATOM    100  H   UNL     1     146.379 172.733 187.454  0.00  0.00    +0.052 HD
ENDBRANCH  96  97
ENDBRANCH  81  96
ENDBRANCH  76  83
ENDBRANCH  73  76
ENDBRANCH  67  73
ENDBRANCH  65  67
BRANCH  65 101
ATOM    101  O   UNL     1     149.779 172.748 193.118  0.00  0.00    -0.391 OA
ATOM    102  H   UNL     1     149.451 173.633 192.886  0.00  0.00    +0.210 HD
ENDBRANCH  65 101
ENDBRANCH  59  65
ENDBRANCH   1  59
BRANCH  19 103
ATOM    103  O   UNL     1     142.410 164.844 187.968  0.00  0.00    -0.385 OA
ATOM    104  H   UNL     1     141.900 164.249 187.388  0.00  0.00    +0.210 HD
ENDBRANCH  19 103
BRANCH  18 105
ATOM    105  O   UNL     1     143.106 162.512 186.814  0.00  0.00    -0.377 OA
BRANCH 105 106
ATOM    106  C   UNL     1     143.599 162.677 185.487  0.00  0.00    +0.037 C 
ATOM    107  H   UNL     1     144.672 162.898 185.500  0.00  0.00    +0.052 HD
ATOM    108  H   UNL     1     143.076 163.522 185.031  0.00  0.00    +0.052 HD
ATOM    109  H   UNL     1     143.402 161.780 184.892  0.00  0.00    +0.052 HD
ENDBRANCH 105 106
ENDBRANCH  18 105
BRANCH   9 110
ATOM    110  O   UNL     1     150.200 162.669 188.907  0.00  0.00    -0.377 OA
BRANCH 110 111
ATOM    111  C   UNL     1     150.282 162.980 187.524  0.00  0.00    +0.037 C 
ATOM    112  H   UNL     1     149.539 163.750 187.300  0.00  0.00    +0.052 HD
ATOM    113  H   UNL     1     150.060 162.096 186.920  0.00  0.00    +0.052 HD
ATOM    114  H   UNL     1     151.271 163.371 187.269  0.00  0.00    +0.052 HD
ENDBRANCH 110 111
ENDBRANCH   9 110
BRANCH   5 115
ATOM    115  O   UNL     1     149.804 166.468 189.263  0.00  0.00    -0.377 OA
BRANCH 115 116
ATOM    116  C   UNL     1     150.083 166.941 187.952  0.00  0.00    +0.037 C 
ATOM    117  H   UNL     1     149.355 166.542 187.241  0.00  0.00    +0.052 HD
ATOM    118  H   UNL     1     151.098 166.673 187.643  0.00  0.00    +0.052 HD
ATOM    119  H   UNL     1     149.997 168.030 187.960  0.00  0.00    +0.052 HD
ENDBRANCH 115 116
ENDBRANCH   5 115
BRANCH   3 120
ATOM    120  O   UNL     1     151.299 167.331 193.123  0.00  0.00    -0.379 OA
BRANCH 120 121
ATOM    121  C   UNL     1     150.429 166.722 194.070  0.00  0.00    +0.037 C 
ATOM    122  H   UNL     1     149.948 165.838 193.646  0.00  0.00    +0.052 HD
ATOM    123  H   UNL     1     150.969 166.460 194.984  0.00  0.00    +0.052 HD
ATOM    124  H   UNL     1     149.650 167.443 194.331  0.00  0.00    +0.052 HD
ENDBRANCH 120 121
ENDBRANCH   3 120
TORSDOF 23
ENDMDL
MODEL 10
REMARK VINA RESULT:      -5.1      3.756      6.272
REMARK  Name = Lobophorolide_conf2
REMARK  23 active torsions:
REMARK  status: ('A' for Active; 'I' for Inactive)
REMARK    1  A    between atoms: C_1  and  C_2
REMARK    2  A    between atoms: C_4  and  O_53
REMARK    3  A    between atoms: C_6  and  C_8
REMARK    4  A    between atoms: C_8  and  C_9
REMARK    5  A    between atoms: C_9  and  C_10
REMARK    6  A    between atoms: C_10  and  C_11
REMARK    7  A    between atoms: C_10  and  C_12
REMARK    8  A    between atoms: C_12  and  C_13
REMARK    9  A    between atoms: C_12  and  O_52
REMARK   10  A    between atoms: C_13  and  C_14
REMARK   11  A    between atoms: C_13  and  C_15
REMARK   12  A    between atoms: C_16  and  C_51
REMARK   13  A    between atoms: C_17  and  O_49
REMARK   14  A    between atoms: C_19  and  O_47
REMARK   15  A    between atoms: C_23  and  O_45
REMARK   16  A    between atoms: C_32  and  O_43
REMARK   17  A    between atoms: C_33  and  O_42
REMARK   18  A    between atoms: C_35  and  C_41
REMARK   19  A    between atoms: O_43  and  C_44
REMARK   20  A    between atoms: O_45  and  C_46
REMARK   21  A    between atoms: O_47  and  C_48
REMARK   22  A    between atoms: O_49  and  C_50
REMARK   23  A    between atoms: O_53  and  C_54
REMARK                            x       y       z     vdW  Elec       q    Type
REMARK                         _______ _______ _______ _____ _____    ______ ____
ROOT
ATOM      1  C   UNL     1     143.623 170.398 187.442  0.00  0.00    +0.113 C 
ATOM      2  C   UNL     1     142.538 170.446 186.324  0.00  0.00    +0.020 C 
ATOM      3  C   UNL     1     141.114 170.121 186.891  0.00  0.00    +0.067 C 
ATOM      4  C   UNL     1     140.014 170.946 186.175  0.00  0.00    +0.003 C 
ATOM      5  C   UNL     1     139.402 172.069 187.049  0.00  0.00    +0.094 C 
ATOM      6  C   UNL     1     138.429 171.610 188.132  0.00  0.00    +0.145 C 
ATOM      7  C   UNL     1     137.404 170.528 187.792  0.00  0.00    +0.083 C 
ATOM      8  O   UNL     1     138.571 170.248 188.572  0.00  0.00    -0.363 OA
ATOM      9  C   UNL     1     138.019 172.628 189.203  0.00  0.00    +0.094 C 
ATOM     10  C   UNL     1     137.800 171.976 190.584  0.00  0.00    +0.003 C 
ATOM     11  C   UNL     1     137.153 172.824 191.690  0.00  0.00    +0.065 C 
ATOM     12  C   UNL     1     135.621 172.894 191.569  0.00  0.00    -0.008 C 
ATOM     13  C   UNL     1     135.059 173.774 192.641  0.00  0.00    -0.083 C 
ATOM     14  C   UNL     1     135.841 174.666 193.261  0.00  0.00    -0.059 C 
ATOM     15  C   UNL     1     137.295 174.890 192.912  0.00  0.00    +0.080 C 
ATOM     16  O   UNL     1     137.717 174.142 191.752  0.00  0.00    -0.369 OA
ATOM     17  C   UNL     1     138.228 174.587 194.096  0.00  0.00    +0.006 C 
ATOM     18  C   UNL     1     139.535 175.391 193.979  0.00  0.00    +0.090 C 
ATOM     19  C   UNL     1     140.760 174.585 194.479  0.00  0.00    +0.100 C 
ATOM     20  C   UNL     1     141.222 173.507 193.534  0.00  0.00    -0.051 C 
ATOM     21  C   UNL     1     141.740 173.644 192.294  0.00  0.00    -0.052 C 
ATOM     22  C   UNL     1     142.106 172.442 191.542  0.00  0.00    -0.052 C 
ATOM     23  C   UNL     1     142.595 172.429 190.294  0.00  0.00    +0.023 C 
ATOM     24  C   UNL     1     142.931 171.163 189.614  0.00  0.00    +0.332 C 
ATOM     25  O   UNL     1     142.859 170.048 190.100  0.00  0.00    -0.246 OA
ATOM     26  O   UNL     1     143.318 171.479 188.351  0.00  0.00    -0.458 OA
ATOM     27  H   UNL     1     143.562 169.426 187.946  0.00  0.00    +0.074 HD
ATOM     28  H   UNL     1     142.515 171.485 185.970  0.00  0.00    +0.036 HD
ATOM     29  H   UNL     1     141.061 170.316 187.967  0.00  0.00    +0.060 HD
ATOM     30  H   UNL     1     139.230 170.288 185.794  0.00  0.00    +0.032 HD
ATOM     31  H   UNL     1     140.445 171.418 185.283  0.00  0.00    +0.032 HD
ATOM     32  H   UNL     1     138.821 172.727 186.390  0.00  0.00    +0.063 HD
ATOM     33  H   UNL     1     137.347 170.127 186.790  0.00  0.00    +0.059 HD
ATOM     34  H   UNL     1     136.445 170.541 188.300  0.00  0.00    +0.059 HD
ATOM     35  H   UNL     1     138.807 173.382 189.327  0.00  0.00    +0.063 HD
ATOM     36  H   UNL     1     138.788 171.650 190.937  0.00  0.00    +0.032 HD
ATOM     37  H   UNL     1     137.199 171.064 190.491  0.00  0.00    +0.032 HD
ATOM     38  H   UNL     1     137.389 172.305 192.628  0.00  0.00    +0.060 HD
ATOM     39  H   UNL     1     135.198 171.887 191.660  0.00  0.00    +0.033 HD
ATOM     40  H   UNL     1     135.298 173.305 190.609  0.00  0.00    +0.033 HD
ATOM     41  H   UNL     1     134.010 173.676 192.898  0.00  0.00    +0.057 HD
ATOM     42  H   UNL     1     135.420 175.297 194.040  0.00  0.00    +0.059 HD
ATOM     43  H   UNL     1     137.387 175.947 192.636  0.00  0.00    +0.064 HD
ATOM     44  H   UNL     1     137.732 174.839 195.042  0.00  0.00    +0.032 HD
ATOM     45  H   UNL     1     138.447 173.515 194.120  0.00  0.00    +0.032 HD
ATOM     46  H   UNL     1     139.698 175.713 192.943  0.00  0.00    +0.063 HD
ATOM     47  H   UNL     1     140.520 174.126 195.447  0.00  0.00    +0.066 HD
ATOM     48  H   UNL     1     141.098 172.504 193.937  0.00  0.00    +0.060 HD
ATOM     49  H   UNL     1     141.962 171.490 192.050  0.00  0.00    +0.062 HD
ATOM     50  H   UNL     1     142.762 173.327 189.714  0.00  0.00    +0.069 HD
ENDROOT
BRANCH  21  51
ATOM     51  C   UNL     1     141.971 174.979 191.627  0.00  0.00    -0.040 C 
ATOM     52  H   UNL     1     141.310 175.738 192.058  0.00  0.00    +0.028 HD
ATOM     53  H   UNL     1     141.781 174.920 190.553  0.00  0.00    +0.028 HD
ATOM     54  H   UNL     1     142.995 175.344 191.723  0.00  0.00    +0.028 HD
ENDBRANCH  21  51
BRANCH   2  55
ATOM     55  C   UNL     1     142.871 169.547 185.124  0.00  0.00    -0.057 C 
ATOM     56  H   UNL     1     143.579 168.762 185.408  0.00  0.00    +0.023 HD
ATOM     57  H   UNL     1     141.984 169.041 184.735  0.00  0.00    +0.023 HD
ATOM     58  H   UNL     1     143.310 170.127 184.304  0.00  0.00    +0.023 HD
ENDBRANCH   2  55
BRANCH   1  59
ATOM     59  C   UNL     1     145.092 170.573 186.947  0.00  0.00    +0.020 C 
ATOM     60  H   UNL     1     145.083 170.430 185.860  0.00  0.00    +0.036 HD
BRANCH  59  61
ATOM     61  C   UNL     1     145.627 171.987 187.183  0.00  0.00    -0.057 C 
ATOM     62  H   UNL     1     145.411 172.643 186.334  0.00  0.00    +0.023 HD
ATOM     63  H   UNL     1     145.162 172.450 188.056  0.00  0.00    +0.023 HD
ATOM     64  H   UNL     1     146.703 171.984 187.366  0.00  0.00    +0.023 HD
ENDBRANCH  59  61
BRANCH  59  65
ATOM     65  C   UNL     1     146.030 169.461 187.511  0.00  0.00    +0.064 C 
ATOM     66  H   UNL     1     145.842 168.559 186.915  0.00  0.00    +0.060 HD
BRANCH  65  67
ATOM     67  C   UNL     1     145.920 169.081 189.021  0.00  0.00    -0.017 C 
ATOM     68  H   UNL     1     144.908 169.296 189.369  0.00  0.00    +0.032 HD
BRANCH  67  69
ATOM     69  C   UNL     1     146.108 167.557 189.135  0.00  0.00    -0.060 C 
ATOM     70  H   UNL     1     147.012 167.306 189.697  0.00  0.00    +0.023 HD
ATOM     71  H   UNL     1     146.185 167.085 188.147  0.00  0.00    +0.023 HD
ATOM     72  H   UNL     1     145.262 167.101 189.662  0.00  0.00    +0.023 HD
ENDBRANCH  67  69
BRANCH  67  73
ATOM     73  C   UNL     1     146.946 169.776 189.955  0.00  0.00    -0.046 C 
ATOM     74  H   UNL     1     147.830 170.077 189.389  0.00  0.00    +0.027 HD
ATOM     75  H   UNL     1     147.314 169.082 190.721  0.00  0.00    +0.027 HD
BRANCH  73  76
ATOM     76  C   UNL     1     146.422 171.043 190.659  0.00  0.00    -0.026 C 
ATOM     77  H   UNL     1     146.403 171.851 189.917  0.00  0.00    +0.029 HD
ATOM     78  H   UNL     1     145.387 170.880 190.978  0.00  0.00    +0.029 HD
BRANCH  76  83
ATOM     79  C   UNL     1     148.316 173.490 192.768  0.00  0.00    +0.059 C 
ATOM     80  C   UNL     1     149.537 172.645 193.133  0.00  0.00    -0.000 C 
ATOM     81  C   UNL     1     149.778 171.550 192.104  0.00  0.00    +0.063 C 
ATOM     82  C   UNL     1     148.524 170.688 191.997  0.00  0.00    -0.000 C 
ATOM     83  C   UNL     1     147.243 171.529 191.868  0.00  0.00    +0.061 C 
ATOM     84  O   UNL     1     147.560 172.910 191.698  0.00  0.00    -0.373 OA
ATOM     85  H   UNL     1     148.670 174.454 192.380  0.00  0.00    +0.059 HD
ATOM     86  H   UNL     1     150.424 173.288 193.221  0.00  0.00    +0.032 HD
ATOM     87  H   UNL     1     149.426 172.195 194.131  0.00  0.00    +0.032 HD
ATOM     88  H   UNL     1     150.005 172.010 191.135  0.00  0.00    +0.060 HD
ATOM     89  H   UNL     1     148.629 169.992 191.155  0.00  0.00    +0.032 HD
ATOM     90  H   UNL     1     148.436 170.035 192.876  0.00  0.00    +0.032 HD
ATOM     91  H   UNL     1     146.628 171.408 192.767  0.00  0.00    +0.060 HD
BRANCH  79  92
ATOM     92  C   UNL     1     147.442 173.793 193.982  0.00  0.00    -0.039 C 
ATOM     93  H   UNL     1     146.405 173.486 193.820  0.00  0.00    +0.025 HD
ATOM     94  H   UNL     1     147.816 173.269 194.865  0.00  0.00    +0.025 HD
ATOM     95  H   UNL     1     147.429 174.868 194.189  0.00  0.00    +0.025 HD
ENDBRANCH  79  92
BRANCH  81  96
ATOM     96  O   UNL     1     150.907 170.782 192.536  0.00  0.00    -0.380 OA
BRANCH  96  97
ATOM     97  C   UNL     1     151.657 170.228 191.460  0.00  0.00    +0.037 C 
ATOM     98  H   UNL     1     152.729 170.255 191.680  0.00  0.00    +0.052 HD
ATOM     99  H   UNL     1     151.354 169.185 191.337  0.00  0.00    +0.052 HD
ATOM    100  H   UNL     1     151.446 170.757 190.527  0.00  0.00    +0.052 HD
ENDBRANCH  96  97
ENDBRANCH  81  96
ENDBRANCH  76  83
ENDBRANCH  73  76
ENDBRANCH  67  73
ENDBRANCH  65  67
BRANCH  65 101
ATOM    101  O   UNL     1     147.391 169.824 187.229  0.00  0.00    -0.391 OA
ATOM    102  H   UNL     1     147.829 169.995 188.080  0.00  0.00    +0.210 HD
ENDBRANCH  65 101
ENDBRANCH  59  65
ENDBRANCH   1  59
BRANCH  19 103
ATOM    103  O   UNL     1     141.861 175.459 194.736  0.00  0.00    -0.385 OA
ATOM    104  H   UNL     1     142.650 174.929 194.518  0.00  0.00    +0.210 HD
ENDBRANCH  19 103
BRANCH  18 105
ATOM    105  O   UNL     1     139.403 176.558 194.832  0.00  0.00    -0.377 OA
BRANCH 105 106
ATOM    106  C   UNL     1     138.745 176.264 196.061  0.00  0.00    +0.037 C 
ATOM    107  H   UNL     1     137.750 175.847 195.875  0.00  0.00    +0.052 HD
ATOM    108  H   UNL     1     138.631 177.198 196.619  0.00  0.00    +0.052 HD
ATOM    109  H   UNL     1     139.343 175.570 196.660  0.00  0.00    +0.052 HD
ENDBRANCH 105 106
ENDBRANCH  18 105
BRANCH   9 110
ATOM    110  O   UNL     1     136.807 173.245 188.748  0.00  0.00    -0.377 OA
BRANCH 110 111
ATOM    111  C   UNL     1     137.009 174.580 188.307  0.00  0.00    +0.037 C 
ATOM    112  H   UNL     1     137.825 174.583 187.580  0.00  0.00    +0.052 HD
ATOM    113  H   UNL     1     137.289 175.220 189.148  0.00  0.00    +0.052 HD
ATOM    114  H   UNL     1     136.112 174.971 187.820  0.00  0.00    +0.052 HD
ENDBRANCH 110 111
ENDBRANCH   9 110
BRANCH   5 115
ATOM    115  O   UNL     1     140.461 172.825 187.659  0.00  0.00    -0.377 OA
BRANCH 115 116
ATOM    116  C   UNL     1     140.913 173.907 186.856  0.00  0.00    +0.037 C 
ATOM    117  H   UNL     1     141.422 173.532 185.963  0.00  0.00    +0.052 HD
ATOM    118  H   UNL     1     141.578 174.567 187.420  0.00  0.00    +0.052 HD
ATOM    119  H   UNL     1     140.038 174.481 186.538  0.00  0.00    +0.052 HD
ENDBRANCH 115 116
ENDBRANCH   5 115
BRANCH   3 120
ATOM    120  O   UNL     1     140.801 168.733 186.648  0.00  0.00    -0.379 OA
BRANCH 120 121
ATOM    121  C   UNL     1     140.887 167.922 187.814  0.00  0.00    +0.037 C 
ATOM    122  H   UNL     1     141.549 168.374 188.555  0.00  0.00    +0.052 HD
ATOM    123  H   UNL     1     139.897 167.747 188.242  0.00  0.00    +0.052 HD
ATOM    124  H   UNL     1     141.309 166.955 187.525  0.00  0.00    +0.052 HD
ENDBRANCH 120 121
ENDBRANCH   3 120
TORSDOF 23
ENDMDL
