MODEL 1
REMARK VINA RESULT:      -5.7      0.000      0.000
REMARK  Name = Mycalolide B_conf1
REMARK  35 active torsions:
REMARK  status: ('A' for Active; 'I' for Inactive)
REMARK    1  A    between atoms: C_1  and  C_2
REMARK    2  A    between atoms: C_3  and  O_72
REMARK    3  A    between atoms: C_22  and  O_70
REMARK    4  A    between atoms: C_23  and  C_69
REMARK    5  A    between atoms: C_29  and  O_68
REMARK    6  A    between atoms: C_34  and  C_35
REMARK    7  A    between atoms: C_35  and  C_36
REMARK    8  A    between atoms: C_36  and  C_37
REMARK    9  A    between atoms: C_36  and  O_66
REMARK   10  A    between atoms: C_37  and  C_38
REMARK   11  A    between atoms: C_37  and  C_39
REMARK   12  A    between atoms: C_39  and  C_40
REMARK   13  A    between atoms: C_40  and  C_41
REMARK   14  A    between atoms: C_41  and  C_42
REMARK   15  A    between atoms: C_41  and  O_57
REMARK   16  A    between atoms: C_42  and  C_43
REMARK   17  A    between atoms: C_42  and  C_44
REMARK   18  A    between atoms: C_44  and  C_45
REMARK   19  A    between atoms: C_44  and  O_53
REMARK   20  A    between atoms: C_45  and  C_46
REMARK   21  A    between atoms: C_45  and  C_47
REMARK   22  A    between atoms: C_48  and  N_49
REMARK   23  A    between atoms: N_49  and  C_50
REMARK   24  A    between atoms: O_53  and  C_54
REMARK   25  A    between atoms: C_54  and  C_56
REMARK   26  A    between atoms: O_57  and  C_58
REMARK   27  A    between atoms: C_58  and  C_60
REMARK   28  A    between atoms: C_60  and  C_61
REMARK   29  A    between atoms: C_60  and  O_64
REMARK   30  A    between atoms: C_61  and  O_62
REMARK   31  A    between atoms: O_62  and  C_63
REMARK   32  A    between atoms: O_64  and  C_65
REMARK   33  A    between atoms: O_66  and  C_67
REMARK   34  A    between atoms: O_70  and  C_71
REMARK   35  A    between atoms: O_72  and  C_73
REMARK                            x       y       z     vdW  Elec       q    Type
REMARK                         _______ _______ _______ _____ _____    ______ ____
ROOT
ATOM      1  C   UNL     1     150.729 166.887 190.464  0.00  0.00    +0.011 C 
ATOM      2  H   UNL     1     151.792 167.154 190.424  0.00  0.00    +0.033 HD
ATOM      3  H   UNL     1     150.716 165.801 190.611  0.00  0.00    +0.033 HD
ENDROOT
BRANCH   1  36
ATOM      4  C   UNL     1     150.743 167.284 193.030  0.00  0.00    +0.020 C 
ATOM      5  C   UNL     1     150.125 166.128 193.873  0.00  0.00    +0.068 C 
ATOM      6  C   UNL     1     150.001 164.732 193.201  0.00  0.00    -0.008 C 
ATOM      7  C   UNL     1     148.868 164.589 192.223  0.00  0.00    -0.077 C 
ATOM      8  C   UNL     1     148.777 163.658 191.259  0.00  0.00    -0.003 C 
ATOM      9  C   UNL     1     147.657 163.662 190.378  0.00  0.00    +0.220 A 
ATOM     10  N   UNL     1     146.824 164.676 190.198  0.00  0.00    -0.205 NA
ATOM     11  C   UNL     1     145.902 164.243 189.282  0.00  0.00    +0.164 A 
ATOM     12  C   UNL     1     146.207 162.967 188.898  0.00  0.00    +0.125 A 
ATOM     13  O   UNL     1     147.331 162.586 189.568  0.00  0.00    -0.443 OA
ATOM     14  C   UNL     1     144.701 165.102 188.783  0.00  0.00    +0.250 A 
ATOM     15  N   UNL     1     144.505 166.343 189.185  0.00  0.00    -0.203 NA
ATOM     16  C   UNL     1     143.359 166.737 188.542  0.00  0.00    +0.164 A 
ATOM     17  C   UNL     1     142.890 165.712 187.763  0.00  0.00    +0.125 A 
ATOM     18  O   UNL     1     143.744 164.656 187.899  0.00  0.00    -0.442 OA
ATOM     19  C   UNL     1     142.696 168.142 188.688  0.00  0.00    +0.249 A 
ATOM     20  N   UNL     1     143.202 169.105 189.441  0.00  0.00    -0.210 NA
ATOM     21  C   UNL     1     142.350 170.174 189.272  0.00  0.00    +0.109 A 
ATOM     22  C   UNL     1     141.335 169.804 188.418  0.00  0.00    +0.118 A 
ATOM     23  O   UNL     1     141.540 168.512 188.040  0.00  0.00    -0.442 OA
ATOM     24  C   UNL     1     142.624 171.502 189.914  0.00  0.00    +0.113 C 
ATOM     25  C   UNL     1     144.062 171.974 189.607  0.00  0.00    +0.051 C 
ATOM     26  C   UNL     1     144.273 173.352 190.219  0.00  0.00    +0.161 C 
ATOM     27  O   UNL     1     143.445 174.254 190.095  0.00  0.00    -0.292 OA
ATOM     28  C   UNL     1     145.540 173.661 190.945  0.00  0.00    -0.023 C 
ATOM     29  C   UNL     1     146.707 173.021 190.755  0.00  0.00    -0.078 C 
ATOM     30  C   UNL     1     147.979 173.387 191.474  0.00  0.00    -0.008 C 
ATOM     31  C   UNL     1     148.590 172.219 192.271  0.00  0.00    +0.069 C 
ATOM     32  C   UNL     1     149.281 171.189 191.369  0.00  0.00    +0.071 C 
ATOM     33  C   UNL     1     149.163 169.792 191.931  0.00  0.00    +0.310 C 
ATOM     34  O   UNL     1     148.274 169.409 192.677  0.00  0.00    -0.251 OA
ATOM     35  O   UNL     1     150.145 169.004 191.407  0.00  0.00    -0.461 OA
ATOM     36  C   UNL     1     150.050 167.577 191.664  0.00  0.00    +0.110 C 
ATOM     37  H   UNL     1     150.629 168.196 193.629  0.00  0.00    +0.036 HD
ATOM     38  H   UNL     1     150.774 165.977 194.747  0.00  0.00    +0.060 HD
ATOM     39  H   UNL     1     150.953 164.442 192.747  0.00  0.00    +0.033 HD
ATOM     40  H   UNL     1     149.797 164.012 194.006  0.00  0.00    +0.033 HD
ATOM     41  H   UNL     1     148.042 165.295 192.348  0.00  0.00    +0.057 HD
ATOM     42  H   UNL     1     149.534 162.895 191.126  0.00  0.00    +0.067 HD
ATOM     43  H   UNL     1     145.779 162.246 188.217  0.00  0.00    +0.105 HD
ATOM     44  H   UNL     1     142.046 165.576 187.109  0.00  0.00    +0.105 HD
ATOM     45  H   UNL     1     140.471 170.296 187.995  0.00  0.00    +0.105 HD
ATOM     46  H   UNL     1     141.908 172.246 189.541  0.00  0.00    +0.067 HD
ATOM     47  H   UNL     1     144.765 171.269 190.065  0.00  0.00    +0.041 HD
ATOM     48  H   UNL     1     145.462 174.505 191.625  0.00  0.00    +0.065 HD
ATOM     49  H   UNL     1     146.781 172.210 190.035  0.00  0.00    +0.057 HD
ATOM     50  H   UNL     1     148.710 173.755 190.743  0.00  0.00    +0.033 HD
ATOM     51  H   UNL     1     147.798 174.229 192.154  0.00  0.00    +0.033 HD
ATOM     52  H   UNL     1     147.814 171.765 192.898  0.00  0.00    +0.060 HD
ATOM     53  H   UNL     1     150.343 171.436 191.261  0.00  0.00    +0.040 HD
ATOM     54  H   UNL     1     148.828 171.149 190.373  0.00  0.00    +0.040 HD
ATOM     55  H   UNL     1     148.992 167.302 191.692  0.00  0.00    +0.074 HD
BRANCH   4  56
ATOM     56  C   UNL     1     152.266 167.107 192.918  0.00  0.00    -0.057 C 
ATOM     57  H   UNL     1     152.694 166.593 193.785  0.00  0.00    +0.023 HD
ATOM     58  H   UNL     1     152.530 166.545 192.017  0.00  0.00    +0.023 HD
ATOM     59  H   UNL     1     152.761 168.084 192.846  0.00  0.00    +0.023 HD
ENDBRANCH   4  56
BRANCH  25  60
ATOM     60  C   UNL     1     144.346 172.087 188.107  0.00  0.00    -0.053 C 
ATOM     61  H   UNL     1     145.208 171.477 187.815  0.00  0.00    +0.024 HD
ATOM     62  H   UNL     1     144.568 173.121 187.829  0.00  0.00    +0.024 HD
ATOM     63  H   UNL     1     143.491 171.750 187.514  0.00  0.00    +0.024 HD
ENDBRANCH  25  60
BRANCH  31  64
ATOM     64  O   UNL     1     149.585 172.753 193.154  0.00  0.00    -0.391 OA
ATOM     65  H   UNL     1     149.970 172.005 193.649  0.00  0.00    +0.210 HD
ENDBRANCH  31  64
BRANCH  24  66
ATOM     66  O   UNL     1     142.504 171.420 191.349  0.00  0.00    -0.373 OA
BRANCH  66  67
ATOM     67  C   UNL     1     141.350 172.080 191.850  0.00  0.00    +0.037 C 
ATOM     68  H   UNL     1     141.028 171.643 192.798  0.00  0.00    +0.052 HD
ATOM     69  H   UNL     1     140.539 172.039 191.116  0.00  0.00    +0.052 HD
ATOM     70  H   UNL     1     141.604 173.129 192.022  0.00  0.00    +0.052 HD
ENDBRANCH  66  67
ENDBRANCH  24  66
BRANCH   5  71
ATOM     71  O   UNL     1     148.820 166.468 194.370  0.00  0.00    -0.379 OA
BRANCH  71  72
ATOM     72  C   UNL     1     148.604 166.163 195.740  0.00  0.00    +0.037 C 
ATOM     73  H   UNL     1     147.525 166.072 195.904  0.00  0.00    +0.052 HD
ATOM     74  H   UNL     1     149.074 165.210 196.006  0.00  0.00    +0.052 HD
ATOM     75  H   UNL     1     148.974 166.957 196.390  0.00  0.00    +0.052 HD
ENDBRANCH  71  72
ENDBRANCH   5  71
ENDBRANCH   1  36
BRANCH   1  76
ATOM     76  C   UNL     1     150.111 167.164 189.077  0.00  0.00    +0.064 C 
ATOM     77  H   UNL     1     150.410 168.170 188.755  0.00  0.00    +0.060 HD
BRANCH  76  78
ATOM     78  C   UNL     1     150.477 166.180 187.927  0.00  0.00    -0.017 C 
ATOM     79  H   UNL     1     149.601 166.048 187.284  0.00  0.00    +0.032 HD
BRANCH  78  80
ATOM     80  C   UNL     1     151.651 166.689 187.074  0.00  0.00    -0.060 C 
ATOM     81  H   UNL     1     151.319 166.946 186.064  0.00  0.00    +0.023 HD
ATOM     82  H   UNL     1     152.437 165.932 186.987  0.00  0.00    +0.023 HD
ATOM     83  H   UNL     1     152.103 167.593 187.490  0.00  0.00    +0.023 HD
ENDBRANCH  78  80
BRANCH  78  84
ATOM     84  C   UNL     1     150.819 164.801 188.549  0.00  0.00    -0.045 C 
ATOM     85  H   UNL     1     150.717 164.895 189.631  0.00  0.00    +0.027 HD
ATOM     86  H   UNL     1     150.076 164.064 188.219  0.00  0.00    +0.027 HD
BRANCH  84  87
ATOM     87  C   UNL     1     152.216 164.266 188.236  0.00  0.00    -0.015 C 
ATOM     88  H   UNL     1     152.701 164.863 187.456  0.00  0.00    +0.030 HD
ATOM     89  H   UNL     1     152.123 163.260 187.802  0.00  0.00    +0.030 HD
BRANCH  87  90
ATOM     90  C   UNL     1     153.150 164.182 189.462  0.00  0.00    +0.109 C 
ATOM     91  H   UNL     1     152.598 164.569 190.326  0.00  0.00    +0.074 HD
BRANCH  90  92
ATOM     92  C   UNL     1     154.533 164.916 189.378  0.00  0.00    +0.031 C 
ATOM     93  H   UNL     1     155.075 164.604 190.281  0.00  0.00    +0.037 HD
BRANCH  92  94
ATOM     94  C   UNL     1     154.355 166.435 189.492  0.00  0.00    -0.056 C 
ATOM     95  H   UNL     1     153.425 166.791 189.045  0.00  0.00    +0.023 HD
ATOM     96  H   UNL     1     154.371 166.760 190.537  0.00  0.00    +0.023 HD
ATOM     97  H   UNL     1     155.177 166.959 188.998  0.00  0.00    +0.023 HD
ENDBRANCH  92  94
BRANCH  92  98
ATOM     98  C   UNL     1     155.400 164.466 188.160  0.00  0.00    +0.115 C 
ATOM     99  H   UNL     1     154.977 163.537 187.765  0.00  0.00    +0.074 HD
BRANCH  98 100
ATOM    100  C   UNL     1     155.554 165.467 186.974  0.00  0.00    +0.013 C 
ATOM    101  H   UNL     1     154.979 166.368 187.235  0.00  0.00    +0.038 HD
BRANCH 100 102
ATOM    102  C   UNL     1     154.909 164.982 185.670  0.00  0.00    -0.056 C 
ATOM    103  H   UNL     1     154.969 165.729 184.872  0.00  0.00    +0.024 HD
ATOM    104  H   UNL     1     155.392 164.068 185.315  0.00  0.00    +0.024 HD
ATOM    105  H   UNL     1     153.848 164.756 185.826  0.00  0.00    +0.024 HD
ENDBRANCH 100 102
BRANCH 100 106
ATOM    106  C   UNL     1     156.984 165.916 186.756  0.00  0.00    -0.064 C 
ATOM    107  C   UNL     1     157.303 166.825 185.823  0.00  0.00    -0.005 C 
ATOM    108  H   UNL     1     157.737 165.461 187.389  0.00  0.00    +0.059 HD
ATOM    109  H   UNL     1     156.499 167.247 185.213  0.00  0.00    +0.078 HD
BRANCH 107 110
ATOM    110  N   UNL     1     158.559 167.332 185.526  0.00  0.00    -0.284 N 
ATOM    111  C   UNL     1     158.891 168.679 185.491  0.00  0.00    +0.206 C 
ATOM    112  O   UNL     1     159.997 169.148 185.227  0.00  0.00    -0.279 OA
ATOM    113  H   UNL     1     158.053 169.351 185.714  0.00  0.00    +0.126 HD
BRANCH 110 114
ATOM    114  C   UNL     1     159.604 166.365 185.200  0.00  0.00    +0.007 C 
ATOM    115  H   UNL     1     160.109 166.611 184.262  0.00  0.00    +0.043 HD
ATOM    116  H   UNL     1     160.347 166.346 186.001  0.00  0.00    +0.043 HD
ATOM    117  H   UNL     1     159.145 165.377 185.104  0.00  0.00    +0.043 HD
ENDBRANCH 110 114
ENDBRANCH 107 110
ENDBRANCH 100 106
ENDBRANCH  98 100
BRANCH  98 118
ATOM    118  O   UNL     1     156.736 164.184 188.663  0.00  0.00    -0.461 OA
BRANCH 118 119
ATOM    119  C   UNL     1     156.979 162.916 189.094  0.00  0.00    +0.304 C 
ATOM    120  O   UNL     1     156.466 161.904 188.644  0.00  0.00    -0.251 OA
BRANCH 119 121
ATOM    121  C   UNL     1     157.982 162.940 190.207  0.00  0.00    +0.033 C 
ATOM    122  H   UNL     1     157.485 163.192 191.145  0.00  0.00    +0.034 HD
ATOM    123  H   UNL     1     158.736 163.704 189.998  0.00  0.00    +0.034 HD
ATOM    124  H   UNL     1     158.479 161.970 190.283  0.00  0.00    +0.034 HD
ENDBRANCH 119 121
ENDBRANCH 118 119
ENDBRANCH  98 118
ENDBRANCH  92  98
ENDBRANCH  90  92
BRANCH  90 125
ATOM    125  O   UNL     1     153.450 162.775 189.654  0.00  0.00    -0.459 OA
BRANCH 125 126
ATOM    126  C   UNL     1     152.596 162.046 190.439  0.00  0.00    +0.339 C 
ATOM    127  O   UNL     1     152.017 162.473 191.431  0.00  0.00    -0.248 OA
BRANCH 126 128
ATOM    128  C   UNL     1     152.445 160.632 189.844  0.00  0.00    +0.178 C 
ATOM    129  H   UNL     1     153.412 160.122 189.960  0.00  0.00    +0.074 HD
BRANCH 128 130
ATOM    130  C   UNL     1     151.392 159.860 190.659  0.00  0.00    +0.084 C 
ATOM    131  H   UNL     1     150.708 159.315 189.999  0.00  0.00    +0.059 HD
ATOM    132  H   UNL     1     150.807 160.570 191.255  0.00  0.00    +0.059 HD
BRANCH 130 133
ATOM    133  O   UNL     1     152.020 158.920 191.540  0.00  0.00    -0.380 OA
BRANCH 133 134
ATOM    134  C   UNL     1     152.778 157.951 190.830  0.00  0.00    +0.037 C 
ATOM    135  H   UNL     1     153.597 157.577 191.452  0.00  0.00    +0.052 HD
ATOM    136  H   UNL     1     152.140 157.123 190.507  0.00  0.00    +0.052 HD
ATOM    137  H   UNL     1     153.205 158.433 189.944  0.00  0.00    +0.052 HD
ENDBRANCH 133 134
ENDBRANCH 130 133
ENDBRANCH 128 130
BRANCH 128 138
ATOM    138  O   UNL     1     152.065 160.537 188.468  0.00  0.00    -0.366 OA
BRANCH 138 139
ATOM    139  C   UNL     1     150.685 160.781 188.245  0.00  0.00    +0.038 C 
ATOM    140  H   UNL     1     150.536 161.422 187.369  0.00  0.00    +0.052 HD
ATOM    141  H   UNL     1     150.220 161.230 189.127  0.00  0.00    +0.052 HD
ATOM    142  H   UNL     1     150.195 159.821 188.056  0.00  0.00    +0.052 HD
ENDBRANCH 138 139
ENDBRANCH 128 138
ENDBRANCH 126 128
ENDBRANCH 125 126
ENDBRANCH  90 125
ENDBRANCH  87  90
ENDBRANCH  84  87
ENDBRANCH  78  84
ENDBRANCH  76  78
BRANCH  76 143
ATOM    143  O   UNL     1     148.676 167.113 189.232  0.00  0.00    -0.379 OA
BRANCH 143 144
ATOM    144  C   UNL     1     147.962 167.431 188.045  0.00  0.00    +0.037 C 
ATOM    145  H   UNL     1     147.977 166.554 187.392  0.00  0.00    +0.052 HD
ATOM    146  H   UNL     1     146.920 167.677 188.273  0.00  0.00    +0.052 HD
ATOM    147  H   UNL     1     148.445 168.263 187.520  0.00  0.00    +0.052 HD
ENDBRANCH 143 144
ENDBRANCH  76 143
ENDBRANCH   1  76
TORSDOF 35
ENDMDL
MODEL 2
REMARK VINA RESULT:      -5.7      2.160      5.355
REMARK  Name = Mycalolide B_conf1
REMARK  35 active torsions:
REMARK  status: ('A' for Active; 'I' for Inactive)
REMARK    1  A    between atoms: C_1  and  C_2
REMARK    2  A    between atoms: C_3  and  O_72
REMARK    3  A    between atoms: C_22  and  O_70
REMARK    4  A    between atoms: C_23  and  C_69
REMARK    5  A    between atoms: C_29  and  O_68
REMARK    6  A    between atoms: C_34  and  C_35
REMARK    7  A    between atoms: C_35  and  C_36
REMARK    8  A    between atoms: C_36  and  C_37
REMARK    9  A    between atoms: C_36  and  O_66
REMARK   10  A    between atoms: C_37  and  C_38
REMARK   11  A    between atoms: C_37  and  C_39
REMARK   12  A    between atoms: C_39  and  C_40
REMARK   13  A    between atoms: C_40  and  C_41
REMARK   14  A    between atoms: C_41  and  C_42
REMARK   15  A    between atoms: C_41  and  O_57
REMARK   16  A    between atoms: C_42  and  C_43
REMARK   17  A    between atoms: C_42  and  C_44
REMARK   18  A    between atoms: C_44  and  C_45
REMARK   19  A    between atoms: C_44  and  O_53
REMARK   20  A    between atoms: C_45  and  C_46
REMARK   21  A    between atoms: C_45  and  C_47
REMARK   22  A    between atoms: C_48  and  N_49
REMARK   23  A    between atoms: N_49  and  C_50
REMARK   24  A    between atoms: O_53  and  C_54
REMARK   25  A    between atoms: C_54  and  C_56
REMARK   26  A    between atoms: O_57  and  C_58
REMARK   27  A    between atoms: C_58  and  C_60
REMARK   28  A    between atoms: C_60  and  C_61
REMARK   29  A    between atoms: C_60  and  O_64
REMARK   30  A    between atoms: C_61  and  O_62
REMARK   31  A    between atoms: O_62  and  C_63
REMARK   32  A    between atoms: O_64  and  C_65
REMARK   33  A    between atoms: O_66  and  C_67
REMARK   34  A    between atoms: O_70  and  C_71
REMARK   35  A    between atoms: O_72  and  C_73
REMARK                            x       y       z     vdW  Elec       q    Type
REMARK                         _______ _______ _______ _____ _____    ______ ____
ROOT
ATOM      1  C   UNL     1     150.335 167.105 190.317  0.00  0.00    +0.011 C 
ATOM      2  H   UNL     1     151.364 167.450 190.153  0.00  0.00    +0.033 HD
ATOM      3  H   UNL     1     150.421 166.024 190.471  0.00  0.00    +0.033 HD
ENDROOT
BRANCH   1  36
ATOM      4  C   UNL     1     150.520 167.401 192.890  0.00  0.00    +0.020 C 
ATOM      5  C   UNL     1     149.931 166.226 193.727  0.00  0.00    +0.068 C 
ATOM      6  C   UNL     1     149.734 164.860 193.012  0.00  0.00    -0.008 C 
ATOM      7  C   UNL     1     148.539 164.777 192.104  0.00  0.00    -0.077 C 
ATOM      8  C   UNL     1     148.367 163.887 191.113  0.00  0.00    -0.003 C 
ATOM      9  C   UNL     1     147.194 163.947 190.307  0.00  0.00    +0.220 A 
ATOM     10  N   UNL     1     146.374 164.983 190.218  0.00  0.00    -0.205 NA
ATOM     11  C   UNL     1     145.387 164.605 189.347  0.00  0.00    +0.164 A 
ATOM     12  C   UNL     1     145.639 163.338 188.897  0.00  0.00    +0.125 A 
ATOM     13  O   UNL     1     146.794 162.910 189.479  0.00  0.00    -0.443 OA
ATOM     14  C   UNL     1     144.176 165.506 188.959  0.00  0.00    +0.250 A 
ATOM     15  N   UNL     1     144.032 166.734 189.419  0.00  0.00    -0.203 NA
ATOM     16  C   UNL     1     142.857 167.174 188.866  0.00  0.00    +0.164 A 
ATOM     17  C   UNL     1     142.318 166.190 188.080  0.00  0.00    +0.125 A 
ATOM     18  O   UNL     1     143.155 165.113 188.122  0.00  0.00    -0.442 OA
ATOM     19  C   UNL     1     142.235 168.585 189.106  0.00  0.00    +0.249 A 
ATOM     20  N   UNL     1     142.809 169.509 189.862  0.00  0.00    -0.210 NA
ATOM     21  C   UNL     1     141.972 170.599 189.788  0.00  0.00    +0.109 A 
ATOM     22  C   UNL     1     140.898 170.283 188.987  0.00  0.00    +0.118 A 
ATOM     23  O   UNL     1     141.049 169.003 188.548  0.00  0.00    -0.442 OA
ATOM     24  C   UNL     1     142.315 171.895 190.461  0.00  0.00    +0.113 C 
ATOM     25  C   UNL     1     143.741 172.351 190.081  0.00  0.00    +0.051 C 
ATOM     26  C   UNL     1     144.020 173.699 190.730  0.00  0.00    +0.161 C 
ATOM     27  O   UNL     1     143.206 174.622 190.693  0.00  0.00    -0.292 OA
ATOM     28  C   UNL     1     145.337 173.956 191.384  0.00  0.00    -0.023 C 
ATOM     29  C   UNL     1     146.475 173.301 191.096  0.00  0.00    -0.078 C 
ATOM     30  C   UNL     1     147.797 173.614 191.745  0.00  0.00    -0.008 C 
ATOM     31  C   UNL     1     148.432 172.404 192.457  0.00  0.00    +0.069 C 
ATOM     32  C   UNL     1     149.042 171.396 191.475  0.00  0.00    +0.071 C 
ATOM     33  C   UNL     1     148.929 169.981 191.990  0.00  0.00    +0.310 C 
ATOM     34  O   UNL     1     148.081 169.587 192.776  0.00  0.00    -0.251 OA
ATOM     35  O   UNL     1     149.858 169.196 191.375  0.00  0.00    -0.461 OA
ATOM     36  C   UNL     1     149.749 167.761 191.583  0.00  0.00    +0.110 C 
ATOM     37  H   UNL     1     150.464 168.292 193.529  0.00  0.00    +0.036 HD
ATOM     38  H   UNL     1     150.631 166.028 194.551  0.00  0.00    +0.060 HD
ATOM     39  H   UNL     1     150.650 164.570 192.487  0.00  0.00    +0.033 HD
ATOM     40  H   UNL     1     149.566 164.113 193.801  0.00  0.00    +0.033 HD
ATOM     41  H   UNL     1     147.738 165.494 192.308  0.00  0.00    +0.057 HD
ATOM     42  H   UNL     1     149.097 163.115 190.904  0.00  0.00    +0.067 HD
ATOM     43  H   UNL     1     145.153 162.653 188.218  0.00  0.00    +0.105 HD
ATOM     44  H   UNL     1     141.431 166.096 187.477  0.00  0.00    +0.105 HD
ATOM     45  H   UNL     1     140.019 170.807 188.639  0.00  0.00    +0.105 HD
ATOM     46  H   UNL     1     141.593 172.667 190.162  0.00  0.00    +0.067 HD
ATOM     47  H   UNL     1     144.456 171.615 190.466  0.00  0.00    +0.041 HD
ATOM     48  H   UNL     1     145.320 174.774 192.099  0.00  0.00    +0.065 HD
ATOM     49  H   UNL     1     146.486 172.517 190.343  0.00  0.00    +0.057 HD
ATOM     50  H   UNL     1     148.489 173.996 190.984  0.00  0.00    +0.033 HD
ATOM     51  H   UNL     1     147.679 174.432 192.467  0.00  0.00    +0.033 HD
ATOM     52  H   UNL     1     147.687 171.941 193.114  0.00  0.00    +0.060 HD
ATOM     53  H   UNL     1     150.100 171.627 191.308  0.00  0.00    +0.040 HD
ATOM     54  H   UNL     1     148.526 171.404 190.509  0.00  0.00    +0.040 HD
ATOM     55  H   UNL     1     148.689 167.506 191.669  0.00  0.00    +0.074 HD
BRANCH   4  56
ATOM     56  C   UNL     1     152.028 167.200 192.675  0.00  0.00    -0.057 C 
ATOM     57  H   UNL     1     152.289 166.155 192.481  0.00  0.00    +0.023 HD
ATOM     58  H   UNL     1     152.389 167.807 191.838  0.00  0.00    +0.023 HD
ATOM     59  H   UNL     1     152.588 167.513 193.565  0.00  0.00    +0.023 HD
ENDBRANCH   4  56
BRANCH  25  60
ATOM     60  C   UNL     1     143.932 172.517 188.570  0.00  0.00    -0.053 C 
ATOM     61  H   UNL     1     144.779 171.925 188.206  0.00  0.00    +0.024 HD
ATOM     62  H   UNL     1     144.128 173.562 188.315  0.00  0.00    +0.024 HD
ATOM     63  H   UNL     1     143.045 172.191 188.019  0.00  0.00    +0.024 HD
ENDBRANCH  25  60
BRANCH  31  64
ATOM     64  O   UNL     1     149.492 172.883 193.295  0.00  0.00    -0.391 OA
ATOM     65  H   UNL     1     150.198 173.220 192.711  0.00  0.00    +0.210 HD
ENDBRANCH  31  64
BRANCH  24  66
ATOM     66  O   UNL     1     142.284 171.760 191.896  0.00  0.00    -0.373 OA
BRANCH  66  67
ATOM     67  C   UNL     1     141.210 172.466 192.499  0.00  0.00    +0.037 C 
ATOM     68  H   UNL     1     140.789 171.904 193.337  0.00  0.00    +0.052 HD
ATOM     69  H   UNL     1     140.434 172.685 191.759  0.00  0.00    +0.052 HD
ATOM     70  H   UNL     1     141.596 173.415 192.880  0.00  0.00    +0.052 HD
ENDBRANCH  66  67
ENDBRANCH  24  66
BRANCH   5  71
ATOM     71  O   UNL     1     148.668 166.572 194.319  0.00  0.00    -0.379 OA
BRANCH  71  72
ATOM     72  C   UNL     1     148.522 166.193 195.679  0.00  0.00    +0.037 C 
ATOM     73  H   UNL     1     149.260 165.414 195.898  0.00  0.00    +0.052 HD
ATOM     74  H   UNL     1     148.712 167.042 196.344  0.00  0.00    +0.052 HD
ATOM     75  H   UNL     1     147.532 165.778 195.876  0.00  0.00    +0.052 HD
ENDBRANCH  71  72
ENDBRANCH   5  71
ENDBRANCH   1  36
BRANCH   1  76
ATOM     76  C   UNL     1     149.543 167.316 189.009  0.00  0.00    +0.064 C 
ATOM     77  H   UNL     1     149.897 168.238 188.531  0.00  0.00    +0.060 HD
BRANCH  76  78
ATOM     78  C   UNL     1     149.616 166.182 187.945  0.00  0.00    -0.017 C 
ATOM     79  H   UNL     1     148.598 165.864 187.699  0.00  0.00    +0.032 HD
BRANCH  78  80
ATOM     80  C   UNL     1     150.323 166.634 186.656  0.00  0.00    -0.060 C 
ATOM     81  H   UNL     1     149.643 167.202 186.015  0.00  0.00    +0.023 HD
ATOM     82  H   UNL     1     150.690 165.777 186.083  0.00  0.00    +0.023 HD
ATOM     83  H   UNL     1     151.174 167.288 186.860  0.00  0.00    +0.023 HD
ENDBRANCH  78  80
BRANCH  78  84
ATOM     84  C   UNL     1     150.353 164.968 188.568  0.00  0.00    -0.045 C 
ATOM     85  H   UNL     1     150.657 165.251 189.576  0.00  0.00    +0.027 HD
ATOM     86  H   UNL     1     149.649 164.133 188.668  0.00  0.00    +0.027 HD
BRANCH  84  87
ATOM     87  C   UNL     1     151.586 164.484 187.806  0.00  0.00    -0.015 C 
ATOM     88  H   UNL     1     152.252 165.319 187.563  0.00  0.00    +0.030 HD
ATOM     89  H   UNL     1     151.269 164.087 186.831  0.00  0.00    +0.030 HD
BRANCH  87  90
ATOM     90  C   UNL     1     152.392 163.390 188.537  0.00  0.00    +0.109 C 
ATOM     91  H   UNL     1     152.857 162.755 187.773  0.00  0.00    +0.074 HD
BRANCH  90  92
ATOM     92  C   UNL     1     151.627 162.476 189.555  0.00  0.00    +0.031 C 
ATOM     93  H   UNL     1     150.582 162.813 189.509  0.00  0.00    +0.037 HD
BRANCH  92  94
ATOM     94  C   UNL     1     152.097 162.743 190.990  0.00  0.00    -0.056 C 
ATOM     95  H   UNL     1     153.172 162.608 191.119  0.00  0.00    +0.023 HD
ATOM     96  H   UNL     1     151.845 163.758 191.310  0.00  0.00    +0.023 HD
ATOM     97  H   UNL     1     151.597 162.071 191.692  0.00  0.00    +0.023 HD
ENDBRANCH  92  94
BRANCH  92  98
ATOM     98  C   UNL     1     151.626 160.968 189.154  0.00  0.00    +0.115 C 
ATOM     99  H   UNL     1     151.911 160.381 190.034  0.00  0.00    +0.074 HD
BRANCH  98 100
ATOM    100  C   UNL     1     150.302 160.371 188.586  0.00  0.00    +0.013 C 
ATOM    101  H   UNL     1     150.582 159.653 187.801  0.00  0.00    +0.038 HD
BRANCH 100 102
ATOM    102  C   UNL     1     149.428 161.396 187.855  0.00  0.00    -0.056 C 
ATOM    103  H   UNL     1     149.712 161.514 186.805  0.00  0.00    +0.024 HD
ATOM    104  H   UNL     1     148.375 161.101 187.889  0.00  0.00    +0.024 HD
ATOM    105  H   UNL     1     149.510 162.381 188.329  0.00  0.00    +0.024 HD
ENDBRANCH 100 102
BRANCH 100 106
ATOM    106  C   UNL     1     149.509 159.595 189.618  0.00  0.00    -0.064 C 
ATOM    107  C   UNL     1     148.274 159.139 189.360  0.00  0.00    -0.005 C 
ATOM    108  H   UNL     1     149.989 159.429 190.575  0.00  0.00    +0.059 HD
ATOM    109  H   UNL     1     147.842 159.339 188.375  0.00  0.00    +0.078 HD
BRANCH 107 110
ATOM    110  N   UNL     1     147.446 158.410 190.200  0.00  0.00    -0.284 N 
ATOM    111  C   UNL     1     146.450 158.944 191.004  0.00  0.00    +0.206 C 
ATOM    112  O   UNL     1     145.709 158.316 191.757  0.00  0.00    -0.279 OA
ATOM    113  H   UNL     1     146.361 160.037 190.937  0.00  0.00    +0.126 HD
BRANCH 110 114
ATOM    114  C   UNL     1     147.666 156.967 190.257  0.00  0.00    +0.007 C 
ATOM    115  H   UNL     1     146.738 156.407 190.111  0.00  0.00    +0.043 HD
ATOM    116  H   UNL     1     148.374 156.674 189.477  0.00  0.00    +0.043 HD
ATOM    117  H   UNL     1     148.077 156.716 191.238  0.00  0.00    +0.043 HD
ENDBRANCH 110 114
ENDBRANCH 107 110
ENDBRANCH 100 106
ENDBRANCH  98 100
BRANCH  98 118
ATOM    118  O   UNL     1     152.651 160.791 188.136  0.00  0.00    -0.461 OA
BRANCH 118 119
ATOM    119  C   UNL     1     153.548 159.786 188.330  0.00  0.00    +0.304 C 
ATOM    120  O   UNL     1     154.471 159.804 189.128  0.00  0.00    -0.251 OA
BRANCH 119 121
ATOM    121  C   UNL     1     153.236 158.640 187.416  0.00  0.00    +0.033 C 
ATOM    122  H   UNL     1     153.448 158.924 186.383  0.00  0.00    +0.034 HD
ATOM    123  H   UNL     1     152.173 158.395 187.496  0.00  0.00    +0.034 HD
ATOM    124  H   UNL     1     153.820 157.763 187.703  0.00  0.00    +0.034 HD
ENDBRANCH 119 121
ENDBRANCH 118 119
ENDBRANCH  98 118
ENDBRANCH  92  98
ENDBRANCH  90  92
BRANCH  90 125
ATOM    125  O   UNL     1     153.417 164.078 189.302  0.00  0.00    -0.459 OA
BRANCH 125 126
ATOM    126  C   UNL     1     154.708 163.994 188.850  0.00  0.00    +0.339 C 
ATOM    127  O   UNL     1     155.362 162.961 188.783  0.00  0.00    -0.248 OA
BRANCH 126 128
ATOM    128  C   UNL     1     155.176 165.392 188.399  0.00  0.00    +0.178 C 
ATOM    129  H   UNL     1     154.868 165.520 187.352  0.00  0.00    +0.074 HD
BRANCH 128 130
ATOM    130  C   UNL     1     154.456 166.455 189.247  0.00  0.00    +0.084 C 
ATOM    131  H   UNL     1     155.175 167.070 189.799  0.00  0.00    +0.059 HD
ATOM    132  H   UNL     1     153.801 165.955 189.970  0.00  0.00    +0.059 HD
BRANCH 130 133
ATOM    133  O   UNL     1     153.664 167.316 188.419  0.00  0.00    -0.380 OA
BRANCH 133 134
ATOM    134  C   UNL     1     153.983 167.169 187.042  0.00  0.00    +0.037 C 
ATOM    135  H   UNL     1     153.663 168.052 186.481  0.00  0.00    +0.052 HD
ATOM    136  H   UNL     1     155.058 167.007 186.911  0.00  0.00    +0.052 HD
ATOM    137  H   UNL     1     153.446 166.297 186.657  0.00  0.00    +0.052 HD
ENDBRANCH 133 134
ENDBRANCH 130 133
ENDBRANCH 128 130
BRANCH 128 138
ATOM    138  O   UNL     1     156.578 165.670 188.477  0.00  0.00    -0.366 OA
BRANCH 138 139
ATOM    139  C   UNL     1     157.268 165.439 187.259  0.00  0.00    +0.038 C 
ATOM    140  H   UNL     1     156.853 164.574 186.730  0.00  0.00    +0.052 HD
ATOM    141  H   UNL     1     158.337 165.298 187.437  0.00  0.00    +0.052 HD
ATOM    142  H   UNL     1     157.144 166.323 186.625  0.00  0.00    +0.052 HD
ENDBRANCH 138 139
ENDBRANCH 128 138
ENDBRANCH 126 128
ENDBRANCH 125 126
ENDBRANCH  90 125
ENDBRANCH  87  90
ENDBRANCH  84  87
ENDBRANCH  78  84
ENDBRANCH  76  78
BRANCH  76 143
ATOM    143  O   UNL     1     148.153 167.463 189.372  0.00  0.00    -0.379 OA
BRANCH 143 144
ATOM    144  C   UNL     1     147.471 168.462 188.625  0.00  0.00    +0.037 C 
ATOM    145  H   UNL     1     147.108 168.008 187.699  0.00  0.00    +0.052 HD
ATOM    146  H   UNL     1     146.612 168.845 189.183  0.00  0.00    +0.052 HD
ATOM    147  H   UNL     1     148.154 169.278 188.366  0.00  0.00    +0.052 HD
ENDBRANCH 143 144
ENDBRANCH  76 143
ENDBRANCH   1  76
TORSDOF 35
ENDMDL
MODEL 3
REMARK VINA RESULT:      -5.6      1.952      4.727
REMARK  Name = Mycalolide B_conf1
REMARK  35 active torsions:
REMARK  status: ('A' for Active; 'I' for Inactive)
REMARK    1  A    between atoms: C_1  and  C_2
REMARK    2  A    between atoms: C_3  and  O_72
REMARK    3  A    between atoms: C_22  and  O_70
REMARK    4  A    between atoms: C_23  and  C_69
REMARK    5  A    between atoms: C_29  and  O_68
REMARK    6  A    between atoms: C_34  and  C_35
REMARK    7  A    between atoms: C_35  and  C_36
REMARK    8  A    between atoms: C_36  and  C_37
REMARK    9  A    between atoms: C_36  and  O_66
REMARK   10  A    between atoms: C_37  and  C_38
REMARK   11  A    between atoms: C_37  and  C_39
REMARK   12  A    between atoms: C_39  and  C_40
REMARK   13  A    between atoms: C_40  and  C_41
REMARK   14  A    between atoms: C_41  and  C_42
REMARK   15  A    between atoms: C_41  and  O_57
REMARK   16  A    between atoms: C_42  and  C_43
REMARK   17  A    between atoms: C_42  and  C_44
REMARK   18  A    between atoms: C_44  and  C_45
REMARK   19  A    between atoms: C_44  and  O_53
REMARK   20  A    between atoms: C_45  and  C_46
REMARK   21  A    between atoms: C_45  and  C_47
REMARK   22  A    between atoms: C_48  and  N_49
REMARK   23  A    between atoms: N_49  and  C_50
REMARK   24  A    between atoms: O_53  and  C_54
REMARK   25  A    between atoms: C_54  and  C_56
REMARK   26  A    between atoms: O_57  and  C_58
REMARK   27  A    between atoms: C_58  and  C_60
REMARK   28  A    between atoms: C_60  and  C_61
REMARK   29  A    between atoms: C_60  and  O_64
REMARK   30  A    between atoms: C_61  and  O_62
REMARK   31  A    between atoms: O_62  and  C_63
REMARK   32  A    between atoms: O_64  and  C_65
REMARK   33  A    between atoms: O_66  and  C_67
REMARK   34  A    between atoms: O_70  and  C_71
REMARK   35  A    between atoms: O_72  and  C_73
REMARK                            x       y       z     vdW  Elec       q    Type
REMARK                         _______ _______ _______ _____ _____    ______ ____
ROOT
ATOM      1  C   UNL     1     150.596 166.914 190.467  0.00  0.00    +0.011 C 
ATOM      2  H   UNL     1     151.625 167.272 190.328  0.00  0.00    +0.033 HD
ATOM      3  H   UNL     1     150.695 165.842 190.669  0.00  0.00    +0.033 HD
ENDROOT
BRANCH   1  36
ATOM      4  C   UNL     1     150.670 167.312 193.032  0.00  0.00    +0.020 C 
ATOM      5  C   UNL     1     150.062 166.162 193.890  0.00  0.00    +0.068 C 
ATOM      6  C   UNL     1     149.913 164.766 193.221  0.00  0.00    -0.008 C 
ATOM      7  C   UNL     1     148.757 164.631 192.269  0.00  0.00    -0.077 C 
ATOM      8  C   UNL     1     148.638 163.701 191.307  0.00  0.00    -0.003 C 
ATOM      9  C   UNL     1     147.499 163.712 190.451  0.00  0.00    +0.220 A 
ATOM     10  N   UNL     1     146.671 164.733 190.289  0.00  0.00    -0.205 NA
ATOM     11  C   UNL     1     145.725 164.307 189.393  0.00  0.00    +0.164 A 
ATOM     12  C   UNL     1     146.012 163.028 189.004  0.00  0.00    +0.125 A 
ATOM     13  O   UNL     1     147.148 162.639 189.649  0.00  0.00    -0.443 OA
ATOM     14  C   UNL     1     144.520 165.174 188.921  0.00  0.00    +0.250 A 
ATOM     15  N   UNL     1     144.342 166.417 189.326  0.00  0.00    -0.203 NA
ATOM     16  C   UNL     1     143.185 166.819 188.708  0.00  0.00    +0.164 A 
ATOM     17  C   UNL     1     142.692 165.797 187.940  0.00  0.00    +0.125 A 
ATOM     18  O   UNL     1     143.540 164.735 188.058  0.00  0.00    -0.442 OA
ATOM     19  C   UNL     1     142.536 168.229 188.867  0.00  0.00    +0.249 A 
ATOM     20  N   UNL     1     143.066 169.189 189.609  0.00  0.00    -0.210 NA
ATOM     21  C   UNL     1     142.218 170.264 189.458  0.00  0.00    +0.109 A 
ATOM     22  C   UNL     1     141.183 169.902 188.626  0.00  0.00    +0.118 A 
ATOM     23  O   UNL     1     141.369 168.608 188.245  0.00  0.00    -0.442 OA
ATOM     24  C   UNL     1     142.517 171.590 190.093  0.00  0.00    +0.113 C 
ATOM     25  C   UNL     1     143.951 172.051 189.754  0.00  0.00    +0.051 C 
ATOM     26  C   UNL     1     144.186 173.428 190.360  0.00  0.00    +0.161 C 
ATOM     27  O   UNL     1     143.363 174.336 190.254  0.00  0.00    -0.292 OA
ATOM     28  C   UNL     1     145.471 173.728 191.058  0.00  0.00    -0.023 C 
ATOM     29  C   UNL     1     146.628 173.079 190.842  0.00  0.00    -0.078 C 
ATOM     30  C   UNL     1     147.918 173.436 191.533  0.00  0.00    -0.008 C 
ATOM     31  C   UNL     1     148.538 172.263 192.317  0.00  0.00    +0.069 C 
ATOM     32  C   UNL     1     149.202 171.227 191.401  0.00  0.00    +0.071 C 
ATOM     33  C   UNL     1     149.085 169.832 191.966  0.00  0.00    +0.310 C 
ATOM     34  O   UNL     1     148.210 169.456 192.732  0.00  0.00    -0.251 OA
ATOM     35  O   UNL     1     150.049 169.037 191.422  0.00  0.00    -0.461 OA
ATOM     36  C   UNL     1     149.949 167.610 191.681  0.00  0.00    +0.110 C 
ATOM     37  H   UNL     1     150.577 168.226 193.632  0.00  0.00    +0.036 HD
ATOM     38  H   UNL     1     150.729 166.006 194.748  0.00  0.00    +0.060 HD
ATOM     39  H   UNL     1     150.853 164.469 192.746  0.00  0.00    +0.033 HD
ATOM     40  H   UNL     1     149.721 164.048 194.031  0.00  0.00    +0.033 HD
ATOM     41  H   UNL     1     147.940 165.344 192.411  0.00  0.00    +0.057 HD
ATOM     42  H   UNL     1     149.387 162.932 191.158  0.00  0.00    +0.067 HD
ATOM     43  H   UNL     1     145.563 162.310 188.333  0.00  0.00    +0.105 HD
ATOM     44  H   UNL     1     141.832 165.667 187.305  0.00  0.00    +0.105 HD
ATOM     45  H   UNL     1     140.313 170.400 188.223  0.00  0.00    +0.105 HD
ATOM     46  H   UNL     1     141.798 172.339 189.735  0.00  0.00    +0.067 HD
ATOM     47  H   UNL     1     144.659 171.341 190.197  0.00  0.00    +0.041 HD
ATOM     48  H   UNL     1     145.414 174.573 191.739  0.00  0.00    +0.065 HD
ATOM     49  H   UNL     1     146.681 172.267 190.122  0.00  0.00    +0.057 HD
ATOM     50  H   UNL     1     148.636 173.798 190.786  0.00  0.00    +0.033 HD
ATOM     51  H   UNL     1     147.759 174.279 192.217  0.00  0.00    +0.033 HD
ATOM     52  H   UNL     1     147.773 171.816 192.961  0.00  0.00    +0.060 HD
ATOM     53  H   UNL     1     150.262 171.467 191.269  0.00  0.00    +0.040 HD
ATOM     54  H   UNL     1     148.726 171.190 190.415  0.00  0.00    +0.040 HD
ATOM     55  H   UNL     1     148.890 167.343 191.733  0.00  0.00    +0.074 HD
BRANCH   4  56
ATOM     56  C   UNL     1     152.189 167.124 192.887  0.00  0.00    -0.057 C 
ATOM     57  H   UNL     1     152.451 166.171 192.417  0.00  0.00    +0.023 HD
ATOM     58  H   UNL     1     152.629 167.934 192.296  0.00  0.00    +0.023 HD
ATOM     59  H   UNL     1     152.673 167.143 193.871  0.00  0.00    +0.023 HD
ENDBRANCH   4  56
BRANCH  25  60
ATOM     60  C   UNL     1     144.203 172.162 188.247  0.00  0.00    -0.053 C 
ATOM     61  H   UNL     1     143.340 172.593 187.728  0.00  0.00    +0.024 HD
ATOM     62  H   UNL     1     144.391 171.178 187.810  0.00  0.00    +0.024 HD
ATOM     63  H   UNL     1     145.065 172.801 188.034  0.00  0.00    +0.024 HD
ENDBRANCH  25  60
BRANCH  31  64
ATOM     64  O   UNL     1     149.557 172.790 193.178  0.00  0.00    -0.391 OA
ATOM     65  H   UNL     1     149.198 173.595 193.599  0.00  0.00    +0.210 HD
ENDBRANCH  31  64
BRANCH  24  66
ATOM     66  O   UNL     1     142.428 171.510 191.529  0.00  0.00    -0.373 OA
BRANCH  66  67
ATOM     67  C   UNL     1     141.292 172.181 192.056  0.00  0.00    +0.037 C 
ATOM     68  H   UNL     1     141.236 172.069 193.141  0.00  0.00    +0.052 HD
ATOM     69  H   UNL     1     140.377 171.808 191.586  0.00  0.00    +0.052 HD
ATOM     70  H   UNL     1     141.386 173.245 191.824  0.00  0.00    +0.052 HD
ENDBRANCH  66  67
ENDBRANCH  24  66
BRANCH   5  71
ATOM     71  O   UNL     1     148.771 166.512 194.415  0.00  0.00    -0.379 OA
BRANCH  71  72
ATOM     72  C   UNL     1     148.568 166.171 195.778  0.00  0.00    +0.037 C 
ATOM     73  H   UNL     1     148.475 165.082 195.847  0.00  0.00    +0.052 HD
ATOM     74  H   UNL     1     149.422 166.482 196.389  0.00  0.00    +0.052 HD
ATOM     75  H   UNL     1     147.649 166.610 196.168  0.00  0.00    +0.052 HD
ENDBRANCH  71  72
ENDBRANCH   5  71
ENDBRANCH   1  36
BRANCH   1  76
ATOM     76  C   UNL     1     149.853 167.055 189.122  0.00  0.00    +0.064 C 
ATOM     77  H   UNL     1     150.102 168.031 188.685  0.00  0.00    +0.060 HD
BRANCH  76  78
ATOM     78  C   UNL     1     150.135 165.974 188.038  0.00  0.00    -0.017 C 
ATOM     79  H   UNL     1     150.778 165.202 188.471  0.00  0.00    +0.032 HD
BRANCH  78  80
ATOM     80  C   UNL     1     148.846 165.317 187.518  0.00  0.00    -0.060 C 
ATOM     81  H   UNL     1     147.970 165.925 187.762  0.00  0.00    +0.023 HD
ATOM     82  H   UNL     1     148.701 164.325 187.956  0.00  0.00    +0.023 HD
ATOM     83  H   UNL     1     148.849 165.204 186.431  0.00  0.00    +0.023 HD
ENDBRANCH  78  80
BRANCH  78  84
ATOM     84  C   UNL     1     150.912 166.637 186.871  0.00  0.00    -0.045 C 
ATOM     85  H   UNL     1     151.170 165.852 186.160  0.00  0.00    +0.027 HD
ATOM     86  H   UNL     1     150.249 167.337 186.349  0.00  0.00    +0.027 HD
BRANCH  84  87
ATOM     87  C   UNL     1     152.192 167.375 187.268  0.00  0.00    -0.015 C 
ATOM     88  H   UNL     1     152.064 167.899 188.221  0.00  0.00    +0.030 HD
ATOM     89  H   UNL     1     152.386 168.170 186.535  0.00  0.00    +0.030 HD
BRANCH  87  90
ATOM     90  C   UNL     1     153.441 166.473 187.350  0.00  0.00    +0.109 C 
ATOM     91  H   UNL     1     153.384 165.753 186.525  0.00  0.00    +0.074 HD
BRANCH  90  92
ATOM     92  C   UNL     1     153.692 165.692 188.686  0.00  0.00    +0.031 C 
ATOM     93  H   UNL     1     152.774 165.832 189.273  0.00  0.00    +0.037 HD
BRANCH  92  94
ATOM     94  C   UNL     1     154.820 166.341 189.496  0.00  0.00    -0.056 C 
ATOM     95  H   UNL     1     155.447 165.615 190.015  0.00  0.00    +0.023 HD
ATOM     96  H   UNL     1     155.470 166.949 188.858  0.00  0.00    +0.023 HD
ATOM     97  H   UNL     1     154.414 167.021 190.250  0.00  0.00    +0.023 HD
ENDBRANCH  92  94
BRANCH  92  98
ATOM     98  C   UNL     1     153.859 164.153 188.482  0.00  0.00    +0.115 C 
ATOM     99  H   UNL     1     154.770 163.983 187.900  0.00  0.00    +0.074 HD
BRANCH  98 100
ATOM    100  C   UNL     1     153.927 163.258 189.757  0.00  0.00    +0.013 C 
ATOM    101  H   UNL     1     154.068 163.931 190.616  0.00  0.00    +0.038 HD
BRANCH 100 102
ATOM    102  C   UNL     1     155.154 162.341 189.801  0.00  0.00    -0.056 C 
ATOM    103  H   UNL     1     155.031 161.448 189.181  0.00  0.00    +0.024 HD
ATOM    104  H   UNL     1     156.047 162.870 189.457  0.00  0.00    +0.024 HD
ATOM    105  H   UNL     1     155.346 162.002 190.826  0.00  0.00    +0.024 HD
ENDBRANCH 100 102
BRANCH 100 106
ATOM    106  C   UNL     1     152.647 162.491 190.015  0.00  0.00    -0.064 C 
ATOM    107  C   UNL     1     152.654 161.173 190.267  0.00  0.00    -0.005 C 
ATOM    108  H   UNL     1     151.726 163.060 189.982  0.00  0.00    +0.059 HD
ATOM    109  H   UNL     1     153.616 160.653 190.285  0.00  0.00    +0.078 HD
BRANCH 107 110
ATOM    110  N   UNL     1     151.566 160.354 190.531  0.00  0.00    -0.284 N 
ATOM    111  C   UNL     1     150.240 160.684 190.295  0.00  0.00    +0.206 C 
ATOM    112  O   UNL     1     149.262 159.975 190.525  0.00  0.00    -0.279 OA
ATOM    113  H   UNL     1     150.098 161.688 189.874  0.00  0.00    +0.126 HD
BRANCH 110 114
ATOM    114  C   UNL     1     151.847 159.053 191.131  0.00  0.00    +0.007 C 
ATOM    115  H   UNL     1     151.336 158.926 192.089  0.00  0.00    +0.043 HD
ATOM    116  H   UNL     1     151.519 158.260 190.454  0.00  0.00    +0.043 HD
ATOM    117  H   UNL     1     152.926 158.971 191.295  0.00  0.00    +0.043 HD
ENDBRANCH 110 114
ENDBRANCH 107 110
ENDBRANCH 100 106
ENDBRANCH  98 100
BRANCH  98 118
ATOM    118  O   UNL     1     152.723 163.697 187.695  0.00  0.00    -0.461 OA
BRANCH 118 119
ATOM    119  C   UNL     1     152.994 163.142 186.482  0.00  0.00    +0.304 C 
ATOM    120  O   UNL     1     154.059 162.646 186.151  0.00  0.00    -0.251 OA
BRANCH 119 121
ATOM    121  C   UNL     1     151.784 163.224 185.602  0.00  0.00    +0.033 C 
ATOM    122  H   UNL     1     151.560 162.239 185.190  0.00  0.00    +0.034 HD
ATOM    123  H   UNL     1     151.986 163.909 184.772  0.00  0.00    +0.034 HD
ATOM    124  H   UNL     1     150.933 163.607 186.170  0.00  0.00    +0.034 HD
ENDBRANCH 119 121
ENDBRANCH 118 119
ENDBRANCH  98 118
ENDBRANCH  92  98
ENDBRANCH  90  92
BRANCH  90 125
ATOM    125  O   UNL     1     154.588 167.344 187.169  0.00  0.00    -0.459 OA
BRANCH 125 126
ATOM    126  C   UNL     1     155.259 167.271 185.977  0.00  0.00    +0.339 C 
ATOM    127  O   UNL     1     155.464 168.218 185.228  0.00  0.00    -0.248 OA
BRANCH 126 128
ATOM    128  C   UNL     1     155.750 165.826 185.762  0.00  0.00    +0.178 C 
ATOM    129  H   UNL     1     155.108 165.167 186.365  0.00  0.00    +0.074 HD
BRANCH 128 130
ATOM    130  C   UNL     1     155.563 165.453 184.280  0.00  0.00    +0.084 C 
ATOM    131  H   UNL     1     156.034 164.489 184.056  0.00  0.00    +0.059 HD
ATOM    132  H   UNL     1     156.032 166.222 183.655  0.00  0.00    +0.059 HD
BRANCH 130 133
ATOM    133  O   UNL     1     154.172 165.368 183.947  0.00  0.00    -0.380 OA
BRANCH 133 134
ATOM    134  C   UNL     1     153.886 165.981 182.698  0.00  0.00    +0.037 C 
ATOM    135  H   UNL     1     153.518 165.237 181.985  0.00  0.00    +0.052 HD
ATOM    136  H   UNL     1     153.152 166.783 182.821  0.00  0.00    +0.052 HD
ATOM    137  H   UNL     1     154.814 166.410 182.307  0.00  0.00    +0.052 HD
ENDBRANCH 133 134
ENDBRANCH 130 133
ENDBRANCH 128 130
BRANCH 128 138
ATOM    138  O   UNL     1     157.110 165.538 186.101  0.00  0.00    -0.366 OA
BRANCH 138 139
ATOM    139  C   UNL     1     157.244 164.536 187.097  0.00  0.00    +0.038 C 
ATOM    140  H   UNL     1     156.265 164.142 187.392  0.00  0.00    +0.052 HD
ATOM    141  H   UNL     1     157.776 164.922 187.970  0.00  0.00    +0.052 HD
ATOM    142  H   UNL     1     157.833 163.715 186.677  0.00  0.00    +0.052 HD
ENDBRANCH 138 139
ENDBRANCH 128 138
ENDBRANCH 126 128
ENDBRANCH 125 126
ENDBRANCH  90 125
ENDBRANCH  87  90
ENDBRANCH  84  87
ENDBRANCH  78  84
ENDBRANCH  76  78
BRANCH  76 143
ATOM    143  O   UNL     1     148.438 167.002 189.410  0.00  0.00    -0.379 OA
BRANCH 143 144
ATOM    144  C   UNL     1     147.716 168.130 188.935  0.00  0.00    +0.037 C 
ATOM    145  H   UNL     1     148.037 169.007 189.505  0.00  0.00    +0.052 HD
ATOM    146  H   UNL     1     147.927 168.309 187.876  0.00  0.00    +0.052 HD
ATOM    147  H   UNL     1     146.641 167.989 189.092  0.00  0.00    +0.052 HD
ENDBRANCH 143 144
ENDBRANCH  76 143
ENDBRANCH   1  76
TORSDOF 35
ENDMDL
MODEL 4
REMARK VINA RESULT:      -5.6      1.934      4.831
REMARK  Name = Mycalolide B_conf1
REMARK  35 active torsions:
REMARK  status: ('A' for Active; 'I' for Inactive)
REMARK    1  A    between atoms: C_1  and  C_2
REMARK    2  A    between atoms: C_3  and  O_72
REMARK    3  A    between atoms: C_22  and  O_70
REMARK    4  A    between atoms: C_23  and  C_69
REMARK    5  A    between atoms: C_29  and  O_68
REMARK    6  A    between atoms: C_34  and  C_35
REMARK    7  A    between atoms: C_35  and  C_36
REMARK    8  A    between atoms: C_36  and  C_37
REMARK    9  A    between atoms: C_36  and  O_66
REMARK   10  A    between atoms: C_37  and  C_38
REMARK   11  A    between atoms: C_37  and  C_39
REMARK   12  A    between atoms: C_39  and  C_40
REMARK   13  A    between atoms: C_40  and  C_41
REMARK   14  A    between atoms: C_41  and  C_42
REMARK   15  A    between atoms: C_41  and  O_57
REMARK   16  A    between atoms: C_42  and  C_43
REMARK   17  A    between atoms: C_42  and  C_44
REMARK   18  A    between atoms: C_44  and  C_45
REMARK   19  A    between atoms: C_44  and  O_53
REMARK   20  A    between atoms: C_45  and  C_46
REMARK   21  A    between atoms: C_45  and  C_47
REMARK   22  A    between atoms: C_48  and  N_49
REMARK   23  A    between atoms: N_49  and  C_50
REMARK   24  A    between atoms: O_53  and  C_54
REMARK   25  A    between atoms: C_54  and  C_56
REMARK   26  A    between atoms: O_57  and  C_58
REMARK   27  A    between atoms: C_58  and  C_60
REMARK   28  A    between atoms: C_60  and  C_61
REMARK   29  A    between atoms: C_60  and  O_64
REMARK   30  A    between atoms: C_61  and  O_62
REMARK   31  A    between atoms: O_62  and  C_63
REMARK   32  A    between atoms: O_64  and  C_65
REMARK   33  A    between atoms: O_66  and  C_67
REMARK   34  A    between atoms: O_70  and  C_71
REMARK   35  A    between atoms: O_72  and  C_73
REMARK                            x       y       z     vdW  Elec       q    Type
REMARK                         _______ _______ _______ _____ _____    ______ ____
ROOT
ATOM      1  C   UNL     1     150.684 166.880 190.528  0.00  0.00    +0.011 C 
ATOM      2  H   UNL     1     151.715 167.237 190.410  0.00  0.00    +0.033 HD
ATOM      3  H   UNL     1     150.778 165.806 190.722  0.00  0.00    +0.033 HD
ENDROOT
BRANCH   1  36
ATOM      4  C   UNL     1     150.717 167.256 193.097  0.00  0.00    +0.020 C 
ATOM      5  C   UNL     1     150.094 166.099 193.935  0.00  0.00    +0.068 C 
ATOM      6  C   UNL     1     149.955 164.709 193.252  0.00  0.00    -0.008 C 
ATOM      7  C   UNL     1     148.815 164.583 192.280  0.00  0.00    -0.077 C 
ATOM      8  C   UNL     1     148.711 163.661 191.309  0.00  0.00    -0.003 C 
ATOM      9  C   UNL     1     147.586 163.681 190.435  0.00  0.00    +0.220 A 
ATOM     10  N   UNL     1     146.761 164.703 190.268  0.00  0.00    -0.205 NA
ATOM     11  C   UNL     1     145.829 164.285 189.354  0.00  0.00    +0.164 A 
ATOM     12  C   UNL     1     146.122 163.009 188.957  0.00  0.00    +0.125 A 
ATOM     13  O   UNL     1     147.247 162.614 189.618  0.00  0.00    -0.443 OA
ATOM     14  C   UNL     1     144.633 165.158 188.869  0.00  0.00    +0.250 A 
ATOM     15  N   UNL     1     144.448 166.397 189.282  0.00  0.00    -0.203 NA
ATOM     16  C   UNL     1     143.302 166.805 188.649  0.00  0.00    +0.164 A 
ATOM     17  C   UNL     1     142.821 165.790 187.865  0.00  0.00    +0.125 A 
ATOM     18  O   UNL     1     143.667 164.727 187.987  0.00  0.00    -0.442 OA
ATOM     19  C   UNL     1     142.651 168.214 188.810  0.00  0.00    +0.249 A 
ATOM     20  N   UNL     1     143.170 169.167 189.568  0.00  0.00    -0.210 NA
ATOM     21  C   UNL     1     142.325 170.244 189.413  0.00  0.00    +0.109 A 
ATOM     22  C   UNL     1     141.303 169.889 188.562  0.00  0.00    +0.118 A 
ATOM     23  O   UNL     1     141.494 168.599 188.172  0.00  0.00    -0.442 OA
ATOM     24  C   UNL     1     142.614 171.565 190.064  0.00  0.00    +0.113 C 
ATOM     25  C   UNL     1     144.054 172.027 189.752  0.00  0.00    +0.051 C 
ATOM     26  C   UNL     1     144.280 173.398 190.374  0.00  0.00    +0.161 C 
ATOM     27  O   UNL     1     143.459 174.309 190.262  0.00  0.00    -0.292 OA
ATOM     28  C   UNL     1     145.554 173.692 191.095  0.00  0.00    -0.023 C 
ATOM     29  C   UNL     1     146.714 173.044 190.893  0.00  0.00    -0.078 C 
ATOM     30  C   UNL     1     147.993 173.394 191.606  0.00  0.00    -0.008 C 
ATOM     31  C   UNL     1     148.599 172.214 192.391  0.00  0.00    +0.069 C 
ATOM     32  C   UNL     1     149.277 171.186 191.477  0.00  0.00    +0.071 C 
ATOM     33  C   UNL     1     149.150 169.786 192.027  0.00  0.00    +0.310 C 
ATOM     34  O   UNL     1     148.263 169.404 192.776  0.00  0.00    -0.251 OA
ATOM     35  O   UNL     1     150.123 168.994 191.492  0.00  0.00    -0.461 OA
ATOM     36  C   UNL     1     150.018 167.565 191.738  0.00  0.00    +0.110 C 
ATOM     37  H   UNL     1     150.614 168.165 193.704  0.00  0.00    +0.036 HD
ATOM     38  H   UNL     1     150.747 165.935 194.803  0.00  0.00    +0.060 HD
ATOM     39  H   UNL     1     150.902 164.415 192.790  0.00  0.00    +0.033 HD
ATOM     40  H   UNL     1     149.750 163.984 194.052  0.00  0.00    +0.033 HD
ATOM     41  H   UNL     1     147.996 165.295 192.416  0.00  0.00    +0.057 HD
ATOM     42  H   UNL     1     149.461 162.893 191.165  0.00  0.00    +0.067 HD
ATOM     43  H   UNL     1     145.684 162.298 188.273  0.00  0.00    +0.105 HD
ATOM     44  H   UNL     1     141.971 165.666 187.214  0.00  0.00    +0.105 HD
ATOM     45  H   UNL     1     140.440 170.392 188.148  0.00  0.00    +0.105 HD
ATOM     46  H   UNL     1     141.902 172.317 189.701  0.00  0.00    +0.067 HD
ATOM     47  H   UNL     1     144.754 171.313 190.200  0.00  0.00    +0.041 HD
ATOM     48  H   UNL     1     145.486 174.531 191.782  0.00  0.00    +0.065 HD
ATOM     49  H   UNL     1     146.778 172.238 190.166  0.00  0.00    +0.057 HD
ATOM     50  H   UNL     1     148.723 173.762 190.875  0.00  0.00    +0.033 HD
ATOM     51  H   UNL     1     147.823 174.232 192.295  0.00  0.00    +0.033 HD
ATOM     52  H   UNL     1     147.824 171.762 193.018  0.00  0.00    +0.060 HD
ATOM     53  H   UNL     1     150.340 171.426 191.364  0.00  0.00    +0.040 HD
ATOM     54  H   UNL     1     148.817 171.158 190.483  0.00  0.00    +0.040 HD
ATOM     55  H   UNL     1     148.958 167.299 191.770  0.00  0.00    +0.074 HD
BRANCH   4  56
ATOM     56  C   UNL     1     152.238 167.068 192.975  0.00  0.00    -0.057 C 
ATOM     57  H   UNL     1     152.789 168.001 193.129  0.00  0.00    +0.023 HD
ATOM     58  H   UNL     1     152.600 166.328 193.695  0.00  0.00    +0.023 HD
ATOM     59  H   UNL     1     152.499 166.701 191.974  0.00  0.00    +0.023 HD
ENDBRANCH   4  56
BRANCH  25  60
ATOM     60  C   UNL     1     144.330 172.151 188.251  0.00  0.00    -0.053 C 
ATOM     61  H   UNL     1     143.965 171.275 187.703  0.00  0.00    +0.024 HD
ATOM     62  H   UNL     1     145.403 172.235 188.057  0.00  0.00    +0.024 HD
ATOM     63  H   UNL     1     143.836 173.030 187.827  0.00  0.00    +0.024 HD
ENDBRANCH  25  60
BRANCH  31  64
ATOM     64  O   UNL     1     149.604 172.733 193.273  0.00  0.00    -0.391 OA
ATOM     65  H   UNL     1     149.181 173.410 193.834  0.00  0.00    +0.210 HD
ENDBRANCH  31  64
BRANCH  24  66
ATOM     66  O   UNL     1     142.502 171.472 191.498  0.00  0.00    -0.373 OA
BRANCH  66  67
ATOM     67  C   UNL     1     141.366 172.151 192.014  0.00  0.00    +0.037 C 
ATOM     68  H   UNL     1     140.481 171.958 191.403  0.00  0.00    +0.052 HD
ATOM     69  H   UNL     1     141.559 173.227 192.074  0.00  0.00    +0.052 HD
ATOM     70  H   UNL     1     141.175 171.780 193.024  0.00  0.00    +0.052 HD
ENDBRANCH  66  67
ENDBRANCH  24  66
BRANCH   5  71
ATOM     71  O   UNL     1     148.795 166.445 194.442  0.00  0.00    -0.379 OA
BRANCH  71  72
ATOM     72  C   UNL     1     148.608 166.191 195.826  0.00  0.00    +0.037 C 
ATOM     73  H   UNL     1     149.228 165.333 196.103  0.00  0.00    +0.052 HD
ATOM     74  H   UNL     1     148.922 167.051 196.427  0.00  0.00    +0.052 HD
ATOM     75  H   UNL     1     147.570 165.938 196.050  0.00  0.00    +0.052 HD
ENDBRANCH  71  72
ENDBRANCH   5  71
ENDBRANCH   1  36
BRANCH   1  76
ATOM     76  C   UNL     1     149.963 167.035 189.172  0.00  0.00    +0.064 C 
ATOM     77  H   UNL     1     150.215 168.017 188.752  0.00  0.00    +0.060 HD
BRANCH  76  78
ATOM     78  C   UNL     1     150.270 165.969 188.079  0.00  0.00    -0.017 C 
ATOM     79  H   UNL     1     150.874 165.172 188.524  0.00  0.00    +0.032 HD
BRANCH  78  80
ATOM     80  C   UNL     1     148.992 165.355 187.485  0.00  0.00    -0.060 C 
ATOM     81  H   UNL     1     148.542 164.639 188.180  0.00  0.00    +0.023 HD
ATOM     82  H   UNL     1     149.201 164.830 186.549  0.00  0.00    +0.023 HD
ATOM     83  H   UNL     1     148.227 166.109 187.282  0.00  0.00    +0.023 HD
ENDBRANCH  78  80
BRANCH  78  84
ATOM     84  C   UNL     1     151.117 166.637 186.964  0.00  0.00    -0.045 C 
ATOM     85  H   UNL     1     151.248 165.903 186.168  0.00  0.00    +0.027 HD
ATOM     86  H   UNL     1     150.554 167.476 186.538  0.00  0.00    +0.027 HD
BRANCH  84  87
ATOM     87  C   UNL     1     152.495 167.138 187.396  0.00  0.00    -0.015 C 
ATOM     88  H   UNL     1     152.428 167.737 188.311  0.00  0.00    +0.030 HD
ATOM     89  H   UNL     1     152.876 167.833 186.634  0.00  0.00    +0.030 HD
BRANCH  87  90
ATOM     90  C   UNL     1     153.539 166.020 187.599  0.00  0.00    +0.109 C 
ATOM     91  H   UNL     1     153.188 165.135 187.055  0.00  0.00    +0.074 HD
BRANCH  90  92
ATOM     92  C   UNL     1     153.884 165.602 189.070  0.00  0.00    +0.031 C 
ATOM     93  H   UNL     1     153.122 166.092 189.691  0.00  0.00    +0.037 HD
BRANCH  92  94
ATOM     94  C   UNL     1     155.232 166.191 189.505  0.00  0.00    -0.056 C 
ATOM     95  H   UNL     1     155.363 167.230 189.199  0.00  0.00    +0.023 HD
ATOM     96  H   UNL     1     155.356 166.144 190.591  0.00  0.00    +0.023 HD
ATOM     97  H   UNL     1     156.060 165.618 189.080  0.00  0.00    +0.023 HD
ENDBRANCH  92  94
BRANCH  92  98
ATOM     98  C   UNL     1     153.748 164.068 189.327  0.00  0.00    +0.115 C 
ATOM     99  H   UNL     1     154.414 163.800 190.153  0.00  0.00    +0.074 HD
BRANCH  98 100
ATOM    100  C   UNL     1     152.327 163.513 189.654  0.00  0.00    +0.013 C 
ATOM    101  H   UNL     1     151.664 164.381 189.786  0.00  0.00    +0.038 HD
BRANCH 100 102
ATOM    102  C   UNL     1     152.246 162.779 190.997  0.00  0.00    -0.056 C 
ATOM    103  H   UNL     1     151.235 162.786 191.417  0.00  0.00    +0.024 HD
ATOM    104  H   UNL     1     152.559 161.737 190.888  0.00  0.00    +0.024 HD
ATOM    105  H   UNL     1     152.909 163.247 191.733  0.00  0.00    +0.024 HD
ENDBRANCH 100 102
BRANCH 100 106
ATOM    106  C   UNL     1     151.738 162.687 188.529  0.00  0.00    -0.064 C 
ATOM    107  C   UNL     1     150.630 161.951 188.702  0.00  0.00    -0.005 C 
ATOM    108  H   UNL     1     152.259 162.719 187.580  0.00  0.00    +0.059 HD
ATOM    109  H   UNL     1     150.150 161.958 189.685  0.00  0.00    +0.078 HD
BRANCH 107 110
ATOM    110  N   UNL     1     149.980 161.164 187.764  0.00  0.00    -0.284 N 
ATOM    111  C   UNL     1     149.118 161.634 186.783  0.00  0.00    +0.206 C 
ATOM    112  O   UNL     1     148.530 160.952 185.945  0.00  0.00    -0.279 OA
ATOM    113  H   UNL     1     148.968 162.721 186.804  0.00  0.00    +0.126 HD
BRANCH 110 114
ATOM    114  C   UNL     1     150.205 159.723 187.838  0.00  0.00    +0.007 C 
ATOM    115  H   UNL     1     149.473 159.228 188.482  0.00  0.00    +0.043 HD
ATOM    116  H   UNL     1     150.135 159.290 186.836  0.00  0.00    +0.043 HD
ATOM    117  H   UNL     1     151.205 159.547 188.243  0.00  0.00    +0.043 HD
ENDBRANCH 110 114
ENDBRANCH 107 110
ENDBRANCH 100 106
ENDBRANCH  98 100
BRANCH  98 118
ATOM    118  O   UNL     1     154.211 163.387 188.127  0.00  0.00    -0.461 OA
BRANCH 118 119
ATOM    119  C   UNL     1     155.487 162.914 188.139  0.00  0.00    +0.304 C 
ATOM    120  O   UNL     1     156.242 162.884 187.179  0.00  0.00    -0.251 OA
BRANCH 119 121
ATOM    121  C   UNL     1     155.840 162.433 189.514  0.00  0.00    +0.033 C 
ATOM    122  H   UNL     1     155.262 162.985 190.257  0.00  0.00    +0.034 HD
ATOM    123  H   UNL     1     156.903 162.615 189.697  0.00  0.00    +0.034 HD
ATOM    124  H   UNL     1     155.651 161.360 189.595  0.00  0.00    +0.034 HD
ENDBRANCH 119 121
ENDBRANCH 118 119
ENDBRANCH  98 118
ENDBRANCH  92  98
ENDBRANCH  90  92
BRANCH  90 125
ATOM    125  O   UNL     1     154.777 166.503 187.015  0.00  0.00    -0.459 OA
BRANCH 125 126
ATOM    126  C   UNL     1     155.127 166.020 185.782  0.00  0.00    +0.339 C 
ATOM    127  O   UNL     1     154.533 165.134 185.181  0.00  0.00    -0.248 OA
BRANCH 126 128
ATOM    128  C   UNL     1     156.347 166.805 185.260  0.00  0.00    +0.178 C 
ATOM    129  H   UNL     1     156.646 166.351 184.304  0.00  0.00    +0.074 HD
BRANCH 128 130
ATOM    130  C   UNL     1     155.923 168.260 184.990  0.00  0.00    +0.084 C 
ATOM    131  H   UNL     1     155.508 168.722 185.893  0.00  0.00    +0.059 HD
ATOM    132  H   UNL     1     155.153 168.271 184.210  0.00  0.00    +0.059 HD
BRANCH 130 133
ATOM    133  O   UNL     1     157.041 169.043 184.552  0.00  0.00    -0.380 OA
BRANCH 133 134
ATOM    134  C   UNL     1     156.959 170.386 185.006  0.00  0.00    +0.037 C 
ATOM    135  H   UNL     1     156.557 171.031 184.219  0.00  0.00    +0.052 HD
ATOM    136  H   UNL     1     156.336 170.452 185.904  0.00  0.00    +0.052 HD
ATOM    137  H   UNL     1     157.970 170.727 185.253  0.00  0.00    +0.052 HD
ENDBRANCH 133 134
ENDBRANCH 130 133
ENDBRANCH 128 130
BRANCH 128 138
ATOM    138  O   UNL     1     157.504 166.852 186.099  0.00  0.00    -0.366 OA
BRANCH 138 139
ATOM    139  C   UNL     1     158.394 165.765 185.896  0.00  0.00    +0.038 C 
ATOM    140  H   UNL     1     157.853 164.813 185.880  0.00  0.00    +0.052 HD
ATOM    141  H   UNL     1     159.171 165.748 186.666  0.00  0.00    +0.052 HD
ATOM    142  H   UNL     1     158.882 165.901 184.926  0.00  0.00    +0.052 HD
ENDBRANCH 138 139
ENDBRANCH 128 138
ENDBRANCH 126 128
ENDBRANCH 125 126
ENDBRANCH  90 125
ENDBRANCH  87  90
ENDBRANCH  84  87
ENDBRANCH  78  84
ENDBRANCH  76  78
BRANCH  76 143
ATOM    143  O   UNL     1     148.544 166.971 189.434  0.00  0.00    -0.379 OA
BRANCH 143 144
ATOM    144  C   UNL     1     147.825 168.102 188.963  0.00  0.00    +0.037 C 
ATOM    145  H   UNL     1     148.294 168.443 188.035  0.00  0.00    +0.052 HD
ATOM    146  H   UNL     1     146.785 167.839 188.749  0.00  0.00    +0.052 HD
ATOM    147  H   UNL     1     147.872 168.916 189.694  0.00  0.00    +0.052 HD
ENDBRANCH 143 144
ENDBRANCH  76 143
ENDBRANCH   1  76
TORSDOF 35
ENDMDL
MODEL 5
REMARK VINA RESULT:      -5.5      1.366      2.635
REMARK  Name = Mycalolide B_conf1
REMARK  35 active torsions:
REMARK  status: ('A' for Active; 'I' for Inactive)
REMARK    1  A    between atoms: C_1  and  C_2
REMARK    2  A    between atoms: C_3  and  O_72
REMARK    3  A    between atoms: C_22  and  O_70
REMARK    4  A    between atoms: C_23  and  C_69
REMARK    5  A    between atoms: C_29  and  O_68
REMARK    6  A    between atoms: C_34  and  C_35
REMARK    7  A    between atoms: C_35  and  C_36
REMARK    8  A    between atoms: C_36  and  C_37
REMARK    9  A    between atoms: C_36  and  O_66
REMARK   10  A    between atoms: C_37  and  C_38
REMARK   11  A    between atoms: C_37  and  C_39
REMARK   12  A    between atoms: C_39  and  C_40
REMARK   13  A    between atoms: C_40  and  C_41
REMARK   14  A    between atoms: C_41  and  C_42
REMARK   15  A    between atoms: C_41  and  O_57
REMARK   16  A    between atoms: C_42  and  C_43
REMARK   17  A    between atoms: C_42  and  C_44
REMARK   18  A    between atoms: C_44  and  C_45
REMARK   19  A    between atoms: C_44  and  O_53
REMARK   20  A    between atoms: C_45  and  C_46
REMARK   21  A    between atoms: C_45  and  C_47
REMARK   22  A    between atoms: C_48  and  N_49
REMARK   23  A    between atoms: N_49  and  C_50
REMARK   24  A    between atoms: O_53  and  C_54
REMARK   25  A    between atoms: C_54  and  C_56
REMARK   26  A    between atoms: O_57  and  C_58
REMARK   27  A    between atoms: C_58  and  C_60
REMARK   28  A    between atoms: C_60  and  C_61
REMARK   29  A    between atoms: C_60  and  O_64
REMARK   30  A    between atoms: C_61  and  O_62
REMARK   31  A    between atoms: O_62  and  C_63
REMARK   32  A    between atoms: O_64  and  C_65
REMARK   33  A    between atoms: O_66  and  C_67
REMARK   34  A    between atoms: O_70  and  C_71
REMARK   35  A    between atoms: O_72  and  C_73
REMARK                            x       y       z     vdW  Elec       q    Type
REMARK                         _______ _______ _______ _____ _____    ______ ____
ROOT
ATOM      1  C   UNL     1     150.970 166.876 190.696  0.00  0.00    +0.011 C 
ATOM      2  H   UNL     1     152.033 167.145 190.668  0.00  0.00    +0.033 HD
ATOM      3  H   UNL     1     150.957 165.793 190.860  0.00  0.00    +0.033 HD
ENDROOT
BRANCH   1  36
ATOM      4  C   UNL     1     150.947 167.315 193.255  0.00  0.00    +0.020 C 
ATOM      5  C   UNL     1     150.319 166.172 194.109  0.00  0.00    +0.068 C 
ATOM      6  C   UNL     1     150.209 164.765 193.458  0.00  0.00    -0.008 C 
ATOM      7  C   UNL     1     149.090 164.602 192.467  0.00  0.00    -0.077 C 
ATOM      8  C   UNL     1     149.016 163.655 191.517  0.00  0.00    -0.003 C 
ATOM      9  C   UNL     1     147.909 163.641 190.620  0.00  0.00    +0.220 A 
ATOM     10  N   UNL     1     147.076 164.649 190.411  0.00  0.00    -0.205 NA
ATOM     11  C   UNL     1     146.168 164.199 189.489  0.00  0.00    +0.164 A 
ATOM     12  C   UNL     1     146.482 162.917 189.131  0.00  0.00    +0.125 A 
ATOM     13  O   UNL     1     147.598 162.551 189.823  0.00  0.00    -0.443 OA
ATOM     14  C   UNL     1     144.972 165.046 188.960  0.00  0.00    +0.250 A 
ATOM     15  N   UNL     1     144.766 166.293 189.338  0.00  0.00    -0.203 NA
ATOM     16  C   UNL     1     143.629 166.672 188.672  0.00  0.00    +0.164 A 
ATOM     17  C   UNL     1     143.174 165.633 187.903  0.00  0.00    +0.125 A 
ATOM     18  O   UNL     1     144.029 164.582 188.069  0.00  0.00    -0.442 OA
ATOM     19  C   UNL     1     142.959 168.077 188.785  0.00  0.00    +0.249 A 
ATOM     20  N   UNL     1     143.452 169.054 189.529  0.00  0.00    -0.210 NA
ATOM     21  C   UNL     1     142.599 170.117 189.331  0.00  0.00    +0.109 A 
ATOM     22  C   UNL     1     141.598 169.730 188.468  0.00  0.00    +0.118 A 
ATOM     23  O   UNL     1     141.812 168.433 188.114  0.00  0.00    -0.442 OA
ATOM     24  C   UNL     1     142.861 171.457 189.955  0.00  0.00    +0.113 C 
ATOM     25  C   UNL     1     144.302 171.928 189.660  0.00  0.00    +0.051 C 
ATOM     26  C   UNL     1     144.500 173.316 190.252  0.00  0.00    +0.161 C 
ATOM     27  O   UNL     1     143.671 174.214 190.102  0.00  0.00    -0.292 OA
ATOM     28  C   UNL     1     145.756 173.642 190.991  0.00  0.00    -0.023 C 
ATOM     29  C   UNL     1     146.927 173.002 190.828  0.00  0.00    -0.078 C 
ATOM     30  C   UNL     1     148.187 173.384 191.559  0.00  0.00    -0.008 C 
ATOM     31  C   UNL     1     148.790 172.231 192.384  0.00  0.00    +0.069 C 
ATOM     32  C   UNL     1     149.497 171.188 191.509  0.00  0.00    +0.071 C 
ATOM     33  C   UNL     1     149.374 169.801 192.092  0.00  0.00    +0.310 C 
ATOM     34  O   UNL     1     148.477 169.427 192.832  0.00  0.00    -0.251 OA
ATOM     35  O   UNL     1     150.366 169.007 191.596  0.00  0.00    -0.461 OA
ATOM     36  C   UNL     1     150.272 167.584 191.875  0.00  0.00    +0.110 C 
ATOM     37  H   UNL     1     150.821 168.238 193.837  0.00  0.00    +0.036 HD
ATOM     38  H   UNL     1     150.956 166.037 194.994  0.00  0.00    +0.060 HD
ATOM     39  H   UNL     1     151.169 164.471 193.022  0.00  0.00    +0.033 HD
ATOM     40  H   UNL     1     149.996 164.057 194.272  0.00  0.00    +0.033 HD
ATOM     41  H   UNL     1     148.261 165.308 192.568  0.00  0.00    +0.057 HD
ATOM     42  H   UNL     1     149.777 162.892 191.408  0.00  0.00    +0.067 HD
ATOM     43  H   UNL     1     146.066 162.184 188.456  0.00  0.00    +0.105 HD
ATOM     44  H   UNL     1     142.340 165.483 187.240  0.00  0.00    +0.105 HD
ATOM     45  H   UNL     1     140.739 170.212 188.025  0.00  0.00    +0.105 HD
ATOM     46  H   UNL     1     142.148 172.192 189.559  0.00  0.00    +0.067 HD
ATOM     47  H   UNL     1     145.000 171.233 190.140  0.00  0.00    +0.041 HD
ATOM     48  H   UNL     1     145.665 174.497 191.656  0.00  0.00    +0.065 HD
ATOM     49  H   UNL     1     147.014 172.180 190.123  0.00  0.00    +0.057 HD
ATOM     50  H   UNL     1     148.927 173.742 190.833  0.00  0.00    +0.033 HD
ATOM     51  H   UNL     1     147.994 174.236 192.223  0.00  0.00    +0.033 HD
ATOM     52  H   UNL     1     148.007 171.785 193.007  0.00  0.00    +0.060 HD
ATOM     53  H   UNL     1     150.559 171.437 191.412  0.00  0.00    +0.040 HD
ATOM     54  H   UNL     1     149.058 171.130 190.508  0.00  0.00    +0.040 HD
ATOM     55  H   UNL     1     149.215 167.307 191.893  0.00  0.00    +0.074 HD
BRANCH   4  56
ATOM     56  C   UNL     1     152.471 167.142 193.168  0.00  0.00    -0.057 C 
ATOM     57  H   UNL     1     153.014 167.942 193.681  0.00  0.00    +0.023 HD
ATOM     58  H   UNL     1     152.782 166.184 193.596  0.00  0.00    +0.023 HD
ATOM     59  H   UNL     1     152.798 167.149 192.121  0.00  0.00    +0.023 HD
ENDBRANCH   4  56
BRANCH  25  60
ATOM     60  C   UNL     1     144.607 172.017 188.162  0.00  0.00    -0.053 C 
ATOM     61  H   UNL     1     144.773 173.054 187.849  0.00  0.00    +0.024 HD
ATOM     62  H   UNL     1     143.775 171.626 187.570  0.00  0.00    +0.024 HD
ATOM     63  H   UNL     1     145.506 171.450 187.905  0.00  0.00    +0.024 HD
ENDBRANCH  25  60
BRANCH  31  64
ATOM     64  O   UNL     1     149.771 172.782 193.273  0.00  0.00    -0.391 OA
ATOM     65  H   UNL     1     150.401 173.296 192.732  0.00  0.00    +0.210 HD
ENDBRANCH  31  64
BRANCH  24  66
ATOM     66  O   UNL     1     142.721 171.398 191.388  0.00  0.00    -0.373 OA
BRANCH  66  67
ATOM     67  C   UNL     1     141.537 172.027 191.859  0.00  0.00    +0.037 C 
ATOM     68  H   UNL     1     140.861 172.262 191.033  0.00  0.00    +0.052 HD
ATOM     69  H   UNL     1     141.784 172.934 192.419  0.00  0.00    +0.052 HD
ATOM     70  H   UNL     1     141.028 171.335 192.535  0.00  0.00    +0.052 HD
ENDBRANCH  66  67
ENDBRANCH  24  66
BRANCH   5  71
ATOM     71  O   UNL     1     149.006 166.516 194.581  0.00  0.00    -0.379 OA
BRANCH  71  72
ATOM     72  C   UNL     1     148.757 166.191 195.940  0.00  0.00    +0.037 C 
ATOM     73  H   UNL     1     147.846 165.585 195.985  0.00  0.00    +0.052 HD
ATOM     74  H   UNL     1     149.581 165.604 196.359  0.00  0.00    +0.052 HD
ATOM     75  H   UNL     1     148.591 167.085 196.542  0.00  0.00    +0.052 HD
ENDBRANCH  71  72
ENDBRANCH   5  71
ENDBRANCH   1  36
BRANCH   1  76
ATOM     76  C   UNL     1     150.373 167.131 189.296  0.00  0.00    +0.064 C 
ATOM     77  H   UNL     1     150.690 168.125 188.956  0.00  0.00    +0.060 HD
BRANCH  76  78
ATOM     78  C   UNL     1     150.739 166.116 188.173  0.00  0.00    -0.017 C 
ATOM     79  H   UNL     1     149.847 165.923 187.569  0.00  0.00    +0.032 HD
BRANCH  78  80
ATOM     80  C   UNL     1     151.860 166.635 187.258  0.00  0.00    -0.060 C 
ATOM     81  H   UNL     1     151.738 166.260 186.238  0.00  0.00    +0.023 HD
ATOM     82  H   UNL     1     152.844 166.320 187.617  0.00  0.00    +0.023 HD
ATOM     83  H   UNL     1     151.863 167.726 187.187  0.00  0.00    +0.023 HD
ENDBRANCH  78  80
BRANCH  78  84
ATOM     84  C   UNL     1     151.158 164.778 188.836  0.00  0.00    -0.045 C 
ATOM     85  H   UNL     1     151.909 165.009 189.593  0.00  0.00    +0.027 HD
ATOM     86  H   UNL     1     150.295 164.350 189.360  0.00  0.00    +0.027 HD
BRANCH  84  87
ATOM     87  C   UNL     1     151.731 163.725 187.887  0.00  0.00    -0.015 C 
ATOM     88  H   UNL     1     151.662 164.055 186.845  0.00  0.00    +0.030 HD
ATOM     89  H   UNL     1     151.104 162.823 187.938  0.00  0.00    +0.030 HD
BRANCH  87  90
ATOM     90  C   UNL     1     153.188 163.322 188.195  0.00  0.00    +0.109 C 
ATOM     91  H   UNL     1     153.486 163.834 189.118  0.00  0.00    +0.074 HD
BRANCH  90  92
ATOM     92  C   UNL     1     154.270 163.597 187.095  0.00  0.00    +0.031 C 
ATOM     93  H   UNL     1     153.713 164.025 186.250  0.00  0.00    +0.037 HD
BRANCH  92  94
ATOM     94  C   UNL     1     154.877 162.285 186.584  0.00  0.00    -0.056 C 
ATOM     95  H   UNL     1     155.581 161.837 187.287  0.00  0.00    +0.023 HD
ATOM     96  H   UNL     1     154.101 161.544 186.369  0.00  0.00    +0.023 HD
ATOM     97  H   UNL     1     155.411 162.445 185.644  0.00  0.00    +0.023 HD
ENDBRANCH  92  94
BRANCH  92  98
ATOM     98  C   UNL     1     155.327 164.665 187.517  0.00  0.00    +0.115 C 
ATOM     99  H   UNL     1     154.968 165.647 187.192  0.00  0.00    +0.074 HD
BRANCH  98 100
ATOM    100  C   UNL     1     155.690 164.763 189.031  0.00  0.00    +0.013 C 
ATOM    101  H   UNL     1     154.794 164.470 189.598  0.00  0.00    +0.038 HD
BRANCH 100 102
ATOM    102  C   UNL     1     155.977 166.192 189.506  0.00  0.00    -0.056 C 
ATOM    103  H   UNL     1     157.019 166.328 189.813  0.00  0.00    +0.024 HD
ATOM    104  H   UNL     1     155.761 166.914 188.714  0.00  0.00    +0.024 HD
ATOM    105  H   UNL     1     155.347 166.446 190.365  0.00  0.00    +0.024 HD
ENDBRANCH 100 102
BRANCH 100 106
ATOM    106  C   UNL     1     156.792 163.807 189.441  0.00  0.00    -0.064 C 
ATOM    107  C   UNL     1     156.522 162.573 189.893  0.00  0.00    -0.005 C 
ATOM    108  H   UNL     1     157.808 164.172 189.352  0.00  0.00    +0.059 HD
ATOM    109  H   UNL     1     155.476 162.263 189.961  0.00  0.00    +0.078 HD
BRANCH 107 110
ATOM    110  N   UNL     1     157.425 161.598 190.288  0.00  0.00    -0.284 N 
ATOM    111  C   UNL     1     158.279 161.691 191.378  0.00  0.00    +0.206 C 
ATOM    112  O   UNL     1     159.088 160.840 191.742  0.00  0.00    -0.279 OA
ATOM    113  H   UNL     1     158.196 162.636 191.930  0.00  0.00    +0.126 HD
BRANCH 110 114
ATOM    114  C   UNL     1     157.497 160.391 189.469  0.00  0.00    +0.007 C 
ATOM    115  H   UNL     1     156.934 159.564 189.909  0.00  0.00    +0.043 HD
ATOM    116  H   UNL     1     157.090 160.599 188.476  0.00  0.00    +0.043 HD
ATOM    117  H   UNL     1     158.546 160.093 189.378  0.00  0.00    +0.043 HD
ENDBRANCH 110 114
ENDBRANCH 107 110
ENDBRANCH 100 106
ENDBRANCH  98 100
BRANCH  98 118
ATOM    118  O   UNL     1     156.555 164.366 186.797  0.00  0.00    -0.461 OA
BRANCH 118 119
ATOM    119  C   UNL     1     157.195 165.411 186.205  0.00  0.00    +0.304 C 
ATOM    120  O   UNL     1     158.406 165.557 186.141  0.00  0.00    -0.251 OA
BRANCH 119 121
ATOM    121  C   UNL     1     156.192 166.365 185.632  0.00  0.00    +0.033 C 
ATOM    122  H   UNL     1     156.533 167.391 185.779  0.00  0.00    +0.034 HD
ATOM    123  H   UNL     1     155.237 166.240 186.152  0.00  0.00    +0.034 HD
ATOM    124  H   UNL     1     156.042 166.156 184.570  0.00  0.00    +0.034 HD
ENDBRANCH 119 121
ENDBRANCH 118 119
ENDBRANCH  98 118
ENDBRANCH  92  98
ENDBRANCH  90  92
BRANCH  90 125
ATOM    125  O   UNL     1     153.181 161.886 188.406  0.00  0.00    -0.459 OA
BRANCH 125 126
ATOM    126  C   UNL     1     152.921 161.431 189.671  0.00  0.00    +0.339 C 
ATOM    127  O   UNL     1     153.109 162.071 190.699  0.00  0.00    -0.248 OA
BRANCH 126 128
ATOM    128  C   UNL     1     152.312 160.018 189.586  0.00  0.00    +0.178 C 
ATOM    129  H   UNL     1     153.136 159.316 189.392  0.00  0.00    +0.074 HD
BRANCH 128 130
ATOM    130  C   UNL     1     151.687 159.663 190.947  0.00  0.00    +0.084 C 
ATOM    131  H   UNL     1     150.593 159.696 190.897  0.00  0.00    +0.059 HD
ATOM    132  H   UNL     1     152.022 160.389 191.696  0.00  0.00    +0.059 HD
BRANCH 130 133
ATOM    133  O   UNL     1     152.083 158.350 191.362  0.00  0.00    -0.380 OA
BRANCH 133 134
ATOM    134  C   UNL     1     153.206 157.878 190.631  0.00  0.00    +0.037 C 
ATOM    135  H   UNL     1     153.380 156.818 190.842  0.00  0.00    +0.052 HD
ATOM    136  H   UNL     1     153.058 158.029 189.557  0.00  0.00    +0.052 HD
ATOM    137  H   UNL     1     154.086 158.446 190.949  0.00  0.00    +0.052 HD
ENDBRANCH 133 134
ENDBRANCH 130 133
ENDBRANCH 128 130
BRANCH 128 138
ATOM    138  O   UNL     1     151.308 159.796 188.591  0.00  0.00    -0.366 OA
BRANCH 138 139
ATOM    139  C   UNL     1     150.077 160.441 188.877  0.00  0.00    +0.038 C 
ATOM    140  H   UNL     1     149.503 159.878 189.622  0.00  0.00    +0.052 HD
ATOM    141  H   UNL     1     149.486 160.576 187.967  0.00  0.00    +0.052 HD
ATOM    142  H   UNL     1     150.298 161.431 189.288  0.00  0.00    +0.052 HD
ENDBRANCH 138 139
ENDBRANCH 128 138
ENDBRANCH 126 128
ENDBRANCH 125 126
ENDBRANCH  90 125
ENDBRANCH  87  90
ENDBRANCH  84  87
ENDBRANCH  78  84
ENDBRANCH  76  78
BRANCH  76 143
ATOM    143  O   UNL     1     148.935 167.104 189.434  0.00  0.00    -0.379 OA
BRANCH 143 144
ATOM    144  C   UNL     1     148.240 167.316 188.214  0.00  0.00    +0.037 C 
ATOM    145  H   UNL     1     147.189 167.512 188.448  0.00  0.00    +0.052 HD
ATOM    146  H   UNL     1     148.644 168.181 187.681  0.00  0.00    +0.052 HD
ATOM    147  H   UNL     1     148.292 166.420 187.584  0.00  0.00    +0.052 HD
ENDBRANCH 143 144
ENDBRANCH  76 143
ENDBRANCH   1  76
TORSDOF 35
ENDMDL
MODEL 6
REMARK VINA RESULT:      -5.5      3.161     10.706
REMARK  Name = Mycalolide B_conf1
REMARK  35 active torsions:
REMARK  status: ('A' for Active; 'I' for Inactive)
REMARK    1  A    between atoms: C_1  and  C_2
REMARK    2  A    between atoms: C_3  and  O_72
REMARK    3  A    between atoms: C_22  and  O_70
REMARK    4  A    between atoms: C_23  and  C_69
REMARK    5  A    between atoms: C_29  and  O_68
REMARK    6  A    between atoms: C_34  and  C_35
REMARK    7  A    between atoms: C_35  and  C_36
REMARK    8  A    between atoms: C_36  and  C_37
REMARK    9  A    between atoms: C_36  and  O_66
REMARK   10  A    between atoms: C_37  and  C_38
REMARK   11  A    between atoms: C_37  and  C_39
REMARK   12  A    between atoms: C_39  and  C_40
REMARK   13  A    between atoms: C_40  and  C_41
REMARK   14  A    between atoms: C_41  and  C_42
REMARK   15  A    between atoms: C_41  and  O_57
REMARK   16  A    between atoms: C_42  and  C_43
REMARK   17  A    between atoms: C_42  and  C_44
REMARK   18  A    between atoms: C_44  and  C_45
REMARK   19  A    between atoms: C_44  and  O_53
REMARK   20  A    between atoms: C_45  and  C_46
REMARK   21  A    between atoms: C_45  and  C_47
REMARK   22  A    between atoms: C_48  and  N_49
REMARK   23  A    between atoms: N_49  and  C_50
REMARK   24  A    between atoms: O_53  and  C_54
REMARK   25  A    between atoms: C_54  and  C_56
REMARK   26  A    between atoms: O_57  and  C_58
REMARK   27  A    between atoms: C_58  and  C_60
REMARK   28  A    between atoms: C_60  and  C_61
REMARK   29  A    between atoms: C_60  and  O_64
REMARK   30  A    between atoms: C_61  and  O_62
REMARK   31  A    between atoms: O_62  and  C_63
REMARK   32  A    between atoms: O_64  and  C_65
REMARK   33  A    between atoms: O_66  and  C_67
REMARK   34  A    between atoms: O_70  and  C_71
REMARK   35  A    between atoms: O_72  and  C_73
REMARK                            x       y       z     vdW  Elec       q    Type
REMARK                         _______ _______ _______ _____ _____    ______ ____
ROOT
ATOM      1  C   UNL     1     150.693 165.998 190.160  0.00  0.00    +0.011 C 
ATOM      2  H   UNL     1     150.865 167.027 189.820  0.00  0.00    +0.033 HD
ATOM      3  H   UNL     1     149.605 165.874 190.147  0.00  0.00    +0.033 HD
ENDROOT
BRANCH   1  36
ATOM      4  C   UNL     1     152.577 165.571 188.424  0.00  0.00    +0.020 C 
ATOM      5  C   UNL     1     152.302 166.153 187.005  0.00  0.00    +0.068 C 
ATOM      6  C   UNL     1     151.231 167.272 186.880  0.00  0.00    -0.008 C 
ATOM      7  C   UNL     1     149.803 166.803 186.935  0.00  0.00    -0.077 C 
ATOM      8  C   UNL     1     148.738 167.565 187.230  0.00  0.00    -0.003 C 
ATOM      9  C   UNL     1     147.441 166.978 187.278  0.00  0.00    +0.220 A 
ATOM     10  N   UNL     1     147.188 165.680 187.365  0.00  0.00    -0.205 NA
ATOM     11  C   UNL     1     145.823 165.566 187.373  0.00  0.00    +0.164 A 
ATOM     12  C   UNL     1     145.262 166.812 187.314  0.00  0.00    +0.125 A 
ATOM     13  O   UNL     1     146.274 167.724 187.275  0.00  0.00    -0.443 OA
ATOM     14  C   UNL     1     145.063 164.206 187.434  0.00  0.00    +0.250 A 
ATOM     15  N   UNL     1     145.691 163.049 187.524  0.00  0.00    -0.203 NA
ATOM     16  C   UNL     1     144.689 162.113 187.536  0.00  0.00    +0.164 A 
ATOM     17  C   UNL     1     143.472 162.737 187.453  0.00  0.00    +0.125 A 
ATOM     18  O   UNL     1     143.692 164.082 187.394  0.00  0.00    -0.442 OA
ATOM     19  C   UNL     1     144.913 160.572 187.629  0.00  0.00    +0.249 A 
ATOM     20  N   UNL     1     146.113 160.021 187.727  0.00  0.00    -0.210 NA
ATOM     21  C   UNL     1     145.876 158.667 187.817  0.00  0.00    +0.109 A 
ATOM     22  C   UNL     1     144.519 158.447 187.754  0.00  0.00    +0.118 A 
ATOM     23  O   UNL     1     143.892 159.649 187.630  0.00  0.00    -0.442 OA
ATOM     24  C   UNL     1     146.997 157.690 188.017  0.00  0.00    +0.113 C 
ATOM     25  C   UNL     1     147.883 158.107 189.211  0.00  0.00    +0.051 C 
ATOM     26  C   UNL     1     148.962 157.054 189.419  0.00  0.00    +0.161 C 
ATOM     27  O   UNL     1     148.707 155.850 189.422  0.00  0.00    -0.292 OA
ATOM     28  C   UNL     1     150.371 157.470 189.690  0.00  0.00    -0.023 C 
ATOM     29  C   UNL     1     150.732 158.657 190.208  0.00  0.00    -0.078 C 
ATOM     30  C   UNL     1     152.159 159.029 190.509  0.00  0.00    -0.008 C 
ATOM     31  C   UNL     1     152.626 160.306 189.784  0.00  0.00    +0.069 C 
ATOM     32  C   UNL     1     152.058 161.582 190.417  0.00  0.00    +0.071 C 
ATOM     33  C   UNL     1     151.816 162.654 189.381  0.00  0.00    +0.310 C 
ATOM     34  O   UNL     1     151.606 162.449 188.195  0.00  0.00    -0.251 OA
ATOM     35  O   UNL     1     151.780 163.875 189.987  0.00  0.00    -0.461 OA
ATOM     36  C   UNL     1     151.337 164.999 189.178  0.00  0.00    +0.110 C 
ATOM     37  H   UNL     1     153.261 164.724 188.282  0.00  0.00    +0.036 HD
ATOM     38  H   UNL     1     153.239 166.603 186.649  0.00  0.00    +0.060 HD
ATOM     39  H   UNL     1     151.415 168.060 187.617  0.00  0.00    +0.033 HD
ATOM     40  H   UNL     1     151.361 167.725 185.887  0.00  0.00    +0.033 HD
ATOM     41  H   UNL     1     149.640 165.753 186.677  0.00  0.00    +0.057 HD
ATOM     42  H   UNL     1     148.831 168.625 187.435  0.00  0.00    +0.067 HD
ATOM     43  H   UNL     1     144.254 167.201 187.301  0.00  0.00    +0.105 HD
ATOM     44  H   UNL     1     142.446 162.409 187.426  0.00  0.00    +0.105 HD
ATOM     45  H   UNL     1     143.880 157.576 187.795  0.00  0.00    +0.105 HD
ATOM     46  H   UNL     1     146.582 156.689 188.202  0.00  0.00    +0.067 HD
ATOM     47  H   UNL     1     148.360 159.064 188.971  0.00  0.00    +0.041 HD
ATOM     48  H   UNL     1     151.104 156.697 189.480  0.00  0.00    +0.065 HD
ATOM     49  H   UNL     1     149.981 159.402 190.459  0.00  0.00    +0.057 HD
ATOM     50  H   UNL     1     152.275 159.158 191.592  0.00  0.00    +0.033 HD
ATOM     51  H   UNL     1     152.829 158.201 190.242  0.00  0.00    +0.033 HD
ATOM     52  H   UNL     1     152.379 160.227 188.720  0.00  0.00    +0.060 HD
ATOM     53  H   UNL     1     152.752 161.970 191.170  0.00  0.00    +0.040 HD
ATOM     54  H   UNL     1     151.088 161.405 190.894  0.00  0.00    +0.040 HD
ATOM     55  H   UNL     1     150.581 164.639 188.475  0.00  0.00    +0.074 HD
BRANCH   4  56
ATOM     56  C   UNL     1     153.396 166.566 189.261  0.00  0.00    -0.057 C 
ATOM     57  H   UNL     1     152.796 167.411 189.613  0.00  0.00    +0.023 HD
ATOM     58  H   UNL     1     153.843 166.073 190.130  0.00  0.00    +0.023 HD
ATOM     59  H   UNL     1     154.219 166.981 188.666  0.00  0.00    +0.023 HD
ENDBRANCH   4  56
BRANCH  25  60
ATOM     60  C   UNL     1     147.101 158.232 190.521  0.00  0.00    -0.053 C 
ATOM     61  H   UNL     1     146.053 158.496 190.339  0.00  0.00    +0.024 HD
ATOM     62  H   UNL     1     147.529 159.010 191.159  0.00  0.00    +0.024 HD
ATOM     63  H   UNL     1     147.108 157.291 191.079  0.00  0.00    +0.024 HD
ENDBRANCH  25  60
BRANCH  31  64
ATOM     64  O   UNL     1     154.055 160.378 189.881  0.00  0.00    -0.391 OA
ATOM     65  H   UNL     1     154.425 159.819 189.171  0.00  0.00    +0.210 HD
ENDBRANCH  31  64
BRANCH  24  66
ATOM     66  O   UNL     1     147.850 157.632 186.857  0.00  0.00    -0.373 OA
BRANCH  66  67
ATOM     67  C   UNL     1     147.378 156.735 185.862  0.00  0.00    +0.037 C 
ATOM     68  H   UNL     1     146.950 157.276 185.014  0.00  0.00    +0.052 HD
ATOM     69  H   UNL     1     146.640 156.047 186.288  0.00  0.00    +0.052 HD
ATOM     70  H   UNL     1     148.226 156.146 185.503  0.00  0.00    +0.052 HD
ENDBRANCH  66  67
ENDBRANCH  24  66
BRANCH   5  71
ATOM     71  O   UNL     1     151.942 165.126 186.066  0.00  0.00    -0.379 OA
BRANCH  71  72
ATOM     72  C   UNL     1     152.713 165.112 184.873  0.00  0.00    +0.037 C 
ATOM     73  H   UNL     1     153.567 165.783 185.010  0.00  0.00    +0.052 HD
ATOM     74  H   UNL     1     153.095 164.106 184.668  0.00  0.00    +0.052 HD
ATOM     75  H   UNL     1     152.137 165.474 184.020  0.00  0.00    +0.052 HD
ENDBRANCH  71  72
ENDBRANCH   5  71
ENDBRANCH   1  36
BRANCH   1  76
ATOM     76  C   UNL     1     151.144 165.896 191.632  0.00  0.00    +0.064 C 
ATOM     77  H   UNL     1     152.071 165.309 191.675  0.00  0.00    +0.060 HD
BRANCH  76  78
ATOM     78  C   UNL     1     151.404 167.232 192.389  0.00  0.00    -0.017 C 
ATOM     79  H   UNL     1     150.690 167.314 193.214  0.00  0.00    +0.032 HD
BRANCH  78  80
ATOM     80  C   UNL     1     152.832 167.316 192.954  0.00  0.00    -0.060 C 
ATOM     81  H   UNL     1     152.855 167.019 194.006  0.00  0.00    +0.023 HD
ATOM     82  H   UNL     1     153.228 168.333 192.882  0.00  0.00    +0.023 HD
ATOM     83  H   UNL     1     153.523 166.650 192.430  0.00  0.00    +0.023 HD
ENDBRANCH  78  80
BRANCH  78  84
ATOM     84  C   UNL     1     151.138 168.409 191.415  0.00  0.00    -0.045 C 
ATOM     85  H   UNL     1     152.092 168.684 190.964  0.00  0.00    +0.027 HD
ATOM     86  H   UNL     1     150.487 168.063 190.602  0.00  0.00    +0.027 HD
BRANCH  84  87
ATOM     87  C   UNL     1     150.518 169.657 192.045  0.00  0.00    -0.015 C 
ATOM     88  H   UNL     1     151.102 170.551 191.803  0.00  0.00    +0.030 HD
ATOM     89  H   UNL     1     150.579 169.571 193.139  0.00  0.00    +0.030 HD
BRANCH  87  90
ATOM     90  C   UNL     1     149.044 169.894 191.657  0.00  0.00    +0.109 C 
ATOM     91  H   UNL     1     148.867 169.390 190.700  0.00  0.00    +0.074 HD
BRANCH  90  92
ATOM     92  C   UNL     1     148.548 171.378 191.545  0.00  0.00    +0.031 C 
ATOM     93  H   UNL     1     149.321 171.891 190.957  0.00  0.00    +0.037 HD
BRANCH  92  94
ATOM     94  C   UNL     1     148.538 172.056 192.920  0.00  0.00    -0.056 C 
ATOM     95  H   UNL     1     148.196 173.092 192.883  0.00  0.00    +0.023 HD
ATOM     96  H   UNL     1     147.898 171.517 193.626  0.00  0.00    +0.023 HD
ATOM     97  H   UNL     1     149.539 172.058 193.359  0.00  0.00    +0.023 HD
ENDBRANCH  92  94
BRANCH  92  98
ATOM     98  C   UNL     1     147.212 171.526 190.752  0.00  0.00    +0.115 C 
ATOM     99  H   UNL     1     147.283 172.425 190.130  0.00  0.00    +0.074 HD
BRANCH  98 100
ATOM    100  C   UNL     1     146.780 170.340 189.836  0.00  0.00    +0.013 C 
ATOM    101  H   UNL     1     147.571 169.578 189.899  0.00  0.00    +0.038 HD
BRANCH 100 102
ATOM    102  C   UNL     1     146.730 170.697 188.346  0.00  0.00    -0.056 C 
ATOM    103  H   UNL     1     146.451 171.742 188.176  0.00  0.00    +0.024 HD
ATOM    104  H   UNL     1     147.701 170.526 187.874  0.00  0.00    +0.024 HD
ATOM    105  H   UNL     1     145.995 170.074 187.825  0.00  0.00    +0.024 HD
ENDBRANCH 100 102
BRANCH 100 106
ATOM    106  C   UNL     1     145.499 169.672 190.293  0.00  0.00    -0.064 C 
ATOM    107  C   UNL     1     144.387 169.694 189.543  0.00  0.00    -0.005 C 
ATOM    108  H   UNL     1     145.527 169.179 191.257  0.00  0.00    +0.059 HD
ATOM    109  H   UNL     1     144.421 170.210 188.579  0.00  0.00    +0.078 HD
BRANCH 107 110
ATOM    110  N   UNL     1     143.159 169.118 189.831  0.00  0.00    -0.284 N 
ATOM    111  C   UNL     1     142.665 168.878 191.105  0.00  0.00    +0.206 C 
ATOM    112  O   UNL     1     141.582 168.366 191.380  0.00  0.00    -0.279 OA
ATOM    113  H   UNL     1     143.347 169.180 191.912  0.00  0.00    +0.126 HD
BRANCH 110 114
ATOM    114  C   UNL     1     142.337 168.710 188.695  0.00  0.00    +0.007 C 
ATOM    115  H   UNL     1     142.066 167.652 188.746  0.00  0.00    +0.043 HD
ATOM    116  H   UNL     1     141.418 169.303 188.676  0.00  0.00    +0.043 HD
ATOM    117  H   UNL     1     142.902 168.883 187.775  0.00  0.00    +0.043 HD
ENDBRANCH 110 114
ENDBRANCH 107 110
ENDBRANCH 100 106
ENDBRANCH  98 100
BRANCH  98 118
ATOM    118  O   UNL     1     146.151 171.727 191.727  0.00  0.00    -0.461 OA
BRANCH 118 119
ATOM    119  C   UNL     1     145.586 172.964 191.779  0.00  0.00    +0.304 C 
ATOM    120  O   UNL     1     145.556 173.691 192.759  0.00  0.00    -0.251 OA
BRANCH 119 121
ATOM    121  C   UNL     1     145.001 173.314 190.444  0.00  0.00    +0.033 C 
ATOM    122  H   UNL     1     145.780 173.278 189.680  0.00  0.00    +0.034 HD
ATOM    123  H   UNL     1     144.598 174.330 190.481  0.00  0.00    +0.034 HD
ATOM    124  H   UNL     1     144.189 172.625 190.200  0.00  0.00    +0.034 HD
ENDBRANCH 119 121
ENDBRANCH 118 119
ENDBRANCH  98 118
ENDBRANCH  92  98
ENDBRANCH  90  92
BRANCH  90 125
ATOM    125  O   UNL     1     148.241 169.277 192.698  0.00  0.00    -0.459 OA
BRANCH 125 126
ATOM    126  C   UNL     1     147.877 167.969 192.526  0.00  0.00    +0.339 C 
ATOM    127  O   UNL     1     147.834 167.388 191.448  0.00  0.00    -0.248 OA
BRANCH 126 128
ATOM    128  C   UNL     1     147.582 167.340 193.902  0.00  0.00    +0.178 C 
ATOM    129  H   UNL     1     147.055 168.096 194.503  0.00  0.00    +0.074 HD
BRANCH 128 130
ATOM    130  C   UNL     1     146.642 166.137 193.708  0.00  0.00    +0.084 C 
ATOM    131  H   UNL     1     146.736 165.428 194.538  0.00  0.00    +0.059 HD
ATOM    132  H   UNL     1     146.906 165.621 192.778  0.00  0.00    +0.059 HD
BRANCH 130 133
ATOM    133  O   UNL     1     145.276 166.566 193.630  0.00  0.00    -0.380 OA
BRANCH 133 134
ATOM    134  C   UNL     1     144.671 166.191 192.401  0.00  0.00    +0.037 C 
ATOM    135  H   UNL     1     144.625 165.101 192.316  0.00  0.00    +0.052 HD
ATOM    136  H   UNL     1     143.667 166.618 192.320  0.00  0.00    +0.052 HD
ATOM    137  H   UNL     1     145.287 166.579 191.584  0.00  0.00    +0.052 HD
ENDBRANCH 133 134
ENDBRANCH 130 133
ENDBRANCH 128 130
BRANCH 128 138
ATOM    138  O   UNL     1     148.701 166.881 194.666  0.00  0.00    -0.366 OA
BRANCH 138 139
ATOM    139  C   UNL     1     148.332 166.191 195.850  0.00  0.00    +0.038 C 
ATOM    140  H   UNL     1     148.401 165.107 195.710  0.00  0.00    +0.052 HD
ATOM    141  H   UNL     1     147.323 166.469 196.165  0.00  0.00    +0.052 HD
ATOM    142  H   UNL     1     149.026 166.482 196.644  0.00  0.00    +0.052 HD
ENDBRANCH 138 139
ENDBRANCH 128 138
ENDBRANCH 126 128
ENDBRANCH 125 126
ENDBRANCH  90 125
ENDBRANCH  87  90
ENDBRANCH  84  87
ENDBRANCH  78  84
ENDBRANCH  76  78
BRANCH  76 143
ATOM    143  O   UNL     1     150.100 165.203 192.350  0.00  0.00    -0.379 OA
BRANCH 143 144
ATOM    144  C   UNL     1     150.586 164.316 193.349  0.00  0.00    +0.037 C 
ATOM    145  H   UNL     1     149.733 163.775 193.770  0.00  0.00    +0.052 HD
ATOM    146  H   UNL     1     151.280 163.588 192.918  0.00  0.00    +0.052 HD
ATOM    147  H   UNL     1     151.071 164.878 194.155  0.00  0.00    +0.052 HD
ENDBRANCH 143 144
ENDBRANCH  76 143
ENDBRANCH   1  76
TORSDOF 35
ENDMDL
MODEL 7
REMARK VINA RESULT:      -5.5      1.950      4.792
REMARK  Name = Mycalolide B_conf1
REMARK  35 active torsions:
REMARK  status: ('A' for Active; 'I' for Inactive)
REMARK    1  A    between atoms: C_1  and  C_2
REMARK    2  A    between atoms: C_3  and  O_72
REMARK    3  A    between atoms: C_22  and  O_70
REMARK    4  A    between atoms: C_23  and  C_69
REMARK    5  A    between atoms: C_29  and  O_68
REMARK    6  A    between atoms: C_34  and  C_35
REMARK    7  A    between atoms: C_35  and  C_36
REMARK    8  A    between atoms: C_36  and  C_37
REMARK    9  A    between atoms: C_36  and  O_66
REMARK   10  A    between atoms: C_37  and  C_38
REMARK   11  A    between atoms: C_37  and  C_39
REMARK   12  A    between atoms: C_39  and  C_40
REMARK   13  A    between atoms: C_40  and  C_41
REMARK   14  A    between atoms: C_41  and  C_42
REMARK   15  A    between atoms: C_41  and  O_57
REMARK   16  A    between atoms: C_42  and  C_43
REMARK   17  A    between atoms: C_42  and  C_44
REMARK   18  A    between atoms: C_44  and  C_45
REMARK   19  A    between atoms: C_44  and  O_53
REMARK   20  A    between atoms: C_45  and  C_46
REMARK   21  A    between atoms: C_45  and  C_47
REMARK   22  A    between atoms: C_48  and  N_49
REMARK   23  A    between atoms: N_49  and  C_50
REMARK   24  A    between atoms: O_53  and  C_54
REMARK   25  A    between atoms: C_54  and  C_56
REMARK   26  A    between atoms: O_57  and  C_58
REMARK   27  A    between atoms: C_58  and  C_60
REMARK   28  A    between atoms: C_60  and  C_61
REMARK   29  A    between atoms: C_60  and  O_64
REMARK   30  A    between atoms: C_61  and  O_62
REMARK   31  A    between atoms: O_62  and  C_63
REMARK   32  A    between atoms: O_64  and  C_65
REMARK   33  A    between atoms: O_66  and  C_67
REMARK   34  A    between atoms: O_70  and  C_71
REMARK   35  A    between atoms: O_72  and  C_73
REMARK                            x       y       z     vdW  Elec       q    Type
REMARK                         _______ _______ _______ _____ _____    ______ ____
ROOT
ATOM      1  C   UNL     1     150.440 167.009 190.356  0.00  0.00    +0.011 C 
ATOM      2  H   UNL     1     151.474 167.358 190.244  0.00  0.00    +0.033 HD
ATOM      3  H   UNL     1     150.522 165.928 190.512  0.00  0.00    +0.033 HD
ENDROOT
BRANCH   1  36
ATOM      4  C   UNL     1     150.496 167.298 192.936  0.00  0.00    +0.020 C 
ATOM      5  C   UNL     1     149.868 166.119 193.739  0.00  0.00    +0.068 C 
ATOM      6  C   UNL     1     149.710 164.755 193.011  0.00  0.00    -0.008 C 
ATOM      7  C   UNL     1     148.562 164.672 192.044  0.00  0.00    -0.077 C 
ATOM      8  C   UNL     1     148.442 163.784 191.043  0.00  0.00    -0.003 C 
ATOM      9  C   UNL     1     147.311 163.844 190.179  0.00  0.00    +0.220 A 
ATOM     10  N   UNL     1     146.494 164.879 190.053  0.00  0.00    -0.205 NA
ATOM     11  C   UNL     1     145.552 164.501 189.133  0.00  0.00    +0.164 A 
ATOM     12  C   UNL     1     145.829 163.237 188.692  0.00  0.00    +0.125 A 
ATOM     13  O   UNL     1     146.955 162.809 189.330  0.00  0.00    -0.443 OA
ATOM     14  C   UNL     1     144.360 165.401 188.688  0.00  0.00    +0.250 A 
ATOM     15  N   UNL     1     144.190 166.627 189.143  0.00  0.00    -0.203 NA
ATOM     16  C   UNL     1     143.043 167.067 188.534  0.00  0.00    +0.164 A 
ATOM     17  C   UNL     1     142.546 166.084 187.719  0.00  0.00    +0.125 A 
ATOM     18  O   UNL     1     143.383 165.009 187.799  0.00  0.00    -0.442 OA
ATOM     19  C   UNL     1     142.407 168.475 188.747  0.00  0.00    +0.249 A 
ATOM     20  N   UNL     1     142.940 169.398 189.533  0.00  0.00    -0.210 NA
ATOM     21  C   UNL     1     142.105 170.487 189.421  0.00  0.00    +0.109 A 
ATOM     22  C   UNL     1     141.073 170.171 188.566  0.00  0.00    +0.118 A 
ATOM     23  O   UNL     1     141.249 168.893 188.132  0.00  0.00    -0.442 OA
ATOM     24  C   UNL     1     142.412 171.782 190.114  0.00  0.00    +0.113 C 
ATOM     25  C   UNL     1     143.854 172.242 189.807  0.00  0.00    +0.051 C 
ATOM     26  C   UNL     1     144.097 173.589 190.473  0.00  0.00    +0.161 C 
ATOM     27  O   UNL     1     143.284 174.510 190.398  0.00  0.00    -0.292 OA
ATOM     28  C   UNL     1     145.379 173.846 191.193  0.00  0.00    -0.023 C 
ATOM     29  C   UNL     1     146.532 173.195 190.960  0.00  0.00    -0.078 C 
ATOM     30  C   UNL     1     147.819 173.508 191.675  0.00  0.00    -0.008 C 
ATOM     31  C   UNL     1     148.420 172.297 192.414  0.00  0.00    +0.069 C 
ATOM     32  C   UNL     1     149.081 171.294 191.461  0.00  0.00    +0.071 C 
ATOM     33  C   UNL     1     148.945 169.877 191.965  0.00  0.00    +0.310 C 
ATOM     34  O   UNL     1     148.060 169.478 192.707  0.00  0.00    -0.251 OA
ATOM     35  O   UNL     1     149.906 169.095 191.396  0.00  0.00    -0.461 OA
ATOM     36  C   UNL     1     149.789 167.660 191.594  0.00  0.00    +0.110 C 
ATOM     37  H   UNL     1     150.406 168.187 193.574  0.00  0.00    +0.036 HD
ATOM     38  H   UNL     1     150.526 165.920 194.596  0.00  0.00    +0.060 HD
ATOM     39  H   UNL     1     150.651 164.468 192.532  0.00  0.00    +0.033 HD
ATOM     40  H   UNL     1     149.504 164.005 193.788  0.00  0.00    +0.033 HD
ATOM     41  H   UNL     1     147.751 165.386 192.210  0.00  0.00    +0.057 HD
ATOM     42  H   UNL     1     149.183 163.014 190.868  0.00  0.00    +0.067 HD
ATOM     43  H   UNL     1     145.379 162.553 187.987  0.00  0.00    +0.105 HD
ATOM     44  H   UNL     1     141.691 165.990 187.072  0.00  0.00    +0.105 HD
ATOM     45  H   UNL     1     140.212 170.695 188.177  0.00  0.00    +0.105 HD
ATOM     46  H   UNL     1     141.703 172.553 189.782  0.00  0.00    +0.067 HD
ATOM     47  H   UNL     1     144.550 171.506 190.225  0.00  0.00    +0.041 HD
ATOM     48  H   UNL     1     145.325 174.662 191.908  0.00  0.00    +0.065 HD
ATOM     49  H   UNL     1     146.582 172.413 190.206  0.00  0.00    +0.057 HD
ATOM     50  H   UNL     1     148.547 173.894 190.951  0.00  0.00    +0.033 HD
ATOM     51  H   UNL     1     147.663 174.323 192.393  0.00  0.00    +0.033 HD
ATOM     52  H   UNL     1     147.645 171.831 193.032  0.00  0.00    +0.060 HD
ATOM     53  H   UNL     1     150.145 171.527 191.348  0.00  0.00    +0.040 HD
ATOM     54  H   UNL     1     148.614 171.304 190.470  0.00  0.00    +0.040 HD
ATOM     55  H   UNL     1     148.727 167.403 191.625  0.00  0.00    +0.074 HD
BRANCH   4  56
ATOM     56  C   UNL     1     152.013 167.100 192.796  0.00  0.00    -0.057 C 
ATOM     57  H   UNL     1     152.525 167.082 193.763  0.00  0.00    +0.023 HD
ATOM     58  H   UNL     1     152.240 166.169 192.267  0.00  0.00    +0.023 HD
ATOM     59  H   UNL     1     152.454 167.919 192.212  0.00  0.00    +0.023 HD
ENDBRANCH   4  56
BRANCH  25  60
ATOM     60  C   UNL     1     144.119 172.413 188.308  0.00  0.00    -0.053 C 
ATOM     61  H   UNL     1     145.156 172.166 188.055  0.00  0.00    +0.024 HD
ATOM     62  H   UNL     1     143.943 173.446 187.996  0.00  0.00    +0.024 HD
ATOM     63  H   UNL     1     143.474 171.761 187.713  0.00  0.00    +0.024 HD
ENDBRANCH  25  60
BRANCH  31  64
ATOM     64  O   UNL     1     149.436 172.776 193.305  0.00  0.00    -0.391 OA
ATOM     65  H   UNL     1     149.047 172.818 194.199  0.00  0.00    +0.210 HD
ENDBRANCH  31  64
BRANCH  24  66
ATOM     66  O   UNL     1     142.310 171.642 191.545  0.00  0.00    -0.373 OA
BRANCH  66  67
ATOM     67  C   UNL     1     141.166 172.287 192.088  0.00  0.00    +0.037 C 
ATOM     68  H   UNL     1     141.454 173.121 192.734  0.00  0.00    +0.052 HD
ATOM     69  H   UNL     1     140.551 171.571 192.641  0.00  0.00    +0.052 HD
ATOM     70  H   UNL     1     140.571 172.682 191.260  0.00  0.00    +0.052 HD
ENDBRANCH  66  67
ENDBRANCH  24  66
BRANCH   5  71
ATOM     71  O   UNL     1     148.576 166.460 194.268  0.00  0.00    -0.379 OA
BRANCH  71  72
ATOM     72  C   UNL     1     148.411 166.200 195.654  0.00  0.00    +0.037 C 
ATOM     73  H   UNL     1     149.011 165.321 195.911  0.00  0.00    +0.052 HD
ATOM     74  H   UNL     1     148.764 167.045 196.255  0.00  0.00    +0.052 HD
ATOM     75  H   UNL     1     147.371 165.976 195.899  0.00  0.00    +0.052 HD
ENDBRANCH  71  72
ENDBRANCH   5  71
ENDBRANCH   1  36
BRANCH   1  76
ATOM     76  C   UNL     1     149.712 167.220 189.011  0.00  0.00    +0.064 C 
ATOM     77  H   UNL     1     150.046 168.171 188.578  0.00  0.00    +0.060 HD
BRANCH  76  78
ATOM     78  C   UNL     1     149.899 166.121 187.924  0.00  0.00    -0.017 C 
ATOM     79  H   UNL     1     148.913 165.765 187.610  0.00  0.00    +0.032 HD
BRANCH  78  80
ATOM     80  C   UNL     1     150.658 166.641 186.692  0.00  0.00    -0.060 C 
ATOM     81  H   UNL     1     151.212 165.834 186.203  0.00  0.00    +0.023 HD
ATOM     82  H   UNL     1     151.373 167.423 186.966  0.00  0.00    +0.023 HD
ATOM     83  H   UNL     1     149.985 167.054 185.936  0.00  0.00    +0.023 HD
ENDBRANCH  78  80
BRANCH  78  84
ATOM     84  C   UNL     1     150.654 164.924 188.558  0.00  0.00    -0.045 C 
ATOM     85  H   UNL     1     151.166 165.293 189.447  0.00  0.00    +0.027 HD
ATOM     86  H   UNL     1     149.925 164.177 188.894  0.00  0.00    +0.027 HD
BRANCH  84  87
ATOM     87  C   UNL     1     151.679 164.240 187.654  0.00  0.00    -0.015 C 
ATOM     88  H   UNL     1     151.861 164.829 186.749  0.00  0.00    +0.030 HD
ATOM     89  H   UNL     1     151.257 163.292 187.291  0.00  0.00    +0.030 HD
BRANCH  87  90
ATOM     90  C   UNL     1     153.027 163.939 188.342  0.00  0.00    +0.109 C 
ATOM     91  H   UNL     1     153.784 163.832 187.556  0.00  0.00    +0.074 HD
BRANCH  90  92
ATOM     92  C   UNL     1     153.102 162.690 189.287  0.00  0.00    +0.031 C 
ATOM     93  H   UNL     1     152.474 162.949 190.150  0.00  0.00    +0.037 HD
BRANCH  92  94
ATOM     94  C   UNL     1     154.522 162.504 189.835  0.00  0.00    -0.056 C 
ATOM     95  H   UNL     1     155.171 161.943 189.160  0.00  0.00    +0.023 HD
ATOM     96  H   UNL     1     155.001 163.467 190.037  0.00  0.00    +0.023 HD
ATOM     97  H   UNL     1     154.502 161.970 190.789  0.00  0.00    +0.023 HD
ENDBRANCH  92  94
BRANCH  92  98
ATOM     98  C   UNL     1     152.488 161.400 188.659  0.00  0.00    +0.115 C 
ATOM     99  H   UNL     1     151.697 161.702 187.965  0.00  0.00    +0.074 HD
BRANCH  98 100
ATOM    100  C   UNL     1     153.451 160.435 187.902  0.00  0.00    +0.013 C 
ATOM    101  H   UNL     1     154.461 160.863 187.977  0.00  0.00    +0.038 HD
BRANCH 100 102
ATOM    102  C   UNL     1     153.191 160.364 186.393  0.00  0.00    -0.056 C 
ATOM    103  H   UNL     1     153.427 161.304 185.884  0.00  0.00    +0.024 HD
ATOM    104  H   UNL     1     153.789 159.572 185.934  0.00  0.00    +0.024 HD
ATOM    105  H   UNL     1     152.137 160.140 186.193  0.00  0.00    +0.024 HD
ENDBRANCH 100 102
BRANCH 100 106
ATOM    106  C   UNL     1     153.519 159.055 188.522  0.00  0.00    -0.064 C 
ATOM    107  C   UNL     1     154.655 158.575 189.049  0.00  0.00    -0.005 C 
ATOM    108  H   UNL     1     152.603 158.475 188.515  0.00  0.00    +0.059 HD
ATOM    109  H   UNL     1     155.546 159.207 189.025  0.00  0.00    +0.078 HD
BRANCH 107 110
ATOM    110  N   UNL     1     154.855 157.343 189.655  0.00  0.00    -0.284 N 
ATOM    111  C   UNL     1     155.919 157.023 190.486  0.00  0.00    +0.206 C 
ATOM    112  O   UNL     1     156.115 155.938 191.029  0.00  0.00    -0.279 OA
ATOM    113  H   UNL     1     156.633 157.844 190.633  0.00  0.00    +0.126 HD
BRANCH 110 114
ATOM    114  C   UNL     1     153.876 156.297 189.368  0.00  0.00    +0.007 C 
ATOM    115  H   UNL     1     154.273 155.300 189.575  0.00  0.00    +0.043 HD
ATOM    116  H   UNL     1     152.986 156.452 189.983  0.00  0.00    +0.043 HD
ATOM    117  H   UNL     1     153.605 156.355 188.310  0.00  0.00    +0.043 HD
ENDBRANCH 110 114
ENDBRANCH 107 110
ENDBRANCH 100 106
ENDBRANCH  98 100
BRANCH  98 118
ATOM    118  O   UNL     1     151.880 160.641 189.742  0.00  0.00    -0.461 OA
BRANCH 118 119
ATOM    119  C   UNL     1     150.528 160.725 189.873  0.00  0.00    +0.304 C 
ATOM    120  O   UNL     1     149.903 160.552 190.907  0.00  0.00    -0.251 OA
BRANCH 119 121
ATOM    121  C   UNL     1     149.908 161.067 188.552  0.00  0.00    +0.033 C 
ATOM    122  H   UNL     1     148.862 161.343 188.696  0.00  0.00    +0.034 HD
ATOM    123  H   UNL     1     149.949 160.192 187.897  0.00  0.00    +0.034 HD
ATOM    124  H   UNL     1     150.461 161.883 188.080  0.00  0.00    +0.034 HD
ENDBRANCH 119 121
ENDBRANCH 118 119
ENDBRANCH  98 118
ENDBRANCH  92  98
ENDBRANCH  90  92
BRANCH  90 125
ATOM    125  O   UNL     1     153.331 165.092 189.170  0.00  0.00    -0.459 OA
BRANCH 125 126
ATOM    126  C   UNL     1     153.897 166.179 188.560  0.00  0.00    +0.339 C 
ATOM    127  O   UNL     1     153.588 167.345 188.774  0.00  0.00    -0.248 OA
BRANCH 126 128
ATOM    128  C   UNL     1     155.011 165.701 187.607  0.00  0.00    +0.178 C 
ATOM    129  H   UNL     1     154.883 164.618 187.468  0.00  0.00    +0.074 HD
BRANCH 128 130
ATOM    130  C   UNL     1     154.824 166.386 186.241  0.00  0.00    +0.084 C 
ATOM    131  H   UNL     1     154.030 167.140 186.286  0.00  0.00    +0.059 HD
ATOM    132  H   UNL     1     154.545 165.632 185.496  0.00  0.00    +0.059 HD
BRANCH 130 133
ATOM    133  O   UNL     1     156.036 167.027 185.823  0.00  0.00    -0.380 OA
BRANCH 133 134
ATOM    134  C   UNL     1     155.784 168.143 184.982  0.00  0.00    +0.037 C 
ATOM    135  H   UNL     1     156.090 167.924 183.955  0.00  0.00    +0.052 HD
ATOM    136  H   UNL     1     154.724 168.415 185.010  0.00  0.00    +0.052 HD
ATOM    137  H   UNL     1     156.374 168.989 185.349  0.00  0.00    +0.052 HD
ENDBRANCH 133 134
ENDBRANCH 130 133
ENDBRANCH 128 130
BRANCH 128 138
ATOM    138  O   UNL     1     156.364 165.931 188.012  0.00  0.00    -0.366 OA
BRANCH 138 139
ATOM    139  C   UNL     1     156.629 165.531 189.348  0.00  0.00    +0.038 C 
ATOM    140  H   UNL     1     155.699 165.317 189.885  0.00  0.00    +0.052 HD
ATOM    141  H   UNL     1     157.206 166.294 189.876  0.00  0.00    +0.052 HD
ATOM    142  H   UNL     1     157.227 164.615 189.316  0.00  0.00    +0.052 HD
ENDBRANCH 138 139
ENDBRANCH 128 138
ENDBRANCH 126 128
ENDBRANCH 125 126
ENDBRANCH  90 125
ENDBRANCH  87  90
ENDBRANCH  84  87
ENDBRANCH  78  84
ENDBRANCH  76  78
BRANCH  76 143
ATOM    143  O   UNL     1     148.298 167.290 189.299  0.00  0.00    -0.379 OA
BRANCH 143 144
ATOM    144  C   UNL     1     147.597 168.225 188.490  0.00  0.00    +0.037 C 
ATOM    145  H   UNL     1     146.563 168.273 188.841  0.00  0.00    +0.052 HD
ATOM    146  H   UNL     1     148.039 169.222 188.575  0.00  0.00    +0.052 HD
ATOM    147  H   UNL     1     147.592 167.897 187.444  0.00  0.00    +0.052 HD
ENDBRANCH 143 144
ENDBRANCH  76 143
ENDBRANCH   1  76
TORSDOF 35
ENDMDL
MODEL 8
REMARK VINA RESULT:      -5.4      2.911     10.780
REMARK  Name = Mycalolide B_conf1
REMARK  35 active torsions:
REMARK  status: ('A' for Active; 'I' for Inactive)
REMARK    1  A    between atoms: C_1  and  C_2
REMARK    2  A    between atoms: C_3  and  O_72
REMARK    3  A    between atoms: C_22  and  O_70
REMARK    4  A    between atoms: C_23  and  C_69
REMARK    5  A    between atoms: C_29  and  O_68
REMARK    6  A    between atoms: C_34  and  C_35
REMARK    7  A    between atoms: C_35  and  C_36
REMARK    8  A    between atoms: C_36  and  C_37
REMARK    9  A    between atoms: C_36  and  O_66
REMARK   10  A    between atoms: C_37  and  C_38
REMARK   11  A    between atoms: C_37  and  C_39
REMARK   12  A    between atoms: C_39  and  C_40
REMARK   13  A    between atoms: C_40  and  C_41
REMARK   14  A    between atoms: C_41  and  C_42
REMARK   15  A    between atoms: C_41  and  O_57
REMARK   16  A    between atoms: C_42  and  C_43
REMARK   17  A    between atoms: C_42  and  C_44
REMARK   18  A    between atoms: C_44  and  C_45
REMARK   19  A    between atoms: C_44  and  O_53
REMARK   20  A    between atoms: C_45  and  C_46
REMARK   21  A    between atoms: C_45  and  C_47
REMARK   22  A    between atoms: C_48  and  N_49
REMARK   23  A    between atoms: N_49  and  C_50
REMARK   24  A    between atoms: O_53  and  C_54
REMARK   25  A    between atoms: C_54  and  C_56
REMARK   26  A    between atoms: O_57  and  C_58
REMARK   27  A    between atoms: C_58  and  C_60
REMARK   28  A    between atoms: C_60  and  C_61
REMARK   29  A    between atoms: C_60  and  O_64
REMARK   30  A    between atoms: C_61  and  O_62
REMARK   31  A    between atoms: O_62  and  C_63
REMARK   32  A    between atoms: O_64  and  C_65
REMARK   33  A    between atoms: O_66  and  C_67
REMARK   34  A    between atoms: O_70  and  C_71
REMARK   35  A    between atoms: O_72  and  C_73
REMARK                            x       y       z     vdW  Elec       q    Type
REMARK                         _______ _______ _______ _____ _____    ______ ____
ROOT
ATOM      1  C   UNL     1     152.277 165.443 190.086  0.00  0.00    +0.011 C 
ATOM      2  H   UNL     1     153.164 165.773 190.642  0.00  0.00    +0.033 HD
ATOM      3  H   UNL     1     151.968 166.318 189.505  0.00  0.00    +0.033 HD
ENDROOT
BRANCH   1  36
ATOM      4  C   UNL     1     153.981 164.525 188.354  0.00  0.00    +0.020 C 
ATOM      5  C   UNL     1     153.842 165.122 186.921  0.00  0.00    +0.068 C 
ATOM      6  C   UNL     1     153.076 166.467 186.772  0.00  0.00    -0.008 C 
ATOM      7  C   UNL     1     151.578 166.363 186.845  0.00  0.00    -0.077 C 
ATOM      8  C   UNL     1     150.734 167.370 187.125  0.00  0.00    -0.003 C 
ATOM      9  C   UNL     1     149.334 167.120 187.194  0.00  0.00    +0.220 A 
ATOM     10  N   UNL     1     148.772 165.927 187.315  0.00  0.00    -0.205 NA
ATOM     11  C   UNL     1     147.420 166.150 187.332  0.00  0.00    +0.164 A 
ATOM     12  C   UNL     1     147.181 167.494 187.243  0.00  0.00    +0.125 A 
ATOM     13  O   UNL     1     148.385 168.129 187.175  0.00  0.00    -0.443 OA
ATOM     14  C   UNL     1     146.352 165.020 187.432  0.00  0.00    +0.250 A 
ATOM     15  N   UNL     1     146.678 163.747 187.550  0.00  0.00    -0.203 NA
ATOM     16  C   UNL     1     145.477 163.086 187.591  0.00  0.00    +0.164 A 
ATOM     17  C   UNL     1     144.449 163.987 187.496  0.00  0.00    +0.125 A 
ATOM     18  O   UNL     1     144.992 165.235 187.401  0.00  0.00    -0.442 OA
ATOM     19  C   UNL     1     145.318 161.539 187.723  0.00  0.00    +0.249 A 
ATOM     20  N   UNL     1     146.347 160.714 187.831  0.00  0.00    -0.210 NA
ATOM     21  C   UNL     1     145.787 159.462 187.957  0.00  0.00    +0.109 A 
ATOM     22  C   UNL     1     144.417 159.580 187.906  0.00  0.00    +0.118 A 
ATOM     23  O   UNL     1     144.102 160.895 187.754  0.00  0.00    -0.442 OA
ATOM     24  C   UNL     1     146.636 158.245 188.179  0.00  0.00    +0.113 C 
ATOM     25  C   UNL     1     147.611 158.462 189.357  0.00  0.00    +0.051 C 
ATOM     26  C   UNL     1     148.401 157.181 189.588  0.00  0.00    +0.161 C 
ATOM     27  O   UNL     1     147.859 156.077 189.624  0.00  0.00    -0.292 OA
ATOM     28  C   UNL     1     149.871 157.246 189.842  0.00  0.00    -0.023 C 
ATOM     29  C   UNL     1     150.517 158.320 190.327  0.00  0.00    -0.078 C 
ATOM     30  C   UNL     1     151.996 158.338 190.612  0.00  0.00    -0.008 C 
ATOM     31  C   UNL     1     152.753 159.444 189.852  0.00  0.00    +0.069 C 
ATOM     32  C   UNL     1     152.522 160.836 190.453  0.00  0.00    +0.071 C 
ATOM     33  C   UNL     1     152.539 161.909 189.391  0.00  0.00    +0.310 C 
ATOM     34  O   UNL     1     152.273 161.732 188.212  0.00  0.00    -0.251 OA
ATOM     35  O   UNL     1     152.810 163.116 189.965  0.00  0.00    -0.461 OA
ATOM     36  C   UNL     1     152.647 164.293 189.128  0.00  0.00    +0.110 C 
ATOM     37  H   UNL     1     154.435 163.534 188.232  0.00  0.00    +0.036 HD
ATOM     38  H   UNL     1     154.857 165.320 186.550  0.00  0.00    +0.060 HD
ATOM     39  H   UNL     1     153.456 167.203 187.487  0.00  0.00    +0.033 HD
ATOM     40  H   UNL     1     153.303 166.849 185.767  0.00  0.00    +0.033 HD
ATOM     41  H   UNL     1     151.159 165.379 186.615  0.00  0.00    +0.057 HD
ATOM     42  H   UNL     1     151.086 168.380 187.301  0.00  0.00    +0.067 HD
ATOM     43  H   UNL     1     146.299 168.117 187.224  0.00  0.00    +0.105 HD
ATOM     44  H   UNL     1     143.374 163.919 187.483  0.00  0.00    +0.105 HD
ATOM     45  H   UNL     1     143.585 158.893 187.972  0.00  0.00    +0.105 HD
ATOM     46  H   UNL     1     145.992 157.381 188.392  0.00  0.00    +0.067 HD
ATOM     47  H   UNL     1     148.305 159.266 189.090  0.00  0.00    +0.041 HD
ATOM     48  H   UNL     1     150.391 156.312 189.649  0.00  0.00    +0.065 HD
ATOM     49  H   UNL     1     149.975 159.233 190.561  0.00  0.00    +0.057 HD
ATOM     50  H   UNL     1     152.151 158.462 191.691  0.00  0.00    +0.033 HD
ATOM     51  H   UNL     1     152.439 157.366 190.364  0.00  0.00    +0.033 HD
ATOM     52  H   UNL     1     152.483 159.402 188.791  0.00  0.00    +0.060 HD
ATOM     53  H   UNL     1     153.298 161.060 191.193  0.00  0.00    +0.040 HD
ATOM     54  H   UNL     1     151.543 160.913 190.939  0.00  0.00    +0.040 HD
ATOM     55  H   UNL     1     151.818 164.113 188.438  0.00  0.00    +0.074 HD
BRANCH   4  56
ATOM     56  C   UNL     1     155.027 165.310 189.161  0.00  0.00    -0.057 C 
ATOM     57  H   UNL     1     155.107 164.961 190.196  0.00  0.00    +0.023 HD
ATOM     58  H   UNL     1     156.015 165.239 188.695  0.00  0.00    +0.023 HD
ATOM     59  H   UNL     1     154.763 166.374 189.198  0.00  0.00    +0.023 HD
ENDBRANCH   4  56
BRANCH  25  60
ATOM     60  C   UNL     1     146.897 158.806 190.667  0.00  0.00    -0.053 C 
ATOM     61  H   UNL     1     147.119 158.072 191.449  0.00  0.00    +0.024 HD
ATOM     62  H   UNL     1     145.812 158.819 190.529  0.00  0.00    +0.024 HD
ATOM     63  H   UNL     1     147.205 159.786 191.042  0.00  0.00    +0.024 HD
ENDBRANCH  25  60
BRANCH  31  64
ATOM     64  O   UNL     1     154.157 159.166 189.941  0.00  0.00    -0.391 OA
ATOM     65  H   UNL     1     154.409 159.224 190.882  0.00  0.00    +0.210 HD
ENDBRANCH  31  64
BRANCH  24  66
ATOM     66  O   UNL     1     147.438 157.952 187.017  0.00  0.00    -0.373 OA
BRANCH  66  67
ATOM     67  C   UNL     1     146.814 157.038 186.126  0.00  0.00    +0.037 C 
ATOM     68  H   UNL     1     147.402 156.913 185.214  0.00  0.00    +0.052 HD
ATOM     69  H   UNL     1     145.801 157.374 185.883  0.00  0.00    +0.052 HD
ATOM     70  H   UNL     1     146.742 156.068 186.625  0.00  0.00    +0.052 HD
ENDBRANCH  66  67
ENDBRANCH  24  66
BRANCH   5  71
ATOM     71  O   UNL     1     153.232 164.193 186.011  0.00  0.00    -0.379 OA
BRANCH  71  72
ATOM     72  C   UNL     1     154.096 163.175 185.529  0.00  0.00    +0.037 C 
ATOM     73  H   UNL     1     153.738 162.213 185.910  0.00  0.00    +0.052 HD
ATOM     74  H   UNL     1     154.083 163.138 184.434  0.00  0.00    +0.052 HD
ATOM     75  H   UNL     1     155.118 163.315 185.886  0.00  0.00    +0.052 HD
ENDBRANCH  71  72
ENDBRANCH   5  71
ENDBRANCH   1  36
BRANCH   1  76
ATOM     76  C   UNL     1     151.153 165.152 191.103  0.00  0.00    +0.064 C 
ATOM     77  H   UNL     1     151.442 164.282 191.705  0.00  0.00    +0.060 HD
BRANCH  76  78
ATOM     78  C   UNL     1     150.775 166.296 192.089  0.00  0.00    -0.017 C 
ATOM     79  H   UNL     1     149.709 166.218 192.326  0.00  0.00    +0.032 HD
BRANCH  78  80
ATOM     80  C   UNL     1     151.583 166.233 193.396  0.00  0.00    -0.060 C 
ATOM     81  H   UNL     1     150.922 166.253 194.267  0.00  0.00    +0.023 HD
ATOM     82  H   UNL     1     152.273 167.078 193.477  0.00  0.00    +0.023 HD
ATOM     83  H   UNL     1     152.169 165.314 193.475  0.00  0.00    +0.023 HD
ENDBRANCH  78  80
BRANCH  78  84
ATOM     84  C   UNL     1     151.002 167.655 191.378  0.00  0.00    -0.045 C 
ATOM     85  H   UNL     1     152.079 167.800 191.284  0.00  0.00    +0.027 HD
ATOM     86  H   UNL     1     150.596 167.601 190.360  0.00  0.00    +0.027 HD
BRANCH  84  87
ATOM     87  C   UNL     1     150.405 168.874 192.082  0.00  0.00    -0.015 C 
ATOM     88  H   UNL     1     151.100 169.720 192.060  0.00  0.00    +0.030 HD
ATOM     89  H   UNL     1     150.279 168.643 193.149  0.00  0.00    +0.030 HD
BRANCH  87  90
ATOM     90  C   UNL     1     149.042 169.324 191.518  0.00  0.00    +0.109 C 
ATOM     91  H   UNL     1     148.954 168.922 190.502  0.00  0.00    +0.074 HD
BRANCH  90  92
ATOM     92  C   UNL     1     148.740 170.862 191.478  0.00  0.00    +0.031 C 
ATOM     93  H   UNL     1     149.406 171.263 190.702  0.00  0.00    +0.037 HD
BRANCH  92  94
ATOM     94  C   UNL     1     149.160 171.536 192.790  0.00  0.00    -0.056 C 
ATOM     95  H   UNL     1     150.234 171.477 192.976  0.00  0.00    +0.023 HD
ATOM     96  H   UNL     1     148.876 172.593 192.804  0.00  0.00    +0.023 HD
ATOM     97  H   UNL     1     148.654 171.075 193.642  0.00  0.00    +0.023 HD
ENDBRANCH  92  94
BRANCH  92  98
ATOM     98  C   UNL     1     147.282 171.196 191.030  0.00  0.00    +0.115 C 
ATOM     99  H   UNL     1     146.594 170.799 191.783  0.00  0.00    +0.074 HD
BRANCH  98 100
ATOM    100  C   UNL     1     146.925 172.696 190.794  0.00  0.00    +0.013 C 
ATOM    101  H   UNL     1     146.581 172.786 189.753  0.00  0.00    +0.038 HD
BRANCH 100 102
ATOM    102  C   UNL     1     148.132 173.637 190.867  0.00  0.00    -0.056 C 
ATOM    103  H   UNL     1     148.475 173.797 191.894  0.00  0.00    +0.024 HD
ATOM    104  H   UNL     1     148.971 173.238 190.290  0.00  0.00    +0.024 HD
ATOM    105  H   UNL     1     147.882 174.619 190.449  0.00  0.00    +0.024 HD
ENDBRANCH 100 102
BRANCH 100 106
ATOM    106  C   UNL     1     145.786 173.180 191.668  0.00  0.00    -0.064 C 
ATOM    107  C   UNL     1     144.524 173.233 191.215  0.00  0.00    -0.005 C 
ATOM    108  H   UNL     1     146.043 173.484 192.675  0.00  0.00    +0.059 HD
ATOM    109  H   UNL     1     144.327 172.914 190.188  0.00  0.00    +0.078 HD
BRANCH 107 110
ATOM    110  N   UNL     1     143.392 173.640 191.905  0.00  0.00    -0.284 N 
ATOM    111  C   UNL     1     143.325 174.729 192.762  0.00  0.00    +0.206 C 
ATOM    112  O   UNL     1     142.333 175.104 193.384  0.00  0.00    -0.279 OA
ATOM    113  H   UNL     1     144.275 175.269 192.873  0.00  0.00    +0.126 HD
BRANCH 110 114
ATOM    114  C   UNL     1     142.185 172.836 191.730  0.00  0.00    +0.007 C 
ATOM    115  H   UNL     1     141.818 172.870 190.701  0.00  0.00    +0.043 HD
ATOM    116  H   UNL     1     142.399 171.796 191.989  0.00  0.00    +0.043 HD
ATOM    117  H   UNL     1     141.408 173.226 192.394  0.00  0.00    +0.043 HD
ENDBRANCH 110 114
ENDBRANCH 107 110
ENDBRANCH 100 106
ENDBRANCH  98 100
BRANCH  98 118
ATOM    118  O   UNL     1     147.045 170.494 189.777  0.00  0.00    -0.461 OA
BRANCH 118 119
ATOM    119  C   UNL     1     145.763 170.126 189.508  0.00  0.00    +0.304 C 
ATOM    120  O   UNL     1     145.024 169.521 190.269  0.00  0.00    -0.251 OA
BRANCH 119 121
ATOM    121  C   UNL     1     145.380 170.580 188.132  0.00  0.00    +0.033 C 
ATOM    122  H   UNL     1     146.201 171.145 187.689  0.00  0.00    +0.034 HD
ATOM    123  H   UNL     1     144.505 171.234 188.198  0.00  0.00    +0.034 HD
ATOM    124  H   UNL     1     145.125 169.718 187.512  0.00  0.00    +0.034 HD
ENDBRANCH 119 121
ENDBRANCH 118 119
ENDBRANCH  98 118
ENDBRANCH  92  98
ENDBRANCH  90  92
BRANCH  90 125
ATOM    125  O   UNL     1     148.028 168.735 192.374  0.00  0.00    -0.459 OA
BRANCH 125 126
ATOM    126  C   UNL     1     147.449 167.565 191.959  0.00  0.00    +0.339 C 
ATOM    127  O   UNL     1     147.416 167.171 190.800  0.00  0.00    -0.248 OA
BRANCH 126 128
ATOM    128  C   UNL     1     146.898 166.811 193.185  0.00  0.00    +0.178 C 
ATOM    129  H   UNL     1     146.717 167.555 193.975  0.00  0.00    +0.074 HD
BRANCH 128 130
ATOM    130  C   UNL     1     145.551 166.169 192.809  0.00  0.00    +0.084 C 
ATOM    131  H   UNL     1     145.219 165.471 193.586  0.00  0.00    +0.059 HD
ATOM    132  H   UNL     1     145.666 165.615 191.871  0.00  0.00    +0.059 HD
BRANCH 130 133
ATOM    133  O   UNL     1     144.540 167.171 192.637  0.00  0.00    -0.380 OA
BRANCH 133 134
ATOM    134  C   UNL     1     143.306 166.787 193.225  0.00  0.00    +0.037 C 
ATOM    135  H   UNL     1     142.472 167.051 192.567  0.00  0.00    +0.052 HD
ATOM    136  H   UNL     1     143.296 165.713 193.435  0.00  0.00    +0.052 HD
ATOM    137  H   UNL     1     143.191 167.332 194.168  0.00  0.00    +0.052 HD
ENDBRANCH 133 134
ENDBRANCH 130 133
ENDBRANCH 128 130
BRANCH 128 138
ATOM    138  O   UNL     1     147.717 165.777 193.741  0.00  0.00    -0.366 OA
BRANCH 138 139
ATOM    139  C   UNL     1     148.241 166.098 195.020  0.00  0.00    +0.038 C 
ATOM    140  H   UNL     1     149.332 166.184 194.987  0.00  0.00    +0.052 HD
ATOM    141  H   UNL     1     147.942 165.353 195.762  0.00  0.00    +0.052 HD
ATOM    142  H   UNL     1     147.828 167.064 195.325  0.00  0.00    +0.052 HD
ENDBRANCH 138 139
ENDBRANCH 128 138
ENDBRANCH 126 128
ENDBRANCH 125 126
ENDBRANCH  90 125
ENDBRANCH  87  90
ENDBRANCH  84  87
ENDBRANCH  78  84
ENDBRANCH  76  78
BRANCH  76 143
ATOM    143  O   UNL     1     149.964 164.841 190.344  0.00  0.00    -0.379 OA
BRANCH 143 144
ATOM    144  C   UNL     1     149.100 163.916 190.991  0.00  0.00    +0.037 C 
ATOM    145  H   UNL     1     148.459 163.459 190.232  0.00  0.00    +0.052 HD
ATOM    146  H   UNL     1     149.674 163.126 191.482  0.00  0.00    +0.052 HD
ATOM    147  H   UNL     1     148.462 164.433 191.717  0.00  0.00    +0.052 HD
ENDBRANCH 143 144
ENDBRANCH  76 143
ENDBRANCH   1  76
TORSDOF 35
ENDMDL
MODEL 9
REMARK VINA RESULT:      -5.4      3.296     12.473
REMARK  Name = Mycalolide B_conf1
REMARK  35 active torsions:
REMARK  status: ('A' for Active; 'I' for Inactive)
REMARK    1  A    between atoms: C_1  and  C_2
REMARK    2  A    between atoms: C_3  and  O_72
REMARK    3  A    between atoms: C_22  and  O_70
REMARK    4  A    between atoms: C_23  and  C_69
REMARK    5  A    between atoms: C_29  and  O_68
REMARK    6  A    between atoms: C_34  and  C_35
REMARK    7  A    between atoms: C_35  and  C_36
REMARK    8  A    between atoms: C_36  and  C_37
REMARK    9  A    between atoms: C_36  and  O_66
REMARK   10  A    between atoms: C_37  and  C_38
REMARK   11  A    between atoms: C_37  and  C_39
REMARK   12  A    between atoms: C_39  and  C_40
REMARK   13  A    between atoms: C_40  and  C_41
REMARK   14  A    between atoms: C_41  and  C_42
REMARK   15  A    between atoms: C_41  and  O_57
REMARK   16  A    between atoms: C_42  and  C_43
REMARK   17  A    between atoms: C_42  and  C_44
REMARK   18  A    between atoms: C_44  and  C_45
REMARK   19  A    between atoms: C_44  and  O_53
REMARK   20  A    between atoms: C_45  and  C_46
REMARK   21  A    between atoms: C_45  and  C_47
REMARK   22  A    between atoms: C_48  and  N_49
REMARK   23  A    between atoms: N_49  and  C_50
REMARK   24  A    between atoms: O_53  and  C_54
REMARK   25  A    between atoms: C_54  and  C_56
REMARK   26  A    between atoms: O_57  and  C_58
REMARK   27  A    between atoms: C_58  and  C_60
REMARK   28  A    between atoms: C_60  and  C_61
REMARK   29  A    between atoms: C_60  and  O_64
REMARK   30  A    between atoms: C_61  and  O_62
REMARK   31  A    between atoms: O_62  and  C_63
REMARK   32  A    between atoms: O_64  and  C_65
REMARK   33  A    between atoms: O_66  and  C_67
REMARK   34  A    between atoms: O_70  and  C_71
REMARK   35  A    between atoms: O_72  and  C_73
REMARK                            x       y       z     vdW  Elec       q    Type
REMARK                         _______ _______ _______ _____ _____    ______ ____
ROOT
ATOM      1  C   UNL     1     144.429 168.020 186.321  0.00  0.00    +0.011 C 
ATOM      2  H   UNL     1     144.353 168.629 185.411  0.00  0.00    +0.033 HD
ATOM      3  H   UNL     1     143.403 167.947 186.698  0.00  0.00    +0.033 HD
ENDROOT
BRANCH   1  36
ATOM      4  C   UNL     1     144.074 165.852 184.936  0.00  0.00    +0.020 C 
ATOM      5  C   UNL     1     143.021 164.866 185.525  0.00  0.00    +0.068 C 
ATOM      6  C   UNL     1     141.997 165.432 186.548  0.00  0.00    -0.008 C 
ATOM      7  C   UNL     1     142.530 165.649 187.937  0.00  0.00    -0.077 C 
ATOM      8  C   UNL     1     141.992 166.456 188.867  0.00  0.00    -0.003 C 
ATOM      9  C   UNL     1     142.626 166.592 190.135  0.00  0.00    +0.220 A 
ATOM     10  N   UNL     1     143.874 166.244 190.412  0.00  0.00    -0.205 NA
ATOM     11  C   UNL     1     144.058 166.538 191.738  0.00  0.00    +0.164 A 
ATOM     12  C   UNL     1     142.913 167.087 192.245  0.00  0.00    +0.125 A 
ATOM     13  O   UNL     1     141.997 167.149 191.237  0.00  0.00    -0.443 OA
ATOM     14  C   UNL     1     145.381 166.267 192.514  0.00  0.00    +0.250 A 
ATOM     15  N   UNL     1     146.452 165.763 191.931  0.00  0.00    -0.203 NA
ATOM     16  C   UNL     1     147.379 165.665 192.937  0.00  0.00    +0.164 A 
ATOM     17  C   UNL     1     146.837 166.117 194.111  0.00  0.00    +0.125 A 
ATOM     18  O   UNL     1     145.557 166.515 193.857  0.00  0.00    -0.442 OA
ATOM     19  C   UNL     1     148.829 165.116 192.760  0.00  0.00    +0.249 A 
ATOM     20  N   UNL     1     149.311 164.709 191.596  0.00  0.00    -0.210 NA
ATOM     21  C   UNL     1     150.611 164.339 191.858  0.00  0.00    +0.109 A 
ATOM     22  C   UNL     1     150.866 164.528 193.198  0.00  0.00    +0.118 A 
ATOM     23  O   UNL     1     149.741 165.019 193.786  0.00  0.00    -0.442 OA
ATOM     24  C   UNL     1     151.530 163.883 190.764  0.00  0.00    +0.113 C 
ATOM     25  C   UNL     1     151.539 164.894 189.597  0.00  0.00    +0.051 C 
ATOM     26  C   UNL     1     152.533 164.426 188.543  0.00  0.00    +0.161 C 
ATOM     27  O   UNL     1     153.664 164.040 188.838  0.00  0.00    -0.292 OA
ATOM     28  C   UNL     1     152.171 164.485 187.095  0.00  0.00    -0.023 C 
ATOM     29  C   UNL     1     151.245 165.306 186.571  0.00  0.00    -0.078 C 
ATOM     30  C   UNL     1     150.934 165.371 185.099  0.00  0.00    -0.008 C 
ATOM     31  C   UNL     1     149.456 165.087 184.772  0.00  0.00    +0.069 C 
ATOM     32  C   UNL     1     148.540 166.268 185.116  0.00  0.00    +0.071 C 
ATOM     33  C   UNL     1     147.174 165.801 185.559  0.00  0.00    +0.310 C 
ATOM     34  O   UNL     1     146.934 164.713 186.060  0.00  0.00    -0.251 OA
ATOM     35  O   UNL     1     146.271 166.809 185.396  0.00  0.00    -0.461 OA
ATOM     36  C   UNL     1     144.953 166.612 185.977  0.00  0.00    +0.110 C 
ATOM     37  H   UNL     1     144.768 165.243 184.343  0.00  0.00    +0.036 HD
ATOM     38  H   UNL     1     142.420 164.490 184.686  0.00  0.00    +0.060 HD
ATOM     39  H   UNL     1     141.532 166.342 186.158  0.00  0.00    +0.033 HD
ATOM     40  H   UNL     1     141.200 164.681 186.646  0.00  0.00    +0.033 HD
ATOM     41  H   UNL     1     143.416 165.064 188.201  0.00  0.00    +0.057 HD
ATOM     42  H   UNL     1     141.082 167.013 188.684  0.00  0.00    +0.067 HD
ATOM     43  H   UNL     1     142.602 167.464 193.208  0.00  0.00    +0.105 HD
ATOM     44  H   UNL     1     147.188 166.218 195.125  0.00  0.00    +0.105 HD
ATOM     45  H   UNL     1     151.723 164.393 193.842  0.00  0.00    +0.105 HD
ATOM     46  H   UNL     1     152.548 163.774 191.160  0.00  0.00    +0.067 HD
ATOM     47  H   UNL     1     150.537 164.923 189.154  0.00  0.00    +0.041 HD
ATOM     48  H   UNL     1     152.769 163.830 186.467  0.00  0.00    +0.065 HD
ATOM     49  H   UNL     1     150.690 165.990 187.207  0.00  0.00    +0.057 HD
ATOM     50  H   UNL     1     151.212 166.361 184.717  0.00  0.00    +0.033 HD
ATOM     51  H   UNL     1     151.565 164.660 184.549  0.00  0.00    +0.033 HD
ATOM     52  H   UNL     1     149.146 164.164 185.274  0.00  0.00    +0.060 HD
ATOM     53  H   UNL     1     148.423 166.921 184.244  0.00  0.00    +0.040 HD
ATOM     54  H   UNL     1     148.935 166.863 185.946  0.00  0.00    +0.040 HD
ATOM     55  H   UNL     1     145.066 166.031 186.896  0.00  0.00    +0.074 HD
BRANCH   4  56
ATOM     56  C   UNL     1     143.419 166.777 183.898  0.00  0.00    -0.057 C 
ATOM     57  H   UNL     1     142.680 167.451 184.344  0.00  0.00    +0.023 HD
ATOM     58  H   UNL     1     144.171 167.381 183.381  0.00  0.00    +0.023 HD
ATOM     59  H   UNL     1     142.898 166.186 183.134  0.00  0.00    +0.023 HD
ENDBRANCH   4  56
BRANCH  25  60
ATOM     60  C   UNL     1     151.955 166.303 190.030  0.00  0.00    -0.053 C 
ATOM     61  H   UNL     1     151.266 166.712 190.777  0.00  0.00    +0.024 HD
ATOM     62  H   UNL     1     151.958 166.988 189.178  0.00  0.00    +0.024 HD
ATOM     63  H   UNL     1     152.955 166.304 190.473  0.00  0.00    +0.024 HD
ENDBRANCH  25  60
BRANCH  31  64
ATOM     64  O   UNL     1     149.346 164.856 183.361  0.00  0.00    -0.391 OA
ATOM     65  H   UNL     1     148.975 163.961 183.238  0.00  0.00    +0.210 HD
ENDBRANCH  31  64
BRANCH  24  66
ATOM     66  O   UNL     1     151.104 162.617 190.222  0.00  0.00    -0.373 OA
BRANCH  66  67
ATOM     67  C   UNL     1     151.857 161.518 190.716  0.00  0.00    +0.037 C 
ATOM     68  H   UNL     1     152.736 161.859 191.268  0.00  0.00    +0.052 HD
ATOM     69  H   UNL     1     152.154 160.859 189.893  0.00  0.00    +0.052 HD
ATOM     70  H   UNL     1     151.221 160.947 191.398  0.00  0.00    +0.052 HD
ENDBRANCH  66  67
ENDBRANCH  24  66
BRANCH   5  71
ATOM     71  O   UNL     1     143.642 163.727 186.145  0.00  0.00    -0.379 OA
BRANCH  71  72
ATOM     72  C   UNL     1     143.047 162.478 185.830  0.00  0.00    +0.037 C 
ATOM     73  H   UNL     1     142.127 162.670 185.267  0.00  0.00    +0.052 HD
ATOM     74  H   UNL     1     143.713 161.875 185.204  0.00  0.00    +0.052 HD
ATOM     75  H   UNL     1     142.777 161.924 186.730  0.00  0.00    +0.052 HD
ENDBRANCH  71  72
ENDBRANCH   5  71
ENDBRANCH   1  36
BRANCH   1  76
ATOM     76  C   UNL     1     145.240 168.816 187.365  0.00  0.00    +0.064 C 
ATOM     77  H   UNL     1     146.069 169.322 186.854  0.00  0.00    +0.060 HD
BRANCH  76  78
ATOM     78  C   UNL     1     144.474 169.893 188.188  0.00  0.00    -0.017 C 
ATOM     79  H   UNL     1     144.823 170.884 187.882  0.00  0.00    +0.032 HD
BRANCH  78  80
ATOM     80  C   UNL     1     142.952 169.814 187.983  0.00  0.00    -0.060 C 
ATOM     81  H   UNL     1     142.632 168.780 187.821  0.00  0.00    +0.023 HD
ATOM     82  H   UNL     1     142.637 170.403 187.117  0.00  0.00    +0.023 HD
ATOM     83  H   UNL     1     142.399 170.176 188.853  0.00  0.00    +0.023 HD
ENDBRANCH  78  80
BRANCH  78  84
ATOM     84  C   UNL     1     144.827 169.711 189.688  0.00  0.00    -0.045 C 
ATOM     85  H   UNL     1     144.970 168.644 189.863  0.00  0.00    +0.027 HD
ATOM     86  H   UNL     1     145.787 170.201 189.893  0.00  0.00    +0.027 HD
BRANCH  84  87
ATOM     87  C   UNL     1     143.786 170.233 190.677  0.00  0.00    -0.015 C 
ATOM     88  H   UNL     1     143.731 169.593 191.565  0.00  0.00    +0.030 HD
ATOM     89  H   UNL     1     142.790 170.159 190.217  0.00  0.00    +0.030 HD
BRANCH  87  90
ATOM     90  C   UNL     1     144.010 171.694 191.119  0.00  0.00    +0.109 C 
ATOM     91  H   UNL     1     143.968 171.719 192.214  0.00  0.00    +0.074 HD
BRANCH  90  92
ATOM     92  C   UNL     1     143.038 172.786 190.552  0.00  0.00    +0.031 C 
ATOM     93  H   UNL     1     142.267 172.224 190.007  0.00  0.00    +0.037 HD
BRANCH  92  94
ATOM     94  C   UNL     1     143.745 173.659 189.508  0.00  0.00    -0.056 C 
ATOM     95  H   UNL     1     144.651 174.132 189.890  0.00  0.00    +0.023 HD
ATOM     96  H   UNL     1     144.019 173.078 188.622  0.00  0.00    +0.023 HD
ATOM     97  H   UNL     1     143.084 174.454 189.156  0.00  0.00    +0.023 HD
ENDBRANCH  92  94
BRANCH  92  98
ATOM     98  C   UNL     1     142.299 173.595 191.663  0.00  0.00    +0.115 C 
ATOM     99  H   UNL     1     141.844 174.475 191.198  0.00  0.00    +0.074 HD
BRANCH  98 100
ATOM    100  C   UNL     1     141.194 172.857 192.480  0.00  0.00    +0.013 C 
ATOM    101  H   UNL     1     141.609 171.883 192.779  0.00  0.00    +0.038 HD
BRANCH 100 102
ATOM    102  C   UNL     1     139.956 172.492 191.654  0.00  0.00    -0.056 C 
ATOM    103  H   UNL     1     140.041 171.506 191.187  0.00  0.00    +0.024 HD
ATOM    104  H   UNL     1     139.058 172.494 192.278  0.00  0.00    +0.024 HD
ATOM    105  H   UNL     1     139.800 173.221 190.850  0.00  0.00    +0.024 HD
ENDBRANCH 100 102
BRANCH 100 106
ATOM    106  C   UNL     1     140.819 173.578 193.759  0.00  0.00    -0.064 C 
ATOM    107  C   UNL     1     139.891 174.546 193.776  0.00  0.00    -0.005 C 
ATOM    108  H   UNL     1     141.341 173.272 194.658  0.00  0.00    +0.059 HD
ATOM    109  H   UNL     1     139.400 174.811 192.835  0.00  0.00    +0.078 HD
BRANCH 107 110
ATOM    110  N   UNL     1     139.445 175.274 194.868  0.00  0.00    -0.284 N 
ATOM    111  C   UNL     1     140.201 176.194 195.581  0.00  0.00    +0.206 C 
ATOM    112  O   UNL     1     139.825 176.846 196.553  0.00  0.00    -0.279 OA
ATOM    113  H   UNL     1     141.229 176.307 195.212  0.00  0.00    +0.126 HD
BRANCH 110 114
ATOM    114  C   UNL     1     138.076 175.027 195.315  0.00  0.00    +0.007 C 
ATOM    115  H   UNL     1     137.651 175.893 195.828  0.00  0.00    +0.043 HD
ATOM    116  H   UNL     1     137.448 174.791 194.452  0.00  0.00    +0.043 HD
ATOM    117  H   UNL     1     138.083 174.178 196.005  0.00  0.00    +0.043 HD
ENDBRANCH 110 114
ENDBRANCH 107 110
ENDBRANCH 100 106
ENDBRANCH  98 100
BRANCH  98 118
ATOM    118  O   UNL     1     143.307 174.046 192.610  0.00  0.00    -0.461 OA
BRANCH 118 119
ATOM    119  C   UNL     1     143.286 175.363 192.954  0.00  0.00    +0.304 C 
ATOM    120  O   UNL     1     143.581 175.816 194.049  0.00  0.00    -0.251 OA
BRANCH 119 121
ATOM    121  C   UNL     1     142.848 176.189 191.783  0.00  0.00    +0.033 C 
ATOM    122  H   UNL     1     143.651 176.868 191.489  0.00  0.00    +0.034 HD
ATOM    123  H   UNL     1     141.977 176.786 192.068  0.00  0.00    +0.034 HD
ATOM    124  H   UNL     1     142.568 175.539 190.951  0.00  0.00    +0.034 HD
ENDBRANCH 119 121
ENDBRANCH 118 119
ENDBRANCH  98 118
ENDBRANCH  92  98
ENDBRANCH  90  92
BRANCH  90 125
ATOM    125  O   UNL     1     145.339 172.060 190.665  0.00  0.00    -0.459 OA
BRANCH 125 126
ATOM    126  C   UNL     1     146.278 172.348 191.619  0.00  0.00    +0.339 C 
ATOM    127  O   UNL     1     146.137 173.167 192.519  0.00  0.00    -0.248 OA
BRANCH 126 128
ATOM    128  C   UNL     1     147.509 171.444 191.406  0.00  0.00    +0.178 C 
ATOM    129  H   UNL     1     147.439 171.027 190.391  0.00  0.00    +0.074 HD
BRANCH 128 130
ATOM    130  C   UNL     1     148.780 172.308 191.486  0.00  0.00    +0.084 C 
ATOM    131  H   UNL     1     148.529 173.374 191.497  0.00  0.00    +0.059 HD
ATOM    132  H   UNL     1     149.406 172.107 190.609  0.00  0.00    +0.059 HD
BRANCH 130 133
ATOM    133  O   UNL     1     149.528 172.005 192.671  0.00  0.00    -0.380 OA
BRANCH 133 134
ATOM    134  C   UNL     1     149.424 173.036 193.642  0.00  0.00    +0.037 C 
ATOM    135  H   UNL     1     149.735 172.666 194.624  0.00  0.00    +0.052 HD
ATOM    136  H   UNL     1     150.030 173.900 193.354  0.00  0.00    +0.052 HD
ATOM    137  H   UNL     1     148.376 173.345 193.702  0.00  0.00    +0.052 HD
ENDBRANCH 133 134
ENDBRANCH 130 133
ENDBRANCH 128 130
BRANCH 128 138
ATOM    138  O   UNL     1     147.684 170.351 192.314  0.00  0.00    -0.366 OA
BRANCH 138 139
ATOM    139  C   UNL     1     148.051 169.139 191.674  0.00  0.00    +0.038 C 
ATOM    140  H   UNL     1     148.478 168.430 192.392  0.00  0.00    +0.052 HD
ATOM    141  H   UNL     1     148.758 169.326 190.861  0.00  0.00    +0.052 HD
ATOM    142  H   UNL     1     147.149 168.694 191.243  0.00  0.00    +0.052 HD
ENDBRANCH 138 139
ENDBRANCH 128 138
ENDBRANCH 126 128
ENDBRANCH 125 126
ENDBRANCH  90 125
ENDBRANCH  87  90
ENDBRANCH  84  87
ENDBRANCH  78  84
ENDBRANCH  76  78
BRANCH  76 143
ATOM    143  O   UNL     1     145.768 167.861 188.312  0.00  0.00    -0.379 OA
BRANCH 143 144
ATOM    144  C   UNL     1     147.184 167.895 188.427  0.00  0.00    +0.037 C 
ATOM    145  H   UNL     1     147.575 166.918 188.128  0.00  0.00    +0.052 HD
ATOM    146  H   UNL     1     147.610 168.656 187.767  0.00  0.00    +0.052 HD
ATOM    147  H   UNL     1     147.478 168.082 189.466  0.00  0.00    +0.052 HD
ENDBRANCH 143 144
ENDBRANCH  76 143
ENDBRANCH   1  76
TORSDOF 35
ENDMDL
MODEL 10
REMARK VINA RESULT:      -5.4      1.763      4.897
REMARK  Name = Mycalolide B_conf1
REMARK  35 active torsions:
REMARK  status: ('A' for Active; 'I' for Inactive)
REMARK    1  A    between atoms: C_1  and  C_2
REMARK    2  A    between atoms: C_3  and  O_72
REMARK    3  A    between atoms: C_22  and  O_70
REMARK    4  A    between atoms: C_23  and  C_69
REMARK    5  A    between atoms: C_29  and  O_68
REMARK    6  A    between atoms: C_34  and  C_35
REMARK    7  A    between atoms: C_35  and  C_36
REMARK    8  A    between atoms: C_36  and  C_37
REMARK    9  A    between atoms: C_36  and  O_66
REMARK   10  A    between atoms: C_37  and  C_38
REMARK   11  A    between atoms: C_37  and  C_39
REMARK   12  A    between atoms: C_39  and  C_40
REMARK   13  A    between atoms: C_40  and  C_41
REMARK   14  A    between atoms: C_41  and  C_42
REMARK   15  A    between atoms: C_41  and  O_57
REMARK   16  A    between atoms: C_42  and  C_43
REMARK   17  A    between atoms: C_42  and  C_44
REMARK   18  A    between atoms: C_44  and  C_45
REMARK   19  A    between atoms: C_44  and  O_53
REMARK   20  A    between atoms: C_45  and  C_46
REMARK   21  A    between atoms: C_45  and  C_47
REMARK   22  A    between atoms: C_48  and  N_49
REMARK   23  A    between atoms: N_49  and  C_50
REMARK   24  A    between atoms: O_53  and  C_54
REMARK   25  A    between atoms: C_54  and  C_56
REMARK   26  A    between atoms: O_57  and  C_58
REMARK   27  A    between atoms: C_58  and  C_60
REMARK   28  A    between atoms: C_60  and  C_61
REMARK   29  A    between atoms: C_60  and  O_64
REMARK   30  A    between atoms: C_61  and  O_62
REMARK   31  A    between atoms: O_62  and  C_63
REMARK   32  A    between atoms: O_64  and  C_65
REMARK   33  A    between atoms: O_66  and  C_67
REMARK   34  A    between atoms: O_70  and  C_71
REMARK   35  A    between atoms: O_72  and  C_73
REMARK                            x       y       z     vdW  Elec       q    Type
REMARK                         _______ _______ _______ _____ _____    ______ ____
ROOT
ATOM      1  C   UNL     1     150.920 166.795 190.703  0.00  0.00    +0.011 C 
ATOM      2  H   UNL     1     151.996 166.994 190.776  0.00  0.00    +0.033 HD
ATOM      3  H   UNL     1     150.826 165.709 190.807  0.00  0.00    +0.033 HD
ENDROOT
BRANCH   1  36
ATOM      4  C   UNL     1     150.794 167.221 193.262  0.00  0.00    +0.020 C 
ATOM      5  C   UNL     1     150.147 166.066 194.085  0.00  0.00    +0.068 C 
ATOM      6  C   UNL     1     150.077 164.661 193.424  0.00  0.00    -0.008 C 
ATOM      7  C   UNL     1     148.999 164.492 192.390  0.00  0.00    -0.077 C 
ATOM      8  C   UNL     1     148.971 163.549 191.433  0.00  0.00    -0.003 C 
ATOM      9  C   UNL     1     147.899 163.528 190.495  0.00  0.00    +0.220 A 
ATOM     10  N   UNL     1     147.064 164.529 190.259  0.00  0.00    -0.205 NA
ATOM     11  C   UNL     1     146.197 164.074 189.301  0.00  0.00    +0.164 A 
ATOM     12  C   UNL     1     146.538 162.797 188.949  0.00  0.00    +0.125 A 
ATOM     13  O   UNL     1     147.630 162.439 189.681  0.00  0.00    -0.443 OA
ATOM     14  C   UNL     1     145.013 164.910 188.730  0.00  0.00    +0.250 A 
ATOM     15  N   UNL     1     144.779 166.153 189.106  0.00  0.00    -0.203 NA
ATOM     16  C   UNL     1     143.664 166.524 188.400  0.00  0.00    +0.164 A 
ATOM     17  C   UNL     1     143.250 165.484 187.609  0.00  0.00    +0.125 A 
ATOM     18  O   UNL     1     144.109 164.442 187.802  0.00  0.00    -0.442 OA
ATOM     19  C   UNL     1     142.976 167.921 188.493  0.00  0.00    +0.249 A 
ATOM     20  N   UNL     1     143.429 168.900 189.261  0.00  0.00    -0.210 NA
ATOM     21  C   UNL     1     142.573 169.955 189.035  0.00  0.00    +0.109 A 
ATOM     22  C   UNL     1     141.610 169.562 188.133  0.00  0.00    +0.118 A 
ATOM     23  O   UNL     1     141.850 168.269 187.781  0.00  0.00    -0.442 OA
ATOM     24  C   UNL     1     142.796 171.293 189.675  0.00  0.00    +0.113 C 
ATOM     25  C   UNL     1     144.242 171.781 189.438  0.00  0.00    +0.051 C 
ATOM     26  C   UNL     1     144.402 173.169 190.044  0.00  0.00    +0.161 C 
ATOM     27  O   UNL     1     143.571 174.059 189.866  0.00  0.00    -0.292 OA
ATOM     28  C   UNL     1     145.626 173.503 190.832  0.00  0.00    -0.023 C 
ATOM     29  C   UNL     1     146.809 172.878 190.710  0.00  0.00    -0.078 C 
ATOM     30  C   UNL     1     148.036 173.268 191.490  0.00  0.00    -0.008 C 
ATOM     31  C   UNL     1     148.620 172.117 192.332  0.00  0.00    +0.069 C 
ATOM     32  C   UNL     1     149.371 171.087 191.480  0.00  0.00    +0.071 C 
ATOM     33  C   UNL     1     149.241 169.695 192.051  0.00  0.00    +0.310 C 
ATOM     34  O   UNL     1     148.320 169.308 192.754  0.00  0.00    -0.251 OA
ATOM     35  O   UNL     1     150.260 168.915 191.590  0.00  0.00    -0.461 OA
ATOM     36  C   UNL     1     150.170 167.489 191.858  0.00  0.00    +0.110 C 
ATOM     37  H   UNL     1     150.637 168.138 193.843  0.00  0.00    +0.036 HD
ATOM     38  H   UNL     1     150.751 165.934 194.993  0.00  0.00    +0.060 HD
ATOM     39  H   UNL     1     151.055 164.379 193.023  0.00  0.00    +0.033 HD
ATOM     40  H   UNL     1     149.840 163.947 194.225  0.00  0.00    +0.033 HD
ATOM     41  H   UNL     1     148.159 165.188 192.463  0.00  0.00    +0.057 HD
ATOM     42  H   UNL     1     149.744 162.795 191.349  0.00  0.00    +0.067 HD
ATOM     43  H   UNL     1     146.155 162.063 188.255  0.00  0.00    +0.105 HD
ATOM     44  H   UNL     1     142.443 165.329 186.913  0.00  0.00    +0.105 HD
ATOM     45  H   UNL     1     140.763 170.037 187.660  0.00  0.00    +0.105 HD
ATOM     46  H   UNL     1     142.091 172.023 189.256  0.00  0.00    +0.067 HD
ATOM     47  H   UNL     1     144.929 171.091 189.941  0.00  0.00    +0.041 HD
ATOM     48  H   UNL     1     145.501 174.354 191.496  0.00  0.00    +0.065 HD
ATOM     49  H   UNL     1     146.932 172.059 190.005  0.00  0.00    +0.057 HD
ATOM     50  H   UNL     1     148.800 173.638 190.795  0.00  0.00    +0.033 HD
ATOM     51  H   UNL     1     147.809 174.115 192.151  0.00  0.00    +0.033 HD
ATOM     52  H   UNL     1     147.818 171.660 192.923  0.00  0.00    +0.060 HD
ATOM     53  H   UNL     1     150.433 171.347 191.425  0.00  0.00    +0.040 HD
ATOM     54  H   UNL     1     148.971 171.030 190.463  0.00  0.00    +0.040 HD
ATOM     55  H   UNL     1     149.116 167.201 191.834  0.00  0.00    +0.074 HD
BRANCH   4  56
ATOM     56  C   UNL     1     152.323 167.064 193.232  0.00  0.00    -0.057 C 
ATOM     57  H   UNL     1     152.814 167.587 194.058  0.00  0.00    +0.023 HD
ATOM     58  H   UNL     1     152.609 166.008 193.272  0.00  0.00    +0.023 HD
ATOM     59  H   UNL     1     152.732 167.474 192.300  0.00  0.00    +0.023 HD
ENDBRANCH   4  56
BRANCH  25  60
ATOM     60  C   UNL     1     144.603 171.882 187.953  0.00  0.00    -0.053 C 
ATOM     61  H   UNL     1     145.676 171.733 187.791  0.00  0.00    +0.024 HD
ATOM     62  H   UNL     1     144.345 172.867 187.555  0.00  0.00    +0.024 HD
ATOM     63  H   UNL     1     144.076 171.126 187.363  0.00  0.00    +0.024 HD
ENDBRANCH  25  60
BRANCH  31  64
ATOM     64  O   UNL     1     149.560 172.675 193.261  0.00  0.00    -0.391 OA
ATOM     65  H   UNL     1     149.467 173.646 193.226  0.00  0.00    +0.210 HD
ENDBRANCH  31  64
BRANCH  24  66
ATOM     66  O   UNL     1     142.602 171.226 191.102  0.00  0.00    -0.373 OA
BRANCH  66  67
ATOM     67  C   UNL     1     141.380 171.813 191.526  0.00  0.00    +0.037 C 
ATOM     68  H   UNL     1     140.535 171.418 190.958  0.00  0.00    +0.052 HD
ATOM     69  H   UNL     1     141.428 172.903 191.431  0.00  0.00    +0.052 HD
ATOM     70  H   UNL     1     141.232 171.568 192.581  0.00  0.00    +0.052 HD
ENDBRANCH  66  67
ENDBRANCH  24  66
BRANCH   5  71
ATOM     71  O   UNL     1     148.813 166.394 194.509  0.00  0.00    -0.379 OA
BRANCH  71  72
ATOM     72  C   UNL     1     148.540 166.130 195.876  0.00  0.00    +0.037 C 
ATOM     73  H   UNL     1     149.409 166.443 196.465  0.00  0.00    +0.052 HD
ATOM     74  H   UNL     1     147.670 166.701 196.218  0.00  0.00    +0.052 HD
ATOM     75  H   UNL     1     148.382 165.065 196.055  0.00  0.00    +0.052 HD
ENDBRANCH  71  72
ENDBRANCH   5  71
ENDBRANCH   1  36
BRANCH   1  76
ATOM     76  C   UNL     1     150.460 167.156 189.275  0.00  0.00    +0.064 C 
ATOM     77  H   UNL     1     150.465 168.249 189.171  0.00  0.00    +0.060 HD
BRANCH  76  78
ATOM     78  C   UNL     1     151.290 166.574 188.093  0.00  0.00    -0.017 C 
ATOM     79  H   UNL     1     151.373 165.490 188.222  0.00  0.00    +0.032 HD
BRANCH  78  80
ATOM     80  C   UNL     1     150.649 166.867 186.727  0.00  0.00    -0.060 C 
ATOM     81  H   UNL     1     149.557 166.852 186.795  0.00  0.00    +0.023 HD
ATOM     82  H   UNL     1     150.951 166.128 185.979  0.00  0.00    +0.023 HD
ATOM     83  H   UNL     1     150.920 167.855 186.347  0.00  0.00    +0.023 HD
ENDBRANCH  78  80
BRANCH  78  84
ATOM     84  C   UNL     1     152.722 167.168 188.157  0.00  0.00    -0.045 C 
ATOM     85  H   UNL     1     152.627 168.254 188.139  0.00  0.00    +0.027 HD
ATOM     86  H   UNL     1     153.179 166.902 189.118  0.00  0.00    +0.027 HD
BRANCH  84  87
ATOM     87  C   UNL     1     153.662 166.741 187.030  0.00  0.00    -0.015 C 
ATOM     88  H   UNL     1     154.232 167.595 186.648  0.00  0.00    +0.030 HD
ATOM     89  H   UNL     1     153.061 166.401 186.175  0.00  0.00    +0.030 HD
BRANCH  87  90
ATOM     90  C   UNL     1     154.640 165.612 187.416  0.00  0.00    +0.109 C 
ATOM     91  H   UNL     1     154.276 164.686 186.954  0.00  0.00    +0.074 HD
BRANCH  90  92
ATOM     92  C   UNL     1     154.888 165.350 188.942  0.00  0.00    +0.031 C 
ATOM     93  H   UNL     1     154.022 165.797 189.451  0.00  0.00    +0.037 HD
BRANCH  92  94
ATOM     94  C   UNL     1     156.117 166.121 189.437  0.00  0.00    -0.056 C 
ATOM     95  H   UNL     1     155.984 166.546 190.433  0.00  0.00    +0.023 HD
ATOM     96  H   UNL     1     157.005 165.482 189.462  0.00  0.00    +0.023 HD
ATOM     97  H   UNL     1     156.356 166.945 188.759  0.00  0.00    +0.023 HD
ENDBRANCH  92  94
BRANCH  92  98
ATOM     98  C   UNL     1     154.892 163.835 189.319  0.00  0.00    +0.115 C 
ATOM     99  H   UNL     1     155.278 163.739 190.339  0.00  0.00    +0.074 HD
BRANCH  98 100
ATOM    100  C   UNL     1     153.537 163.068 189.242  0.00  0.00    +0.013 C 
ATOM    101  H   UNL     1     153.156 163.187 188.216  0.00  0.00    +0.038 HD
BRANCH 100 102
ATOM    102  C   UNL     1     152.434 163.673 190.118  0.00  0.00    -0.056 C 
ATOM    103  H   UNL     1     152.832 164.348 190.883  0.00  0.00    +0.024 HD
ATOM    104  H   UNL     1     151.720 164.235 189.509  0.00  0.00    +0.024 HD
ATOM    105  H   UNL     1     151.877 162.884 190.636  0.00  0.00    +0.024 HD
ENDBRANCH 100 102
BRANCH 100 106
ATOM    106  C   UNL     1     153.682 161.578 189.478  0.00  0.00    -0.064 C 
ATOM    107  C   UNL     1     152.663 160.834 189.933  0.00  0.00    -0.005 C 
ATOM    108  H   UNL     1     154.653 161.146 189.263  0.00  0.00    +0.059 HD
ATOM    109  H   UNL     1     151.709 161.328 190.133  0.00  0.00    +0.078 HD
BRANCH 107 110
ATOM    110  N   UNL     1     152.654 159.470 190.181  0.00  0.00    -0.284 N 
ATOM    111  C   UNL     1     153.479 158.539 189.567  0.00  0.00    +0.206 C 
ATOM    112  O   UNL     1     153.483 157.326 189.770  0.00  0.00    -0.279 OA
ATOM    113  H   UNL     1     154.168 158.971 188.829  0.00  0.00    +0.126 HD
BRANCH 110 114
ATOM    114  C   UNL     1     151.674 158.979 191.147  0.00  0.00    +0.007 C 
ATOM    115  H   UNL     1     151.901 159.311 192.163  0.00  0.00    +0.043 HD
ATOM    116  H   UNL     1     150.680 159.344 190.876  0.00  0.00    +0.043 HD
ATOM    117  H   UNL     1     151.681 157.886 191.124  0.00  0.00    +0.043 HD
ENDBRANCH 110 114
ENDBRANCH 107 110
ENDBRANCH 100 106
ENDBRANCH  98 100
BRANCH  98 118
ATOM    118  O   UNL     1     155.817 163.169 188.414  0.00  0.00    -0.461 OA
BRANCH 118 119
ATOM    119  C   UNL     1     157.039 162.837 188.915  0.00  0.00    +0.304 C 
ATOM    120  O   UNL     1     157.246 162.346 190.013  0.00  0.00    -0.251 OA
BRANCH 119 121
ATOM    121  C   UNL     1     158.105 163.158 187.912  0.00  0.00    +0.033 C 
ATOM    122  H   UNL     1     157.837 162.737 186.941  0.00  0.00    +0.034 HD
ATOM    123  H   UNL     1     159.050 162.711 188.235  0.00  0.00    +0.034 HD
ATOM    124  H   UNL     1     158.237 164.240 187.840  0.00  0.00    +0.034 HD
ENDBRANCH 119 121
ENDBRANCH 118 119
ENDBRANCH  98 118
ENDBRANCH  92  98
ENDBRANCH  90  92
BRANCH  90 125
ATOM    125  O   UNL     1     155.928 165.974 186.854  0.00  0.00    -0.459 OA
BRANCH 125 126
ATOM    126  C   UNL     1     156.239 165.484 185.613  0.00  0.00    +0.339 C 
ATOM    127  O   UNL     1     156.047 164.331 185.245  0.00  0.00    -0.248 OA
BRANCH 126 128
ATOM    128  C   UNL     1     156.815 166.623 184.749  0.00  0.00    +0.178 C 
ATOM    129  H   UNL     1     157.476 166.165 183.999  0.00  0.00    +0.074 HD
BRANCH 128 130
ATOM    130  C   UNL     1     155.659 167.320 184.010  0.00  0.00    +0.084 C 
ATOM    131  H   UNL     1     155.116 167.996 184.681  0.00  0.00    +0.059 HD
ATOM    132  H   UNL     1     154.959 166.562 183.642  0.00  0.00    +0.059 HD
BRANCH 130 133
ATOM    133  O   UNL     1     156.150 168.080 182.899  0.00  0.00    -0.380 OA
BRANCH 133 134
ATOM    134  C   UNL     1     155.743 169.439 182.964  0.00  0.00    +0.037 C 
ATOM    135  H   UNL     1     155.230 169.728 182.041  0.00  0.00    +0.052 HD
ATOM    136  H   UNL     1     155.091 169.606 183.827  0.00  0.00    +0.052 HD
ATOM    137  H   UNL     1     156.638 170.060 183.073  0.00  0.00    +0.052 HD
ENDBRANCH 133 134
ENDBRANCH 130 133
ENDBRANCH 128 130
BRANCH 128 138
ATOM    138  O   UNL     1     157.561 167.642 185.422  0.00  0.00    -0.366 OA
BRANCH 138 139
ATOM    139  C   UNL     1     158.939 167.651 185.083  0.00  0.00    +0.038 C 
ATOM    140  H   UNL     1     159.140 168.363 184.275  0.00  0.00    +0.052 HD
ATOM    141  H   UNL     1     159.277 166.651 184.799  0.00  0.00    +0.052 HD
ATOM    142  H   UNL     1     159.505 167.962 185.966  0.00  0.00    +0.052 HD
ENDBRANCH 138 139
ENDBRANCH 128 138
ENDBRANCH 126 128
ENDBRANCH 125 126
ENDBRANCH  90 125
ENDBRANCH  87  90
ENDBRANCH  84  87
ENDBRANCH  78  84
ENDBRANCH  76  78
BRANCH  76 143
ATOM    143  O   UNL     1     149.111 166.663 189.124  0.00  0.00    -0.379 OA
BRANCH 143 144
ATOM    144  C   UNL     1     148.136 167.691 189.010  0.00  0.00    +0.037 C 
ATOM    145  H   UNL     1     147.927 167.847 187.948  0.00  0.00    +0.052 HD
ATOM    146  H   UNL     1     147.207 167.402 189.508  0.00  0.00    +0.052 HD
ATOM    147  H   UNL     1     148.520 168.628 189.428  0.00  0.00    +0.052 HD
ENDBRANCH 143 144
ENDBRANCH  76 143
ENDBRANCH   1  76
TORSDOF 35
ENDMDL
