MODEL 1
REMARK VINA RESULT:      -5.7      0.000      0.000
REMARK  Name = Mycalolide B_conf3
REMARK  35 active torsions:
REMARK  status: ('A' for Active; 'I' for Inactive)
REMARK    1  A    between atoms: C_1  and  C_2
REMARK    2  A    between atoms: C_3  and  O_72
REMARK    3  A    between atoms: C_22  and  O_70
REMARK    4  A    between atoms: C_23  and  C_69
REMARK    5  A    between atoms: C_29  and  O_68
REMARK    6  A    between atoms: C_34  and  C_35
REMARK    7  A    between atoms: C_35  and  C_36
REMARK    8  A    between atoms: C_36  and  C_37
REMARK    9  A    between atoms: C_36  and  O_66
REMARK   10  A    between atoms: C_37  and  C_38
REMARK   11  A    between atoms: C_37  and  C_39
REMARK   12  A    between atoms: C_39  and  C_40
REMARK   13  A    between atoms: C_40  and  C_41
REMARK   14  A    between atoms: C_41  and  C_42
REMARK   15  A    between atoms: C_41  and  O_57
REMARK   16  A    between atoms: C_42  and  C_43
REMARK   17  A    between atoms: C_42  and  C_44
REMARK   18  A    between atoms: C_44  and  C_45
REMARK   19  A    between atoms: C_44  and  O_53
REMARK   20  A    between atoms: C_45  and  C_46
REMARK   21  A    between atoms: C_45  and  C_47
REMARK   22  A    between atoms: C_48  and  N_49
REMARK   23  A    between atoms: N_49  and  C_50
REMARK   24  A    between atoms: O_53  and  C_54
REMARK   25  A    between atoms: C_54  and  C_56
REMARK   26  A    between atoms: O_57  and  C_58
REMARK   27  A    between atoms: C_58  and  C_60
REMARK   28  A    between atoms: C_60  and  C_61
REMARK   29  A    between atoms: C_60  and  O_64
REMARK   30  A    between atoms: C_61  and  O_62
REMARK   31  A    between atoms: O_62  and  C_63
REMARK   32  A    between atoms: O_64  and  C_65
REMARK   33  A    between atoms: O_66  and  C_67
REMARK   34  A    between atoms: O_70  and  C_71
REMARK   35  A    between atoms: O_72  and  C_73
REMARK                            x       y       z     vdW  Elec       q    Type
REMARK                         _______ _______ _______ _____ _____    ______ ____
ROOT
ATOM      1  C   UNL     1     146.172 165.715 188.646  0.00  0.00    +0.011 C 
ATOM      2  H   UNL     1     146.537 164.826 188.121  0.00  0.00    +0.033 HD
ATOM      3  H   UNL     1     145.281 165.429 189.216  0.00  0.00    +0.033 HD
ENDROOT
BRANCH   1  36
ATOM      4  C   UNL     1     146.408 166.579 186.210  0.00  0.00    +0.020 C 
ATOM      5  C   UNL     1     147.947 166.798 186.153  0.00  0.00    +0.068 C 
ATOM      6  C   UNL     1     148.445 168.145 186.739  0.00  0.00    -0.008 C 
ATOM      7  C   UNL     1     147.619 169.363 186.429  0.00  0.00    -0.077 C 
ATOM      8  C   UNL     1     147.382 169.861 185.206  0.00  0.00    -0.003 C 
ATOM      9  C   UNL     1     146.563 171.017 185.064  0.00  0.00    +0.220 A 
ATOM     10  N   UNL     1     145.636 171.426 185.923  0.00  0.00    -0.205 NA
ATOM     11  C   UNL     1     145.217 172.645 185.455  0.00  0.00    +0.164 A 
ATOM     12  C   UNL     1     145.857 172.935 184.282  0.00  0.00    +0.125 A 
ATOM     13  O   UNL     1     146.685 171.894 183.992  0.00  0.00    -0.443 OA
ATOM     14  C   UNL     1     144.198 173.555 186.195  0.00  0.00    +0.250 A 
ATOM     15  N   UNL     1     143.540 173.163 187.275  0.00  0.00    -0.203 NA
ATOM     16  C   UNL     1     142.842 174.278 187.668  0.00  0.00    +0.164 A 
ATOM     17  C   UNL     1     143.062 175.299 186.785  0.00  0.00    +0.125 A 
ATOM     18  O   UNL     1     143.912 174.847 185.818  0.00  0.00    -0.442 OA
ATOM     19  C   UNL     1     141.923 174.354 188.923  0.00  0.00    +0.249 A 
ATOM     20  N   UNL     1     141.636 173.306 189.677  0.00  0.00    -0.210 NA
ATOM     21  C   UNL     1     140.741 173.779 190.613  0.00  0.00    +0.109 A 
ATOM     22  C   UNL     1     140.586 175.130 190.434  0.00  0.00    +0.118 A 
ATOM     23  O   UNL     1     141.293 175.507 189.332  0.00  0.00    -0.442 OA
ATOM     24  C   UNL     1     140.102 172.865 191.619  0.00  0.00    +0.113 C 
ATOM     25  C   UNL     1     138.767 172.248 191.151  0.00  0.00    +0.051 C 
ATOM     26  C   UNL     1     138.990 170.952 190.392  0.00  0.00    +0.161 C 
ATOM     27  O   UNL     1     138.702 169.872 190.913  0.00  0.00    -0.292 OA
ATOM     28  C   UNL     1     139.592 170.997 189.029  0.00  0.00    -0.023 C 
ATOM     29  C   UNL     1     139.960 169.865 188.408  0.00  0.00    -0.078 C 
ATOM     30  C   UNL     1     140.699 169.841 187.099  0.00  0.00    -0.008 C 
ATOM     31  C   UNL     1     142.152 169.367 187.258  0.00  0.00    +0.069 C 
ATOM     32  C   UNL     1     142.252 167.877 187.580  0.00  0.00    +0.071 C 
ATOM     33  C   UNL     1     143.604 167.623 188.181  0.00  0.00    +0.310 C 
ATOM     34  O   UNL     1     143.973 168.143 189.225  0.00  0.00    -0.251 OA
ATOM     35  O   UNL     1     144.344 166.794 187.404  0.00  0.00    -0.461 OA
ATOM     36  C   UNL     1     145.781 166.794 187.615  0.00  0.00    +0.110 C 
ATOM     37  H   UNL     1     145.939 167.300 185.520  0.00  0.00    +0.036 HD
ATOM     38  H   UNL     1     148.435 165.985 186.706  0.00  0.00    +0.060 HD
ATOM     39  H   UNL     1     148.486 168.046 187.828  0.00  0.00    +0.033 HD
ATOM     40  H   UNL     1     149.475 168.345 186.423  0.00  0.00    +0.033 HD
ATOM     41  H   UNL     1     147.177 169.857 187.298  0.00  0.00    +0.057 HD
ATOM     42  H   UNL     1     147.815 169.422 184.317  0.00  0.00    +0.067 HD
ATOM     43  H   UNL     1     145.841 173.750 183.576  0.00  0.00    +0.105 HD
ATOM     44  H   UNL     1     142.730 176.327 186.700  0.00  0.00    +0.105 HD
ATOM     45  H   UNL     1     140.004 175.897 190.930  0.00  0.00    +0.105 HD
ATOM     46  H   UNL     1     140.826 172.062 191.812  0.00  0.00    +0.067 HD
ATOM     47  H   UNL     1     138.215 171.948 192.054  0.00  0.00    +0.041 HD
ATOM     48  H   UNL     1     139.787 171.965 188.588  0.00  0.00    +0.065 HD
ATOM     49  H   UNL     1     139.753 168.905 188.879  0.00  0.00    +0.057 HD
ATOM     50  H   UNL     1     140.166 169.198 186.388  0.00  0.00    +0.033 HD
ATOM     51  H   UNL     1     140.701 170.841 186.644  0.00  0.00    +0.033 HD
ATOM     52  H   UNL     1     142.647 169.974 188.026  0.00  0.00    +0.060 HD
ATOM     53  H   UNL     1     141.521 167.546 188.327  0.00  0.00    +0.040 HD
ATOM     54  H   UNL     1     142.115 167.259 186.683  0.00  0.00    +0.040 HD
ATOM     55  H   UNL     1     146.066 167.792 187.953  0.00  0.00    +0.074 HD
BRANCH   4  56
ATOM     56  C   UNL     1     146.030 165.202 185.632  0.00  0.00    -0.057 C 
ATOM     57  H   UNL     1     146.923 164.625 185.374  0.00  0.00    +0.023 HD
ATOM     58  H   UNL     1     145.422 165.304 184.731  0.00  0.00    +0.023 HD
ATOM     59  H   UNL     1     145.464 164.608 186.356  0.00  0.00    +0.023 HD
ENDBRANCH   4  56
BRANCH  25  60
ATOM     60  C   UNL     1     137.818 173.195 190.417  0.00  0.00    -0.053 C 
ATOM     61  H   UNL     1     138.295 173.704 189.573  0.00  0.00    +0.024 HD
ATOM     62  H   UNL     1     137.421 173.953 191.102  0.00  0.00    +0.024 HD
ATOM     63  H   UNL     1     136.968 172.631 190.011  0.00  0.00    +0.024 HD
ENDBRANCH  25  60
BRANCH  31  64
ATOM     64  O   UNL     1     142.839 169.598 186.024  0.00  0.00    -0.391 OA
ATOM     65  H   UNL     1     143.090 170.546 186.013  0.00  0.00    +0.210 HD
ENDBRANCH  31  64
BRANCH  24  66
ATOM     66  O   UNL     1     139.872 173.586 192.846  0.00  0.00    -0.373 OA
BRANCH  66  67
ATOM     67  C   UNL     1     140.873 173.315 193.822  0.00  0.00    +0.037 C 
ATOM     68  H   UNL     1     140.873 174.078 194.606  0.00  0.00    +0.052 HD
ATOM     69  H   UNL     1     140.716 172.325 194.264  0.00  0.00    +0.052 HD
ATOM     70  H   UNL     1     141.847 173.324 193.326  0.00  0.00    +0.052 HD
ENDBRANCH  66  67
ENDBRANCH  24  66
BRANCH   5  71
ATOM     71  O   UNL     1     148.357 166.708 184.771  0.00  0.00    -0.379 OA
BRANCH  71  72
ATOM     72  C   UNL     1     149.441 165.808 184.576  0.00  0.00    +0.037 C 
ATOM     73  H   UNL     1     149.090 164.784 184.418  0.00  0.00    +0.052 HD
ATOM     74  H   UNL     1     150.063 165.828 185.477  0.00  0.00    +0.052 HD
ATOM     75  H   UNL     1     150.052 166.130 183.727  0.00  0.00    +0.052 HD
ENDBRANCH  71  72
ENDBRANCH   5  71
ENDBRANCH   1  36
BRANCH   1  76
ATOM     76  C   UNL     1     147.286 166.150 189.612  0.00  0.00    +0.064 C 
ATOM     77  H   UNL     1     147.972 166.835 189.104  0.00  0.00    +0.060 HD
BRANCH  76  78
ATOM     78  C   UNL     1     146.748 166.833 190.900  0.00  0.00    -0.017 C 
ATOM     79  H   UNL     1     146.362 167.812 190.612  0.00  0.00    +0.032 HD
BRANCH  78  80
ATOM     80  C   UNL     1     145.546 166.014 191.429  0.00  0.00    -0.060 C 
ATOM     81  H   UNL     1     145.156 166.447 192.358  0.00  0.00    +0.023 HD
ATOM     82  H   UNL     1     144.719 166.007 190.714  0.00  0.00    +0.023 HD
ATOM     83  H   UNL     1     145.838 164.979 191.634  0.00  0.00    +0.023 HD
ENDBRANCH  78  80
BRANCH  78  84
ATOM     84  C   UNL     1     147.733 166.983 192.072  0.00  0.00    -0.045 C 
ATOM     85  H   UNL     1     147.244 166.607 192.984  0.00  0.00    +0.027 HD
ATOM     86  H   UNL     1     148.587 166.304 191.912  0.00  0.00    +0.027 HD
BRANCH  84  87
ATOM     87  C   UNL     1     148.281 168.369 192.452  0.00  0.00    -0.015 C 
ATOM     88  H   UNL     1     147.386 168.999 192.503  0.00  0.00    +0.030 HD
ATOM     89  H   UNL     1     148.672 168.349 193.476  0.00  0.00    +0.030 HD
BRANCH  87  90
ATOM     90  C   UNL     1     149.311 169.074 191.537  0.00  0.00    +0.109 C 
ATOM     91  H   UNL     1     149.190 168.652 190.532  0.00  0.00    +0.074 HD
BRANCH  90  92
ATOM     92  C   UNL     1     150.779 168.839 192.047  0.00  0.00    +0.031 C 
ATOM     93  H   UNL     1     150.730 168.710 193.135  0.00  0.00    +0.037 HD
BRANCH  92  94
ATOM     94  C   UNL     1     151.663 170.087 191.864  0.00  0.00    -0.056 C 
ATOM     95  H   UNL     1     151.631 170.731 192.744  0.00  0.00    +0.023 HD
ATOM     96  H   UNL     1     151.364 170.666 190.987  0.00  0.00    +0.023 HD
ATOM     97  H   UNL     1     152.716 169.803 191.736  0.00  0.00    +0.023 HD
ENDBRANCH  92  94
BRANCH  92  98
ATOM     98  C   UNL     1     151.541 167.629 191.414  0.00  0.00    +0.115 C 
ATOM     99  H   UNL     1     152.568 167.950 191.183  0.00  0.00    +0.074 HD
BRANCH  98 100
ATOM    100  C   UNL     1     151.720 166.384 192.334  0.00  0.00    +0.013 C 
ATOM    101  H   UNL     1     152.781 166.145 192.436  0.00  0.00    +0.038 HD
BRANCH 100 102
ATOM    102  C   UNL     1     150.998 165.149 191.775  0.00  0.00    -0.056 C 
ATOM    103  H   UNL     1     150.252 165.426 191.017  0.00  0.00    +0.024 HD
ATOM    104  H   UNL     1     151.705 164.450 191.305  0.00  0.00    +0.024 HD
ATOM    105  H   UNL     1     150.465 164.608 192.563  0.00  0.00    +0.024 HD
ENDBRANCH 100 102
BRANCH 100 106
ATOM    106  C   UNL     1     151.172 166.653 193.727  0.00  0.00    -0.064 C 
ATOM    107  C   UNL     1     150.275 165.861 194.332  0.00  0.00    -0.005 C 
ATOM    108  H   UNL     1     151.541 167.553 194.214  0.00  0.00    +0.059 HD
ATOM    109  H   UNL     1     149.909 164.990 193.790  0.00  0.00    +0.078 HD
BRANCH 107 110
ATOM    110  N   UNL     1     149.716 166.029 195.589  0.00  0.00    -0.284 N 
ATOM    111  C   UNL     1     148.358 165.916 195.891  0.00  0.00    +0.206 C 
ATOM    112  O   UNL     1     147.422 165.652 195.144  0.00  0.00    -0.279 OA
ATOM    113  H   UNL     1     148.156 166.105 196.958  0.00  0.00    +0.126 HD
BRANCH 110 114
ATOM    114  C   UNL     1     150.634 166.354 196.678  0.00  0.00    +0.007 C 
ATOM    115  H   UNL     1     151.048 165.423 197.084  0.00  0.00    +0.043 HD
ATOM    116  H   UNL     1     150.131 166.890 197.490  0.00  0.00    +0.043 HD
ATOM    117  H   UNL     1     151.444 166.980 196.293  0.00  0.00    +0.043 HD
ENDBRANCH 110 114
ENDBRANCH 107 110
ENDBRANCH 100 106
ENDBRANCH  98 100
BRANCH  98 118
ATOM    118  O   UNL     1     150.878 167.211 190.198  0.00  0.00    -0.461 OA
BRANCH 118 119
ATOM    119  C   UNL     1     151.644 167.190 189.069  0.00  0.00    +0.304 C 
ATOM    120  O   UNL     1     152.601 167.914 188.837  0.00  0.00    -0.251 OA
BRANCH 119 121
ATOM    121  C   UNL     1     151.128 166.163 188.107  0.00  0.00    +0.033 C 
ATOM    122  H   UNL     1     151.933 165.863 187.432  0.00  0.00    +0.034 HD
ATOM    123  H   UNL     1     150.282 166.570 187.546  0.00  0.00    +0.034 HD
ATOM    124  H   UNL     1     150.773 165.292 188.662  0.00  0.00    +0.034 HD
ENDBRANCH 119 121
ENDBRANCH 118 119
ENDBRANCH  98 118
ENDBRANCH  92  98
ENDBRANCH  90  92
BRANCH  90 125
ATOM    125  O   UNL     1     149.011 170.493 191.493  0.00  0.00    -0.459 OA
BRANCH 125 126
ATOM    126  C   UNL     1     147.820 170.846 190.902  0.00  0.00    +0.339 C 
ATOM    127  O   UNL     1     147.452 170.436 189.808  0.00  0.00    -0.248 OA
BRANCH 126 128
ATOM    128  C   UNL     1     147.029 171.877 191.724  0.00  0.00    +0.178 C 
ATOM    129  H   UNL     1     147.272 171.684 192.781  0.00  0.00    +0.074 HD
BRANCH 128 130
ATOM    130  C   UNL     1     147.510 173.285 191.367  0.00  0.00    +0.084 C 
ATOM    131  H   UNL     1     148.046 173.268 190.416  0.00  0.00    +0.059 HD
ATOM    132  H   UNL     1     146.643 173.941 191.226  0.00  0.00    +0.059 HD
BRANCH 130 133
ATOM    133  O   UNL     1     148.341 173.824 192.392  0.00  0.00    -0.380 OA
BRANCH 133 134
ATOM    134  C   UNL     1     147.831 173.536 193.687  0.00  0.00    +0.037 C 
ATOM    135  H   UNL     1     148.225 174.254 194.413  0.00  0.00    +0.052 HD
ATOM    136  H   UNL     1     146.742 173.632 193.658  0.00  0.00    +0.052 HD
ATOM    137  H   UNL     1     148.088 172.517 193.993  0.00  0.00    +0.052 HD
ENDBRANCH 133 134
ENDBRANCH 130 133
ENDBRANCH 128 130
BRANCH 128 138
ATOM    138  O   UNL     1     145.609 171.847 191.552  0.00  0.00    -0.366 OA
BRANCH 138 139
ATOM    139  C   UNL     1     145.107 173.057 191.004  0.00  0.00    +0.038 C 
ATOM    140  H   UNL     1     145.249 173.852 191.742  0.00  0.00    +0.052 HD
ATOM    141  H   UNL     1     144.035 172.968 190.798  0.00  0.00    +0.052 HD
ATOM    142  H   UNL     1     145.644 173.329 190.091  0.00  0.00    +0.052 HD
ENDBRANCH 138 139
ENDBRANCH 128 138
ENDBRANCH 126 128
ENDBRANCH 125 126
ENDBRANCH  90 125
ENDBRANCH  87  90
ENDBRANCH  84  87
ENDBRANCH  78  84
ENDBRANCH  76  78
BRANCH  76 143
ATOM    143  O   UNL     1     147.963 164.955 190.048  0.00  0.00    -0.379 OA
BRANCH 143 144
ATOM    144  C   UNL     1     148.217 164.023 189.005  0.00  0.00    +0.037 C 
ATOM    145  H   UNL     1     147.645 163.113 189.212  0.00  0.00    +0.052 HD
ATOM    146  H   UNL     1     149.279 163.758 188.940  0.00  0.00    +0.052 HD
ATOM    147  H   UNL     1     147.872 164.420 188.048  0.00  0.00    +0.052 HD
ENDBRANCH 143 144
ENDBRANCH  76 143
ENDBRANCH   1  76
TORSDOF 35
ENDMDL
MODEL 2
REMARK VINA RESULT:      -5.7      2.827      8.636
REMARK  Name = Mycalolide B_conf3
REMARK  35 active torsions:
REMARK  status: ('A' for Active; 'I' for Inactive)
REMARK    1  A    between atoms: C_1  and  C_2
REMARK    2  A    between atoms: C_3  and  O_72
REMARK    3  A    between atoms: C_22  and  O_70
REMARK    4  A    between atoms: C_23  and  C_69
REMARK    5  A    between atoms: C_29  and  O_68
REMARK    6  A    between atoms: C_34  and  C_35
REMARK    7  A    between atoms: C_35  and  C_36
REMARK    8  A    between atoms: C_36  and  C_37
REMARK    9  A    between atoms: C_36  and  O_66
REMARK   10  A    between atoms: C_37  and  C_38
REMARK   11  A    between atoms: C_37  and  C_39
REMARK   12  A    between atoms: C_39  and  C_40
REMARK   13  A    between atoms: C_40  and  C_41
REMARK   14  A    between atoms: C_41  and  C_42
REMARK   15  A    between atoms: C_41  and  O_57
REMARK   16  A    between atoms: C_42  and  C_43
REMARK   17  A    between atoms: C_42  and  C_44
REMARK   18  A    between atoms: C_44  and  C_45
REMARK   19  A    between atoms: C_44  and  O_53
REMARK   20  A    between atoms: C_45  and  C_46
REMARK   21  A    between atoms: C_45  and  C_47
REMARK   22  A    between atoms: C_48  and  N_49
REMARK   23  A    between atoms: N_49  and  C_50
REMARK   24  A    between atoms: O_53  and  C_54
REMARK   25  A    between atoms: C_54  and  C_56
REMARK   26  A    between atoms: O_57  and  C_58
REMARK   27  A    between atoms: C_58  and  C_60
REMARK   28  A    between atoms: C_60  and  C_61
REMARK   29  A    between atoms: C_60  and  O_64
REMARK   30  A    between atoms: C_61  and  O_62
REMARK   31  A    between atoms: O_62  and  C_63
REMARK   32  A    between atoms: O_64  and  C_65
REMARK   33  A    between atoms: O_66  and  C_67
REMARK   34  A    between atoms: O_70  and  C_71
REMARK   35  A    between atoms: O_72  and  C_73
REMARK                            x       y       z     vdW  Elec       q    Type
REMARK                         _______ _______ _______ _____ _____    ______ ____
ROOT
ATOM      1  C   UNL     1     146.904 171.989 189.771  0.00  0.00    +0.011 C 
ATOM      2  H   UNL     1     146.561 173.026 189.860  0.00  0.00    +0.033 HD
ATOM      3  H   UNL     1     147.889 171.999 189.291  0.00  0.00    +0.033 HD
ENDROOT
BRANCH   1  36
ATOM      4  C   UNL     1     144.918 172.096 188.102  0.00  0.00    +0.020 C 
ATOM      5  C   UNL     1     143.856 172.799 188.996  0.00  0.00    +0.068 C 
ATOM      6  C   UNL     1     143.075 171.863 189.955  0.00  0.00    -0.008 C 
ATOM      7  C   UNL     1     142.655 170.528 189.401  0.00  0.00    -0.077 C 
ATOM      8  C   UNL     1     141.827 170.332 188.363  0.00  0.00    -0.003 C 
ATOM      9  C   UNL     1     141.533 169.006 187.939  0.00  0.00    +0.220 A 
ATOM     10  N   UNL     1     142.297 167.936 188.136  0.00  0.00    -0.205 NA
ATOM     11  C   UNL     1     141.553 166.871 187.697  0.00  0.00    +0.164 A 
ATOM     12  C   UNL     1     140.366 167.315 187.185  0.00  0.00    +0.125 A 
ATOM     13  O   UNL     1     140.350 168.673 187.289  0.00  0.00    -0.443 OA
ATOM     14  C   UNL     1     142.004 165.389 187.819  0.00  0.00    +0.250 A 
ATOM     15  N   UNL     1     143.213 165.040 188.231  0.00  0.00    -0.203 NA
ATOM     16  C   UNL     1     143.164 163.670 188.297  0.00  0.00    +0.164 A 
ATOM     17  C   UNL     1     141.940 163.228 187.876  0.00  0.00    +0.125 A 
ATOM     18  O   UNL     1     141.189 164.316 187.542  0.00  0.00    -0.442 OA
ATOM     19  C   UNL     1     144.339 162.761 188.764  0.00  0.00    +0.249 A 
ATOM     20  N   UNL     1     145.548 163.221 189.039  0.00  0.00    -0.210 NA
ATOM     21  C   UNL     1     146.297 162.099 189.325  0.00  0.00    +0.109 A 
ATOM     22  C   UNL     1     145.477 160.999 189.291  0.00  0.00    +0.118 A 
ATOM     23  O   UNL     1     144.236 161.394 188.888  0.00  0.00    -0.442 OA
ATOM     24  C   UNL     1     147.767 162.190 189.612  0.00  0.00    +0.113 C 
ATOM     25  C   UNL     1     148.663 162.054 188.364  0.00  0.00    +0.051 C 
ATOM     26  C   UNL     1     148.899 163.400 187.700  0.00  0.00    +0.161 C 
ATOM     27  O   UNL     1     150.001 163.947 187.784  0.00  0.00    -0.292 OA
ATOM     28  C   UNL     1     147.778 164.066 186.978  0.00  0.00    -0.023 C 
ATOM     29  C   UNL     1     147.905 165.327 186.535  0.00  0.00    -0.078 C 
ATOM     30  C   UNL     1     146.775 166.109 185.927  0.00  0.00    -0.008 C 
ATOM     31  C   UNL     1     146.298 167.250 186.839  0.00  0.00    +0.069 C 
ATOM     32  C   UNL     1     147.311 168.389 186.934  0.00  0.00    +0.071 C 
ATOM     33  C   UNL     1     147.002 169.182 188.170  0.00  0.00    +0.310 C 
ATOM     34  O   UNL     1     147.043 168.700 189.294  0.00  0.00    -0.251 OA
ATOM     35  O   UNL     1     146.645 170.455 187.867  0.00  0.00    -0.461 OA
ATOM     36  C   UNL     1     145.920 171.200 188.881  0.00  0.00    +0.110 C 
ATOM     37  H   UNL     1     144.382 171.453 187.385  0.00  0.00    +0.036 HD
ATOM     38  H   UNL     1     144.361 173.561 189.603  0.00  0.00    +0.060 HD
ATOM     39  H   UNL     1     143.704 171.671 190.829  0.00  0.00    +0.033 HD
ATOM     40  H   UNL     1     142.180 172.365 190.339  0.00  0.00    +0.033 HD
ATOM     41  H   UNL     1     143.089 169.660 189.904  0.00  0.00    +0.057 HD
ATOM     42  H   UNL     1     141.354 171.158 187.848  0.00  0.00    +0.067 HD
ATOM     43  H   UNL     1     139.499 166.856 186.736  0.00  0.00    +0.105 HD
ATOM     44  H   UNL     1     141.469 162.258 187.765  0.00  0.00    +0.105 HD
ATOM     45  H   UNL     1     145.626 159.940 189.455  0.00  0.00    +0.105 HD
ATOM     46  H   UNL     1     147.933 163.173 190.074  0.00  0.00    +0.067 HD
ATOM     47  H   UNL     1     149.659 161.739 188.711  0.00  0.00    +0.041 HD
ATOM     48  H   UNL     1     146.841 163.533 186.886  0.00  0.00    +0.065 HD
ATOM     49  H   UNL     1     148.860 165.838 186.645  0.00  0.00    +0.057 HD
ATOM     50  H   UNL     1     147.085 166.507 184.953  0.00  0.00    +0.033 HD
ATOM     51  H   UNL     1     145.924 165.447 185.714  0.00  0.00    +0.033 HD
ATOM     52  H   UNL     1     146.062 166.844 187.831  0.00  0.00    +0.060 HD
ATOM     53  H   UNL     1     148.344 168.040 187.047  0.00  0.00    +0.040 HD
ATOM     54  H   UNL     1     147.273 169.038 186.049  0.00  0.00    +0.040 HD
ATOM     55  H   UNL     1     145.338 170.485 189.464  0.00  0.00    +0.074 HD
BRANCH   4  56
ATOM     56  C   UNL     1     145.651 173.121 187.217  0.00  0.00    -0.057 C 
ATOM     57  H   UNL     1     145.573 172.854 186.159  0.00  0.00    +0.023 HD
ATOM     58  H   UNL     1     146.711 173.179 187.473  0.00  0.00    +0.023 HD
ATOM     59  H   UNL     1     145.222 174.122 187.327  0.00  0.00    +0.023 HD
ENDBRANCH   4  56
BRANCH  25  60
ATOM     60  C   UNL     1     148.248 160.977 187.361  0.00  0.00    -0.053 C 
ATOM     61  H   UNL     1     147.836 160.084 187.843  0.00  0.00    +0.024 HD
ATOM     62  H   UNL     1     149.099 160.677 186.740  0.00  0.00    +0.024 HD
ATOM     63  H   UNL     1     147.467 161.368 186.695  0.00  0.00    +0.024 HD
ENDBRANCH  25  60
BRANCH  31  64
ATOM     64  O   UNL     1     145.085 167.784 186.298  0.00  0.00    -0.391 OA
ATOM     65  H   UNL     1     144.349 167.268 186.692  0.00  0.00    +0.210 HD
ENDBRANCH  31  64
BRANCH  24  66
ATOM     66  O   UNL     1     148.136 161.166 190.558  0.00  0.00    -0.373 OA
BRANCH  66  67
ATOM     67  C   UNL     1     149.520 160.841 190.482  0.00  0.00    +0.037 C 
ATOM     68  H   UNL     1     150.124 161.560 191.045  0.00  0.00    +0.052 HD
ATOM     69  H   UNL     1     149.696 159.828 190.860  0.00  0.00    +0.052 HD
ATOM     70  H   UNL     1     149.824 160.878 189.433  0.00  0.00    +0.052 HD
ENDBRANCH  66  67
ENDBRANCH  24  66
BRANCH   5  71
ATOM     71  O   UNL     1     142.918 173.469 188.127  0.00  0.00    -0.379 OA
BRANCH  71  72
ATOM     72  C   UNL     1     141.960 174.241 188.841  0.00  0.00    +0.037 C 
ATOM     73  H   UNL     1     140.938 173.929 188.609  0.00  0.00    +0.052 HD
ATOM     74  H   UNL     1     142.082 175.288 188.545  0.00  0.00    +0.052 HD
ATOM     75  H   UNL     1     142.140 174.163 189.919  0.00  0.00    +0.052 HD
ENDBRANCH  71  72
ENDBRANCH   5  71
ENDBRANCH   1  36
BRANCH   1  76
ATOM     76  C   UNL     1     147.030 171.438 191.200  0.00  0.00    +0.064 C 
ATOM     77  H   UNL     1     146.550 170.456 191.264  0.00  0.00    +0.060 HD
BRANCH  76  78
ATOM     78  C   UNL     1     148.503 171.316 191.681  0.00  0.00    -0.017 C 
ATOM     79  H   UNL     1     149.136 171.734 190.898  0.00  0.00    +0.032 HD
BRANCH  78  80
ATOM     80  C   UNL     1     148.690 172.205 192.934  0.00  0.00    -0.060 C 
ATOM     81  H   UNL     1     149.513 172.915 192.790  0.00  0.00    +0.023 HD
ATOM     82  H   UNL     1     147.795 172.798 193.142  0.00  0.00    +0.023 HD
ATOM     83  H   UNL     1     148.918 171.596 193.815  0.00  0.00    +0.023 HD
ENDBRANCH  78  80
BRANCH  78  84
ATOM     84  C   UNL     1     148.998 169.909 192.057  0.00  0.00    -0.045 C 
ATOM     85  H   UNL     1     148.966 169.813 193.154  0.00  0.00    +0.027 HD
ATOM     86  H   UNL     1     148.274 169.163 191.690  0.00  0.00    +0.027 HD
BRANCH  84  87
ATOM     87  C   UNL     1     150.410 169.450 191.656  0.00  0.00    -0.015 C 
ATOM     88  H   UNL     1     150.524 169.821 190.631  0.00  0.00    +0.030 HD
ATOM     89  H   UNL     1     151.161 169.994 192.240  0.00  0.00    +0.030 HD
BRANCH  87  90
ATOM     90  C   UNL     1     150.767 167.944 191.661  0.00  0.00    +0.109 C 
ATOM     91  H   UNL     1     149.997 167.429 191.073  0.00  0.00    +0.074 HD
BRANCH  90  92
ATOM     92  C   UNL     1     150.798 167.372 193.125  0.00  0.00    +0.031 C 
ATOM     93  H   UNL     1     150.713 168.224 193.810  0.00  0.00    +0.037 HD
BRANCH  92  94
ATOM     94  C   UNL     1     152.164 166.753 193.477  0.00  0.00    -0.056 C 
ATOM     95  H   UNL     1     152.053 165.749 193.889  0.00  0.00    +0.023 HD
ATOM     96  H   UNL     1     152.713 167.373 194.190  0.00  0.00    +0.023 HD
ATOM     97  H   UNL     1     152.785 166.644 192.579  0.00  0.00    +0.023 HD
ENDBRANCH  92  94
BRANCH  92  98
ATOM     98  C   UNL     1     149.701 166.313 193.473  0.00  0.00    +0.115 C 
ATOM     99  H   UNL     1     150.123 165.605 194.202  0.00  0.00    +0.074 HD
BRANCH  98 100
ATOM    100  C   UNL     1     148.419 166.867 194.165  0.00  0.00    +0.013 C 
ATOM    101  H   UNL     1     148.614 167.865 194.564  0.00  0.00    +0.038 HD
BRANCH 100 102
ATOM    102  C   UNL     1     147.955 165.967 195.319  0.00  0.00    -0.056 C 
ATOM    103  H   UNL     1     147.298 165.160 194.963  0.00  0.00    +0.024 HD
ATOM    104  H   UNL     1     148.809 165.497 195.830  0.00  0.00    +0.024 HD
ATOM    105  H   UNL     1     147.388 166.533 196.064  0.00  0.00    +0.024 HD
ENDBRANCH 100 102
BRANCH 100 106
ATOM    106  C   UNL     1     147.272 166.983 193.174  0.00  0.00    -0.064 C 
ATOM    107  C   UNL     1     146.111 166.326 193.310  0.00  0.00    -0.005 C 
ATOM    108  H   UNL     1     147.451 167.629 192.317  0.00  0.00    +0.059 HD
ATOM    109  H   UNL     1     145.992 165.663 194.166  0.00  0.00    +0.078 HD
BRANCH 107 110
ATOM    110  N   UNL     1     145.018 166.362 192.459  0.00  0.00    -0.284 N 
ATOM    111  C   UNL     1     143.729 166.762 192.816  0.00  0.00    +0.206 C 
ATOM    112  O   UNL     1     143.316 167.151 193.903  0.00  0.00    -0.279 OA
ATOM    113  H   UNL     1     143.027 166.693 191.968  0.00  0.00    +0.126 HD
BRANCH 110 114
ATOM    114  C   UNL     1     145.246 165.941 191.079  0.00  0.00    +0.007 C 
ATOM    115  H   UNL     1     144.405 165.316 190.754  0.00  0.00    +0.043 HD
ATOM    116  H   UNL     1     146.168 165.359 190.977  0.00  0.00    +0.043 HD
ATOM    117  H   UNL     1     145.315 166.825 190.438  0.00  0.00    +0.043 HD
ENDBRANCH 110 114
ENDBRANCH 107 110
ENDBRANCH 100 106
ENDBRANCH  98 100
BRANCH  98 118
ATOM    118  O   UNL     1     149.306 165.602 192.277  0.00  0.00    -0.461 OA
BRANCH 118 119
ATOM    119  C   UNL     1     149.603 164.270 192.240  0.00  0.00    +0.304 C 
ATOM    120  O   UNL     1     148.991 163.383 192.816  0.00  0.00    -0.251 OA
BRANCH 119 121
ATOM    121  C   UNL     1     150.828 164.031 191.410  0.00  0.00    +0.033 C 
ATOM    122  H   UNL     1     151.083 164.944 190.870  0.00  0.00    +0.034 HD
ATOM    123  H   UNL     1     150.652 163.205 190.716  0.00  0.00    +0.034 HD
ATOM    124  H   UNL     1     151.658 163.748 192.063  0.00  0.00    +0.034 HD
ENDBRANCH 119 121
ENDBRANCH 118 119
ENDBRANCH  98 118
ENDBRANCH  92  98
ENDBRANCH  90  92
BRANCH  90 125
ATOM    125  O   UNL     1     152.055 167.760 191.018  0.00  0.00    -0.459 OA
BRANCH 125 126
ATOM    126  C   UNL     1     152.038 167.157 189.783  0.00  0.00    +0.339 C 
ATOM    127  O   UNL     1     151.022 166.979 189.122  0.00  0.00    -0.248 OA
BRANCH 126 128
ATOM    128  C   UNL     1     153.424 166.653 189.346  0.00  0.00    +0.178 C 
ATOM    129  H   UNL     1     154.047 166.630 190.255  0.00  0.00    +0.074 HD
BRANCH 128 130
ATOM    130  C   UNL     1     153.297 165.224 188.813  0.00  0.00    +0.084 C 
ATOM    131  H   UNL     1     152.302 164.830 189.029  0.00  0.00    +0.059 HD
ATOM    132  H   UNL     1     153.400 165.232 187.721  0.00  0.00    +0.059 HD
BRANCH 130 133
ATOM    133  O   UNL     1     154.296 164.372 189.370  0.00  0.00    -0.380 OA
BRANCH 133 134
ATOM    134  C   UNL     1     153.871 163.017 189.400  0.00  0.00    +0.037 C 
ATOM    135  H   UNL     1     153.120 162.842 188.622  0.00  0.00    +0.052 HD
ATOM    136  H   UNL     1     154.736 162.379 189.200  0.00  0.00    +0.052 HD
ATOM    137  H   UNL     1     153.459 162.755 190.380  0.00  0.00    +0.052 HD
ENDBRANCH 133 134
ENDBRANCH 130 133
ENDBRANCH 128 130
BRANCH 128 138
ATOM    138  O   UNL     1     154.079 167.433 188.342  0.00  0.00    -0.366 OA
BRANCH 138 139
ATOM    139  C   UNL     1     153.763 166.997 187.028  0.00  0.00    +0.038 C 
ATOM    140  H   UNL     1     154.467 167.464 186.334  0.00  0.00    +0.052 HD
ATOM    141  H   UNL     1     152.750 167.312 186.754  0.00  0.00    +0.052 HD
ATOM    142  H   UNL     1     153.856 165.911 186.940  0.00  0.00    +0.052 HD
ENDBRANCH 138 139
ENDBRANCH 128 138
ENDBRANCH 126 128
ENDBRANCH 125 126
ENDBRANCH  90 125
ENDBRANCH  87  90
ENDBRANCH  84  87
ENDBRANCH  78  84
ENDBRANCH  76  78
BRANCH  76 143
ATOM    143  O   UNL     1     146.402 172.389 192.081  0.00  0.00    -0.379 OA
BRANCH 143 144
ATOM    144  C   UNL     1     146.054 173.615 191.452  0.00  0.00    +0.037 C 
ATOM    145  H   UNL     1     145.333 173.399 190.656  0.00  0.00    +0.052 HD
ATOM    146  H   UNL     1     146.924 174.111 191.007  0.00  0.00    +0.052 HD
ATOM    147  H   UNL     1     145.568 174.283 192.165  0.00  0.00    +0.052 HD
ENDBRANCH 143 144
ENDBRANCH  76 143
ENDBRANCH   1  76
TORSDOF 35
ENDMDL
MODEL 3
REMARK VINA RESULT:      -5.7      2.876      9.030
REMARK  Name = Mycalolide B_conf3
REMARK  35 active torsions:
REMARK  status: ('A' for Active; 'I' for Inactive)
REMARK    1  A    between atoms: C_1  and  C_2
REMARK    2  A    between atoms: C_3  and  O_72
REMARK    3  A    between atoms: C_22  and  O_70
REMARK    4  A    between atoms: C_23  and  C_69
REMARK    5  A    between atoms: C_29  and  O_68
REMARK    6  A    between atoms: C_34  and  C_35
REMARK    7  A    between atoms: C_35  and  C_36
REMARK    8  A    between atoms: C_36  and  C_37
REMARK    9  A    between atoms: C_36  and  O_66
REMARK   10  A    between atoms: C_37  and  C_38
REMARK   11  A    between atoms: C_37  and  C_39
REMARK   12  A    between atoms: C_39  and  C_40
REMARK   13  A    between atoms: C_40  and  C_41
REMARK   14  A    between atoms: C_41  and  C_42
REMARK   15  A    between atoms: C_41  and  O_57
REMARK   16  A    between atoms: C_42  and  C_43
REMARK   17  A    between atoms: C_42  and  C_44
REMARK   18  A    between atoms: C_44  and  C_45
REMARK   19  A    between atoms: C_44  and  O_53
REMARK   20  A    between atoms: C_45  and  C_46
REMARK   21  A    between atoms: C_45  and  C_47
REMARK   22  A    between atoms: C_48  and  N_49
REMARK   23  A    between atoms: N_49  and  C_50
REMARK   24  A    between atoms: O_53  and  C_54
REMARK   25  A    between atoms: C_54  and  C_56
REMARK   26  A    between atoms: O_57  and  C_58
REMARK   27  A    between atoms: C_58  and  C_60
REMARK   28  A    between atoms: C_60  and  C_61
REMARK   29  A    between atoms: C_60  and  O_64
REMARK   30  A    between atoms: C_61  and  O_62
REMARK   31  A    between atoms: O_62  and  C_63
REMARK   32  A    between atoms: O_64  and  C_65
REMARK   33  A    between atoms: O_66  and  C_67
REMARK   34  A    between atoms: O_70  and  C_71
REMARK   35  A    between atoms: O_72  and  C_73
REMARK                            x       y       z     vdW  Elec       q    Type
REMARK                         _______ _______ _______ _____ _____    ______ ____
ROOT
ATOM      1  C   UNL     1     146.435 172.296 189.344  0.00  0.00    +0.011 C 
ATOM      2  H   UNL     1     145.856 173.225 189.299  0.00  0.00    +0.033 HD
ATOM      3  H   UNL     1     147.330 172.426 188.726  0.00  0.00    +0.033 HD
ENDROOT
BRANCH   1  36
ATOM      4  C   UNL     1     144.155 171.557 188.346  0.00  0.00    +0.020 C 
ATOM      5  C   UNL     1     143.216 171.915 189.533  0.00  0.00    +0.068 C 
ATOM      6  C   UNL     1     143.135 170.849 190.657  0.00  0.00    -0.008 C 
ATOM      7  C   UNL     1     143.085 169.410 190.219  0.00  0.00    -0.077 C 
ATOM      8  C   UNL     1     142.123 168.849 189.471  0.00  0.00    -0.003 C 
ATOM      9  C   UNL     1     142.218 167.472 189.120  0.00  0.00    +0.220 A 
ATOM     10  N   UNL     1     143.338 166.760 189.053  0.00  0.00    -0.205 NA
ATOM     11  C   UNL     1     142.936 165.468 188.828  0.00  0.00    +0.164 A 
ATOM     12  C   UNL     1     141.576 165.422 188.705  0.00  0.00    +0.125 A 
ATOM     13  O   UNL     1     141.101 166.691 188.844  0.00  0.00    -0.443 OA
ATOM     14  C   UNL     1     143.906 164.256 188.773  0.00  0.00    +0.250 A 
ATOM     15  N   UNL     1     145.223 164.390 188.797  0.00  0.00    -0.203 NA
ATOM     16  C   UNL     1     145.692 163.100 188.840  0.00  0.00    +0.164 A 
ATOM     17  C   UNL     1     144.644 162.223 188.791  0.00  0.00    +0.125 A 
ATOM     18  O   UNL     1     143.489 162.946 188.724  0.00  0.00    -0.442 OA
ATOM     19  C   UNL     1     147.196 162.705 188.911  0.00  0.00    +0.249 A 
ATOM     20  N   UNL     1     148.182 163.582 188.825  0.00  0.00    -0.210 NA
ATOM     21  C   UNL     1     149.333 162.823 188.847  0.00  0.00    +0.109 A 
ATOM     22  C   UNL     1     148.992 161.507 189.030  0.00  0.00    +0.118 A 
ATOM     23  O   UNL     1     147.634 161.405 189.026  0.00  0.00    -0.442 OA
ATOM     24  C   UNL     1     150.688 163.449 188.685  0.00  0.00    +0.113 C 
ATOM     25  C   UNL     1     151.174 163.531 187.223  0.00  0.00    +0.051 C 
ATOM     26  C   UNL     1     150.709 164.813 186.554  0.00  0.00    +0.161 C 
ATOM     27  O   UNL     1     151.513 165.717 186.320  0.00  0.00    -0.292 OA
ATOM     28  C   UNL     1     149.266 164.979 186.216  0.00  0.00    -0.023 C 
ATOM     29  C   UNL     1     148.798 166.162 185.788  0.00  0.00    -0.078 C 
ATOM     30  C   UNL     1     147.338 166.442 185.564  0.00  0.00    -0.008 C 
ATOM     31  C   UNL     1     146.764 167.416 186.606  0.00  0.00    +0.069 C 
ATOM     32  C   UNL     1     147.280 168.842 186.424  0.00  0.00    +0.071 C 
ATOM     33  C   UNL     1     147.075 169.578 187.716  0.00  0.00    +0.310 C 
ATOM     34  O   UNL     1     147.607 169.238 188.764  0.00  0.00    -0.251 OA
ATOM     35  O   UNL     1     146.212 170.613 187.565  0.00  0.00    -0.461 OA
ATOM     36  C   UNL     1     145.591 171.140 188.767  0.00  0.00    +0.110 C 
ATOM     37  H   UNL     1     143.706 170.709 187.805  0.00  0.00    +0.036 HD
ATOM     38  H   UNL     1     143.564 172.854 189.981  0.00  0.00    +0.060 HD
ATOM     39  H   UNL     1     144.013 170.965 191.299  0.00  0.00    +0.033 HD
ATOM     40  H   UNL     1     142.270 171.036 191.303  0.00  0.00    +0.033 HD
ATOM     41  H   UNL     1     143.927 168.796 190.548  0.00  0.00    +0.057 HD
ATOM     42  H   UNL     1     141.258 169.408 189.141  0.00  0.00    +0.067 HD
ATOM     43  H   UNL     1     140.843 164.652 188.523  0.00  0.00    +0.105 HD
ATOM     44  H   UNL     1     144.544 161.144 188.801  0.00  0.00    +0.105 HD
ATOM     45  H   UNL     1     149.553 160.586 189.116  0.00  0.00    +0.105 HD
ATOM     46  H   UNL     1     150.613 164.463 189.102  0.00  0.00    +0.067 HD
ATOM     47  H   UNL     1     152.271 163.616 187.250  0.00  0.00    +0.041 HD
ATOM     48  H   UNL     1     148.600 164.145 186.394  0.00  0.00    +0.065 HD
ATOM     49  H   UNL     1     149.492 166.983 185.621  0.00  0.00    +0.057 HD
ATOM     50  H   UNL     1     147.191 166.840 184.553  0.00  0.00    +0.033 HD
ATOM     51  H   UNL     1     146.760 165.509 185.598  0.00  0.00    +0.033 HD
ATOM     52  H   UNL     1     146.986 167.038 187.612  0.00  0.00    +0.060 HD
ATOM     53  H   UNL     1     148.356 168.889 186.215  0.00  0.00    +0.040 HD
ATOM     54  H   UNL     1     146.759 169.359 185.607  0.00  0.00    +0.040 HD
ATOM     55  H   UNL     1     145.500 170.318 189.479  0.00  0.00    +0.074 HD
BRANCH   4  56
ATOM     56  C   UNL     1     144.183 172.695 187.309  0.00  0.00    -0.057 C 
ATOM     57  H   UNL     1     144.450 173.647 187.777  0.00  0.00    +0.023 HD
ATOM     58  H   UNL     1     143.211 172.817 186.827  0.00  0.00    +0.023 HD
ATOM     59  H   UNL     1     144.926 172.504 186.528  0.00  0.00    +0.023 HD
ENDBRANCH   4  56
BRANCH  25  60
ATOM     60  C   UNL     1     150.907 162.296 186.363  0.00  0.00    -0.053 C 
ATOM     61  H   UNL     1     150.144 162.470 185.597  0.00  0.00    +0.024 HD
ATOM     62  H   UNL     1     150.589 161.452 186.985  0.00  0.00    +0.024 HD
ATOM     63  H   UNL     1     151.824 162.001 185.837  0.00  0.00    +0.024 HD
ENDBRANCH  25  60
BRANCH  31  64
ATOM     64  O   UNL     1     145.341 167.442 186.465  0.00  0.00    -0.391 OA
ATOM     65  H   UNL     1     144.984 167.860 187.276  0.00  0.00    +0.210 HD
ENDBRANCH  31  64
BRANCH  24  66
ATOM     66  O   UNL     1     151.656 162.704 189.452  0.00  0.00    -0.373 OA
BRANCH  66  67
ATOM     67  C   UNL     1     151.668 163.093 190.821  0.00  0.00    +0.037 C 
ATOM     68  H   UNL     1     152.691 163.260 191.173  0.00  0.00    +0.052 HD
ATOM     69  H   UNL     1     151.070 164.000 190.966  0.00  0.00    +0.052 HD
ATOM     70  H   UNL     1     151.224 162.286 191.411  0.00  0.00    +0.052 HD
ENDBRANCH  66  67
ENDBRANCH  24  66
BRANCH   5  71
ATOM     71  O   UNL     1     141.892 172.136 189.000  0.00  0.00    -0.379 OA
BRANCH  71  72
ATOM     72  C   UNL     1     140.967 172.573 189.989  0.00  0.00    +0.037 C 
ATOM     73  H   UNL     1     140.502 173.523 189.712  0.00  0.00    +0.052 HD
ATOM     74  H   UNL     1     141.515 172.713 190.927  0.00  0.00    +0.052 HD
ATOM     75  H   UNL     1     140.197 171.812 190.149  0.00  0.00    +0.052 HD
ENDBRANCH  71  72
ENDBRANCH   5  71
ENDBRANCH   1  36
BRANCH   1  76
ATOM     76  C   UNL     1     146.844 172.097 190.812  0.00  0.00    +0.064 C 
ATOM     77  H   UNL     1     146.287 171.260 191.243  0.00  0.00    +0.060 HD
BRANCH  76  78
ATOM     78  C   UNL     1     148.367 171.843 190.995  0.00  0.00    -0.017 C 
ATOM     79  H   UNL     1     148.829 171.918 190.009  0.00  0.00    +0.032 HD
BRANCH  78  80
ATOM     80  C   UNL     1     148.959 172.984 191.856  0.00  0.00    -0.060 C 
ATOM     81  H   UNL     1     148.164 173.612 192.274  0.00  0.00    +0.023 HD
ATOM     82  H   UNL     1     149.529 172.592 192.703  0.00  0.00    +0.023 HD
ATOM     83  H   UNL     1     149.617 173.623 191.259  0.00  0.00    +0.023 HD
ENDBRANCH  78  80
BRANCH  78  84
ATOM     84  C   UNL     1     148.776 170.522 191.666  0.00  0.00    -0.045 C 
ATOM     85  H   UNL     1     149.570 170.058 191.059  0.00  0.00    +0.027 HD
ATOM     86  H   UNL     1     149.258 170.744 192.633  0.00  0.00    +0.027 HD
BRANCH  84  87
ATOM     87  C   UNL     1     147.738 169.409 191.887  0.00  0.00    -0.015 C 
ATOM     88  H   UNL     1     147.238 169.699 192.817  0.00  0.00    +0.030 HD
ATOM     89  H   UNL     1     146.960 169.463 191.117  0.00  0.00    +0.030 HD
BRANCH  87  90
ATOM     90  C   UNL     1     148.197 167.937 192.030  0.00  0.00    +0.109 C 
ATOM     91  H   UNL     1     148.372 167.758 193.098  0.00  0.00    +0.074 HD
BRANCH  90  92
ATOM     92  C   UNL     1     149.515 167.670 191.217  0.00  0.00    +0.031 C 
ATOM     93  H   UNL     1     149.904 168.645 190.898  0.00  0.00    +0.037 HD
BRANCH  92  94
ATOM     94  C   UNL     1     149.240 166.934 189.892  0.00  0.00    -0.056 C 
ATOM     95  H   UNL     1     148.377 166.272 189.975  0.00  0.00    +0.023 HD
ATOM     96  H   UNL     1     150.107 166.352 189.569  0.00  0.00    +0.023 HD
ATOM     97  H   UNL     1     148.998 167.647 189.093  0.00  0.00    +0.023 HD
ENDBRANCH  92  94
BRANCH  92  98
ATOM     98  C   UNL     1     150.638 166.881 191.966  0.00  0.00    +0.115 C 
ATOM     99  H   UNL     1     150.726 165.885 191.507  0.00  0.00    +0.074 HD
BRANCH  98 100
ATOM    100  C   UNL     1     152.072 167.484 191.867  0.00  0.00    +0.013 C 
ATOM    101  H   UNL     1     152.536 167.505 192.855  0.00  0.00    +0.038 HD
BRANCH 100 102
ATOM    102  C   UNL     1     152.056 168.915 191.309  0.00  0.00    -0.056 C 
ATOM    103  H   UNL     1     151.051 169.355 191.355  0.00  0.00    +0.024 HD
ATOM    104  H   UNL     1     152.733 169.573 191.874  0.00  0.00    +0.024 HD
ATOM    105  H   UNL     1     152.366 168.937 190.260  0.00  0.00    +0.024 HD
ENDBRANCH 100 102
BRANCH 100 106
ATOM    106  C   UNL     1     152.956 166.641 190.962  0.00  0.00    -0.064 C 
ATOM    107  C   UNL     1     153.182 166.932 189.672  0.00  0.00    -0.005 C 
ATOM    108  H   UNL     1     153.394 165.757 191.419  0.00  0.00    +0.059 HD
ATOM    109  H   UNL     1     152.693 167.808 189.250  0.00  0.00    +0.078 HD
BRANCH 107 110
ATOM    110  N   UNL     1     153.961 166.222 188.772  0.00  0.00    -0.284 N 
ATOM    111  C   UNL     1     154.387 166.690 187.528  0.00  0.00    +0.206 C 
ATOM    112  O   UNL     1     154.175 167.776 186.999  0.00  0.00    -0.279 OA
ATOM    113  H   UNL     1     154.986 165.938 186.989  0.00  0.00    +0.126 HD
BRANCH 110 114
ATOM    114  C   UNL     1     154.360 164.874 189.170  0.00  0.00    +0.007 C 
ATOM    115  H   UNL     1     153.883 164.630 190.126  0.00  0.00    +0.043 HD
ATOM    116  H   UNL     1     155.445 164.790 189.294  0.00  0.00    +0.043 HD
ATOM    117  H   UNL     1     154.038 164.162 188.405  0.00  0.00    +0.043 HD
ENDBRANCH 110 114
ENDBRANCH 107 110
ENDBRANCH 100 106
ENDBRANCH  98 100
BRANCH  98 118
ATOM    118  O   UNL     1     150.294 166.743 193.365  0.00  0.00    -0.461 OA
BRANCH 118 119
ATOM    119  C   UNL     1     150.531 165.523 193.927  0.00  0.00    +0.304 C 
ATOM    120  O   UNL     1     150.002 164.469 193.604  0.00  0.00    -0.251 OA
BRANCH 119 121
ATOM    121  C   UNL     1     151.522 165.646 195.045  0.00  0.00    +0.033 C 
ATOM    122  H   UNL     1     152.457 165.164 194.754  0.00  0.00    +0.034 HD
ATOM    123  H   UNL     1     151.117 165.193 195.953  0.00  0.00    +0.034 HD
ATOM    124  H   UNL     1     151.705 166.703 195.252  0.00  0.00    +0.034 HD
ENDBRANCH 119 121
ENDBRANCH 118 119
ENDBRANCH  98 118
ENDBRANCH  92  98
ENDBRANCH  90  92
BRANCH  90 125
ATOM    125  O   UNL     1     147.133 167.063 191.573  0.00  0.00    -0.459 OA
BRANCH 125 126
ATOM    126  C   UNL     1     146.934 165.914 192.302  0.00  0.00    +0.339 C 
ATOM    127  O   UNL     1     147.113 164.785 191.862  0.00  0.00    -0.248 OA
BRANCH 126 128
ATOM    128  C   UNL     1     146.383 166.190 193.711  0.00  0.00    +0.178 C 
ATOM    129  H   UNL     1     146.615 167.244 193.935  0.00  0.00    +0.074 HD
BRANCH 128 130
ATOM    130  C   UNL     1     144.862 166.022 193.701  0.00  0.00    +0.084 C 
ATOM    131  H   UNL     1     144.593 165.064 193.253  0.00  0.00    +0.059 HD
ATOM    132  H   UNL     1     144.492 165.999 194.733  0.00  0.00    +0.059 HD
BRANCH 130 133
ATOM    133  O   UNL     1     144.227 167.090 193.001  0.00  0.00    -0.380 OA
BRANCH 133 134
ATOM    134  C   UNL     1     142.832 166.865 192.858  0.00  0.00    +0.037 C 
ATOM    135  H   UNL     1     142.636 165.796 192.722  0.00  0.00    +0.052 HD
ATOM    136  H   UNL     1     142.332 167.198 193.771  0.00  0.00    +0.052 HD
ATOM    137  H   UNL     1     142.428 167.428 192.010  0.00  0.00    +0.052 HD
ENDBRANCH 133 134
ENDBRANCH 130 133
ENDBRANCH 128 130
BRANCH 128 138
ATOM    138  O   UNL     1     146.904 165.360 194.753  0.00  0.00    -0.366 OA
BRANCH 138 139
ATOM    139  C   UNL     1     147.690 166.092 195.683  0.00  0.00    +0.038 C 
ATOM    140  H   UNL     1     148.172 166.916 195.150  0.00  0.00    +0.052 HD
ATOM    141  H   UNL     1     148.473 165.454 196.108  0.00  0.00    +0.052 HD
ATOM    142  H   UNL     1     147.071 166.509 196.482  0.00  0.00    +0.052 HD
ENDBRANCH 138 139
ENDBRANCH 128 138
ENDBRANCH 126 128
ENDBRANCH 125 126
ENDBRANCH  90 125
ENDBRANCH  87  90
ENDBRANCH  84  87
ENDBRANCH  78  84
ENDBRANCH  76  78
BRANCH  76 143
ATOM    143  O   UNL     1     146.561 173.329 191.504  0.00  0.00    -0.379 OA
BRANCH 143 144
ATOM    144  C   UNL     1     145.280 173.362 192.120  0.00  0.00    +0.037 C 
ATOM    145  H   UNL     1     144.865 172.348 192.102  0.00  0.00    +0.052 HD
ATOM    146  H   UNL     1     144.588 174.030 191.595  0.00  0.00    +0.052 HD
ATOM    147  H   UNL     1     145.369 173.664 193.166  0.00  0.00    +0.052 HD
ENDBRANCH 143 144
ENDBRANCH  76 143
ENDBRANCH   1  76
TORSDOF 35
ENDMDL
MODEL 4
REMARK VINA RESULT:      -5.5      3.037      9.240
REMARK  Name = Mycalolide B_conf3
REMARK  35 active torsions:
REMARK  status: ('A' for Active; 'I' for Inactive)
REMARK    1  A    between atoms: C_1  and  C_2
REMARK    2  A    between atoms: C_3  and  O_72
REMARK    3  A    between atoms: C_22  and  O_70
REMARK    4  A    between atoms: C_23  and  C_69
REMARK    5  A    between atoms: C_29  and  O_68
REMARK    6  A    between atoms: C_34  and  C_35
REMARK    7  A    between atoms: C_35  and  C_36
REMARK    8  A    between atoms: C_36  and  C_37
REMARK    9  A    between atoms: C_36  and  O_66
REMARK   10  A    between atoms: C_37  and  C_38
REMARK   11  A    between atoms: C_37  and  C_39
REMARK   12  A    between atoms: C_39  and  C_40
REMARK   13  A    between atoms: C_40  and  C_41
REMARK   14  A    between atoms: C_41  and  C_42
REMARK   15  A    between atoms: C_41  and  O_57
REMARK   16  A    between atoms: C_42  and  C_43
REMARK   17  A    between atoms: C_42  and  C_44
REMARK   18  A    between atoms: C_44  and  C_45
REMARK   19  A    between atoms: C_44  and  O_53
REMARK   20  A    between atoms: C_45  and  C_46
REMARK   21  A    between atoms: C_45  and  C_47
REMARK   22  A    between atoms: C_48  and  N_49
REMARK   23  A    between atoms: N_49  and  C_50
REMARK   24  A    between atoms: O_53  and  C_54
REMARK   25  A    between atoms: C_54  and  C_56
REMARK   26  A    between atoms: O_57  and  C_58
REMARK   27  A    between atoms: C_58  and  C_60
REMARK   28  A    between atoms: C_60  and  C_61
REMARK   29  A    between atoms: C_60  and  O_64
REMARK   30  A    between atoms: C_61  and  O_62
REMARK   31  A    between atoms: O_62  and  C_63
REMARK   32  A    between atoms: O_64  and  C_65
REMARK   33  A    between atoms: O_66  and  C_67
REMARK   34  A    between atoms: O_70  and  C_71
REMARK   35  A    between atoms: O_72  and  C_73
REMARK                            x       y       z     vdW  Elec       q    Type
REMARK                         _______ _______ _______ _____ _____    ______ ____
ROOT
ATOM      1  C   UNL     1     147.075 171.389 189.779  0.00  0.00    +0.011 C 
ATOM      2  H   UNL     1     146.734 172.402 189.542  0.00  0.00    +0.033 HD
ATOM      3  H   UNL     1     148.096 171.278 189.398  0.00  0.00    +0.033 HD
ENDROOT
BRANCH   1  36
ATOM      4  C   UNL     1     144.829 170.963 188.548  0.00  0.00    +0.020 C 
ATOM      5  C   UNL     1     143.830 171.383 189.665  0.00  0.00    +0.068 C 
ATOM      6  C   UNL     1     143.523 170.291 190.722  0.00  0.00    -0.008 C 
ATOM      7  C   UNL     1     143.350 168.887 190.211  0.00  0.00    -0.077 C 
ATOM      8  C   UNL     1     142.405 168.472 189.354  0.00  0.00    -0.003 C 
ATOM      9  C   UNL     1     142.375 167.109 188.945  0.00  0.00    +0.220 A 
ATOM     10  N   UNL     1     143.408 166.273 188.942  0.00  0.00    -0.205 NA
ATOM     11  C   UNL     1     142.883 165.047 188.619  0.00  0.00    +0.164 A 
ATOM     12  C   UNL     1     141.544 165.167 188.374  0.00  0.00    +0.125 A 
ATOM     13  O   UNL     1     141.207 166.477 188.532  0.00  0.00    -0.443 OA
ATOM     14  C   UNL     1     143.710 163.732 188.589  0.00  0.00    +0.250 A 
ATOM     15  N   UNL     1     145.025 163.708 188.736  0.00  0.00    -0.203 NA
ATOM     16  C   UNL     1     145.338 162.372 188.756  0.00  0.00    +0.164 A 
ATOM     17  C   UNL     1     144.206 161.626 188.571  0.00  0.00    +0.125 A 
ATOM     18  O   UNL     1     143.153 162.483 188.439  0.00  0.00    -0.442 OA
ATOM     19  C   UNL     1     146.774 161.799 188.940  0.00  0.00    +0.249 A 
ATOM     20  N   UNL     1     147.858 162.556 188.985  0.00  0.00    -0.210 NA
ATOM     21  C   UNL     1     148.908 161.666 189.070  0.00  0.00    +0.109 A 
ATOM     22  C   UNL     1     148.403 160.393 189.158  0.00  0.00    +0.118 A 
ATOM     23  O   UNL     1     147.048 160.453 189.028  0.00  0.00    -0.442 OA
ATOM     24  C   UNL     1     150.334 162.133 189.061  0.00  0.00    +0.113 C 
ATOM     25  C   UNL     1     150.961 162.214 187.653  0.00  0.00    +0.051 C 
ATOM     26  C   UNL     1     150.709 163.567 187.010  0.00  0.00    +0.161 C 
ATOM     27  O   UNL     1     151.630 164.379 186.893  0.00  0.00    -0.292 OA
ATOM     28  C   UNL     1     149.333 163.915 186.555  0.00  0.00    -0.023 C 
ATOM     29  C   UNL     1     149.045 165.161 186.145  0.00  0.00    -0.078 C 
ATOM     30  C   UNL     1     147.653 165.621 185.808  0.00  0.00    -0.008 C 
ATOM     31  C   UNL     1     147.100 166.614 186.842  0.00  0.00    +0.069 C 
ATOM     32  C   UNL     1     147.790 167.975 186.777  0.00  0.00    +0.071 C 
ATOM     33  C   UNL     1     147.550 168.679 188.081  0.00  0.00    +0.310 C 
ATOM     34  O   UNL     1     147.940 168.239 189.154  0.00  0.00    -0.251 OA
ATOM     35  O   UNL     1     146.829 169.814 187.906  0.00  0.00    -0.461 OA
ATOM     36  C   UNL     1     146.162 170.363 189.074  0.00  0.00    +0.110 C 
ATOM     37  H   UNL     1     144.338 170.196 187.928  0.00  0.00    +0.036 HD
ATOM     38  H   UNL     1     144.239 172.257 190.187  0.00  0.00    +0.060 HD
ATOM     39  H   UNL     1     144.345 170.277 191.444  0.00  0.00    +0.033 HD
ATOM     40  H   UNL     1     142.629 170.553 191.298  0.00  0.00    +0.033 HD
ATOM     41  H   UNL     1     144.083 168.165 190.582  0.00  0.00    +0.057 HD
ATOM     42  H   UNL     1     141.644 169.143 188.977  0.00  0.00    +0.067 HD
ATOM     43  H   UNL     1     140.749 164.496 188.089  0.00  0.00    +0.105 HD
ATOM     44  H   UNL     1     143.983 160.567 188.518  0.00  0.00    +0.105 HD
ATOM     45  H   UNL     1     148.845 159.409 189.247  0.00  0.00    +0.105 HD
ATOM     46  H   UNL     1     150.337 163.132 189.519  0.00  0.00    +0.067 HD
ATOM     47  H   UNL     1     152.053 162.169 187.781  0.00  0.00    +0.041 HD
ATOM     48  H   UNL     1     148.562 163.160 186.631  0.00  0.00    +0.065 HD
ATOM     49  H   UNL     1     149.841 165.901 186.082  0.00  0.00    +0.057 HD
ATOM     50  H   UNL     1     147.648 166.072 184.809  0.00  0.00    +0.033 HD
ATOM     51  H   UNL     1     146.972 164.761 185.744  0.00  0.00    +0.033 HD
ATOM     52  H   UNL     1     147.182 166.174 187.844  0.00  0.00    +0.060 HD
ATOM     53  H   UNL     1     148.879 167.903 186.667  0.00  0.00    +0.040 HD
ATOM     54  H   UNL     1     147.410 168.582 185.944  0.00  0.00    +0.040 HD
ATOM     55  H   UNL     1     145.912 169.531 189.733  0.00  0.00    +0.074 HD
BRANCH   4  56
ATOM     56  C   UNL     1     145.084 172.130 187.575  0.00  0.00    -0.057 C 
ATOM     57  H   UNL     1     145.842 171.864 186.833  0.00  0.00    +0.023 HD
ATOM     58  H   UNL     1     145.427 173.020 188.105  0.00  0.00    +0.023 HD
ATOM     59  H   UNL     1     144.175 172.394 187.025  0.00  0.00    +0.023 HD
ENDBRANCH   4  56
BRANCH  25  60
ATOM     60  C   UNL     1     150.636 161.054 186.712  0.00  0.00    -0.053 C 
ATOM     61  H   UNL     1     150.570 160.093 187.231  0.00  0.00    +0.024 HD
ATOM     62  H   UNL     1     151.390 160.973 185.922  0.00  0.00    +0.024 HD
ATOM     63  H   UNL     1     149.663 161.224 186.233  0.00  0.00    +0.024 HD
ENDBRANCH  25  60
BRANCH  31  64
ATOM     64  O   UNL     1     145.708 166.813 186.577  0.00  0.00    -0.391 OA
ATOM     65  H   UNL     1     145.388 166.004 186.124  0.00  0.00    +0.210 HD
ENDBRANCH  31  64
BRANCH  24  66
ATOM     66  O   UNL     1     151.135 161.250 189.872  0.00  0.00    -0.373 OA
BRANCH  66  67
ATOM     67  C   UNL     1     152.525 161.539 189.765  0.00  0.00    +0.037 C 
ATOM     68  H   UNL     1     152.853 161.510 188.722  0.00  0.00    +0.052 HD
ATOM     69  H   UNL     1     152.746 162.520 190.199  0.00  0.00    +0.052 HD
ATOM     70  H   UNL     1     153.077 160.780 190.325  0.00  0.00    +0.052 HD
ENDBRANCH  66  67
ENDBRANCH  24  66
BRANCH   5  71
ATOM     71  O   UNL     1     142.596 171.780 189.028  0.00  0.00    -0.379 OA
BRANCH  71  72
ATOM     72  C   UNL     1     141.661 172.341 189.943  0.00  0.00    +0.037 C 
ATOM     73  H   UNL     1     141.382 171.626 190.721  0.00  0.00    +0.052 HD
ATOM     74  H   UNL     1     140.762 172.615 189.381  0.00  0.00    +0.052 HD
ATOM     75  H   UNL     1     142.075 173.247 190.397  0.00  0.00    +0.052 HD
ENDBRANCH  71  72
ENDBRANCH   5  71
ENDBRANCH   1  36
BRANCH   1  76
ATOM     76  C   UNL     1     147.079 171.269 191.312  0.00  0.00    +0.064 C 
ATOM     77  H   UNL     1     146.694 170.288 191.609  0.00  0.00    +0.060 HD
BRANCH  76  78
ATOM     78  C   UNL     1     148.487 171.473 191.938  0.00  0.00    -0.017 C 
ATOM     79  H   UNL     1     149.059 172.100 191.253  0.00  0.00    +0.032 HD
BRANCH  78  80
ATOM     80  C   UNL     1     148.332 172.270 193.255  0.00  0.00    -0.060 C 
ATOM     81  H   UNL     1     149.203 172.914 193.428  0.00  0.00    +0.023 HD
ATOM     82  H   UNL     1     147.456 172.925 193.227  0.00  0.00    +0.023 HD
ATOM     83  H   UNL     1     148.235 171.595 194.112  0.00  0.00    +0.023 HD
ENDBRANCH  78  80
BRANCH  78  84
ATOM     84  C   UNL     1     149.288 170.205 192.278  0.00  0.00    -0.045 C 
ATOM     85  H   UNL     1     149.685 170.311 193.300  0.00  0.00    +0.027 HD
ATOM     86  H   UNL     1     148.597 169.348 192.334  0.00  0.00    +0.027 HD
BRANCH  84  87
ATOM     87  C   UNL     1     150.497 169.797 191.420  0.00  0.00    -0.015 C 
ATOM     88  H   UNL     1     150.222 170.122 190.410  0.00  0.00    +0.030 HD
ATOM     89  H   UNL     1     151.369 170.405 191.686  0.00  0.00    +0.030 HD
BRANCH  87  90
ATOM     90  C   UNL     1     150.927 168.312 191.342  0.00  0.00    +0.109 C 
ATOM     91  H   UNL     1     150.114 167.767 190.846  0.00  0.00    +0.074 HD
BRANCH  90  92
ATOM     92  C   UNL     1     151.178 167.717 192.775  0.00  0.00    +0.031 C 
ATOM     93  H   UNL     1     151.082 168.541 193.492  0.00  0.00    +0.037 HD
BRANCH  92  94
ATOM     94  C   UNL     1     152.631 167.240 192.959  0.00  0.00    -0.056 C 
ATOM     95  H   UNL     1     152.720 166.163 192.807  0.00  0.00    +0.023 HD
ATOM     96  H   UNL     1     153.015 167.494 193.951  0.00  0.00    +0.023 HD
ATOM     97  H   UNL     1     153.291 167.705 192.215  0.00  0.00    +0.023 HD
ENDBRANCH  92  94
BRANCH  92  98
ATOM     98  C   UNL     1     150.241 166.541 193.206  0.00  0.00    +0.115 C 
ATOM     99  H   UNL     1     150.793 165.900 193.909  0.00  0.00    +0.074 HD
BRANCH  98 100
ATOM    100  C   UNL     1     148.952 166.950 193.979  0.00  0.00    +0.013 C 
ATOM    101  H   UNL     1     149.073 167.950 194.402  0.00  0.00    +0.038 HD
BRANCH 100 102
ATOM    102  C   UNL     1     148.635 165.976 195.123  0.00  0.00    -0.056 C 
ATOM    103  H   UNL     1     149.255 166.177 196.008  0.00  0.00    +0.024 HD
ATOM    104  H   UNL     1     147.582 166.050 195.432  0.00  0.00    +0.024 HD
ATOM    105  H   UNL     1     148.827 164.940 194.829  0.00  0.00    +0.024 HD
ENDBRANCH 100 102
BRANCH 100 106
ATOM    106  C   UNL     1     147.748 166.985 193.051  0.00  0.00    -0.064 C 
ATOM    107  C   UNL     1     146.630 166.277 193.266  0.00  0.00    -0.005 C 
ATOM    108  H   UNL     1     147.848 167.617 192.171  0.00  0.00    +0.059 HD
ATOM    109  H   UNL     1     146.591 165.631 194.143  0.00  0.00    +0.078 HD
BRANCH 107 110
ATOM    110  N   UNL     1     145.492 166.238 192.477  0.00  0.00    -0.284 N 
ATOM    111  C   UNL     1     144.203 166.565 192.901  0.00  0.00    +0.206 C 
ATOM    112  O   UNL     1     143.827 166.941 194.006  0.00  0.00    -0.279 OA
ATOM    113  H   UNL     1     143.461 166.445 192.094  0.00  0.00    +0.126 HD
BRANCH 110 114
ATOM    114  C   UNL     1     145.669 165.816 191.089  0.00  0.00    +0.007 C 
ATOM    115  H   UNL     1     146.570 166.293 190.685  0.00  0.00    +0.043 HD
ATOM    116  H   UNL     1     144.817 166.103 190.464  0.00  0.00    +0.043 HD
ATOM    117  H   UNL     1     145.781 164.729 191.054  0.00  0.00    +0.043 HD
ENDBRANCH 110 114
ENDBRANCH 107 110
ENDBRANCH 100 106
ENDBRANCH  98 100
BRANCH  98 118
ATOM    118  O   UNL     1     149.855 165.769 192.045  0.00  0.00    -0.461 OA
BRANCH 118 119
ATOM    119  C   UNL     1     150.256 164.465 192.027  0.00  0.00    +0.304 C 
ATOM    120  O   UNL     1     151.397 164.067 191.843  0.00  0.00    -0.251 OA
BRANCH 119 121
ATOM    121  C   UNL     1     149.083 163.555 192.232  0.00  0.00    +0.033 C 
ATOM    122  H   UNL     1     149.434 162.588 192.598  0.00  0.00    +0.034 HD
ATOM    123  H   UNL     1     148.533 163.439 191.294  0.00  0.00    +0.034 HD
ATOM    124  H   UNL     1     148.403 163.999 192.964  0.00  0.00    +0.034 HD
ENDBRANCH 119 121
ENDBRANCH 118 119
ENDBRANCH  98 118
ENDBRANCH  92  98
ENDBRANCH  90  92
BRANCH  90 125
ATOM    125  O   UNL     1     152.128 168.209 190.533  0.00  0.00    -0.459 OA
BRANCH 125 126
ATOM    126  C   UNL     1     152.039 167.420 189.410  0.00  0.00    +0.339 C 
ATOM    127  O   UNL     1     151.029 166.810 189.081  0.00  0.00    -0.248 OA
BRANCH 126 128
ATOM    128  C   UNL     1     153.371 167.316 188.647  0.00  0.00    +0.178 C 
ATOM    129  H   UNL     1     153.835 168.314 188.696  0.00  0.00    +0.074 HD
BRANCH 128 130
ATOM    130  C   UNL     1     154.288 166.323 189.364  0.00  0.00    +0.084 C 
ATOM    131  H   UNL     1     155.317 166.446 189.019  0.00  0.00    +0.059 HD
ATOM    132  H   UNL     1     154.291 166.540 190.439  0.00  0.00    +0.059 HD
BRANCH 130 133
ATOM    133  O   UNL     1     153.858 164.979 189.160  0.00  0.00    -0.380 OA
BRANCH 133 134
ATOM    134  C   UNL     1     154.929 164.142 188.748  0.00  0.00    +0.037 C 
ATOM    135  H   UNL     1     155.882 164.553 189.099  0.00  0.00    +0.052 HD
ATOM    136  H   UNL     1     154.789 163.155 189.196  0.00  0.00    +0.052 HD
ATOM    137  H   UNL     1     154.949 164.036 187.659  0.00  0.00    +0.052 HD
ENDBRANCH 133 134
ENDBRANCH 130 133
ENDBRANCH 128 130
BRANCH 128 138
ATOM    138  O   UNL     1     153.271 166.906 187.281  0.00  0.00    -0.366 OA
BRANCH 138 139
ATOM    139  C   UNL     1     154.393 167.316 186.512  0.00  0.00    +0.038 C 
ATOM    140  H   UNL     1     154.249 168.362 186.227  0.00  0.00    +0.052 HD
ATOM    141  H   UNL     1     154.468 166.718 185.597  0.00  0.00    +0.052 HD
ATOM    142  H   UNL     1     155.318 167.236 187.090  0.00  0.00    +0.052 HD
ENDBRANCH 138 139
ENDBRANCH 128 138
ENDBRANCH 126 128
ENDBRANCH 125 126
ENDBRANCH  90 125
ENDBRANCH  87  90
ENDBRANCH  84  87
ENDBRANCH  78  84
ENDBRANCH  76  78
BRANCH  76 143
ATOM    143  O   UNL     1     146.257 172.334 191.825  0.00  0.00    -0.379 OA
BRANCH 143 144
ATOM    144  C   UNL     1     146.240 173.496 191.005  0.00  0.00    +0.037 C 
ATOM    145  H   UNL     1     146.515 174.357 191.625  0.00  0.00    +0.052 HD
ATOM    146  H   UNL     1     145.250 173.680 190.574  0.00  0.00    +0.052 HD
ATOM    147  H   UNL     1     146.984 173.410 190.210  0.00  0.00    +0.052 HD
ENDBRANCH 143 144
ENDBRANCH  76 143
ENDBRANCH   1  76
TORSDOF 35
ENDMDL
MODEL 5
REMARK VINA RESULT:      -5.4      3.092      8.666
REMARK  Name = Mycalolide B_conf3
REMARK  35 active torsions:
REMARK  status: ('A' for Active; 'I' for Inactive)
REMARK    1  A    between atoms: C_1  and  C_2
REMARK    2  A    between atoms: C_3  and  O_72
REMARK    3  A    between atoms: C_22  and  O_70
REMARK    4  A    between atoms: C_23  and  C_69
REMARK    5  A    between atoms: C_29  and  O_68
REMARK    6  A    between atoms: C_34  and  C_35
REMARK    7  A    between atoms: C_35  and  C_36
REMARK    8  A    between atoms: C_36  and  C_37
REMARK    9  A    between atoms: C_36  and  O_66
REMARK   10  A    between atoms: C_37  and  C_38
REMARK   11  A    between atoms: C_37  and  C_39
REMARK   12  A    between atoms: C_39  and  C_40
REMARK   13  A    between atoms: C_40  and  C_41
REMARK   14  A    between atoms: C_41  and  C_42
REMARK   15  A    between atoms: C_41  and  O_57
REMARK   16  A    between atoms: C_42  and  C_43
REMARK   17  A    between atoms: C_42  and  C_44
REMARK   18  A    between atoms: C_44  and  C_45
REMARK   19  A    between atoms: C_44  and  O_53
REMARK   20  A    between atoms: C_45  and  C_46
REMARK   21  A    between atoms: C_45  and  C_47
REMARK   22  A    between atoms: C_48  and  N_49
REMARK   23  A    between atoms: N_49  and  C_50
REMARK   24  A    between atoms: O_53  and  C_54
REMARK   25  A    between atoms: C_54  and  C_56
REMARK   26  A    between atoms: O_57  and  C_58
REMARK   27  A    between atoms: C_58  and  C_60
REMARK   28  A    between atoms: C_60  and  C_61
REMARK   29  A    between atoms: C_60  and  O_64
REMARK   30  A    between atoms: C_61  and  O_62
REMARK   31  A    between atoms: O_62  and  C_63
REMARK   32  A    between atoms: O_64  and  C_65
REMARK   33  A    between atoms: O_66  and  C_67
REMARK   34  A    between atoms: O_70  and  C_71
REMARK   35  A    between atoms: O_72  and  C_73
REMARK                            x       y       z     vdW  Elec       q    Type
REMARK                         _______ _______ _______ _____ _____    ______ ____
ROOT
ATOM      1  C   UNL     1     147.118 171.769 190.074  0.00  0.00    +0.011 C 
ATOM      2  H   UNL     1     146.738 172.767 190.314  0.00  0.00    +0.033 HD
ATOM      3  H   UNL     1     148.064 171.887 189.534  0.00  0.00    +0.033 HD
ENDROOT
BRANCH   1  36
ATOM      4  C   UNL     1     145.124 171.995 188.427  0.00  0.00    +0.020 C 
ATOM      5  C   UNL     1     144.088 172.690 189.357  0.00  0.00    +0.068 C 
ATOM      6  C   UNL     1     143.289 171.737 190.283  0.00  0.00    -0.008 C 
ATOM      7  C   UNL     1     142.830 170.438 189.680  0.00  0.00    -0.077 C 
ATOM      8  C   UNL     1     141.989 170.305 188.642  0.00  0.00    -0.003 C 
ATOM      9  C   UNL     1     141.656 169.005 188.168  0.00  0.00    +0.220 A 
ATOM     10  N   UNL     1     142.393 167.908 188.316  0.00  0.00    -0.205 NA
ATOM     11  C   UNL     1     141.617 166.882 187.841  0.00  0.00    +0.164 A 
ATOM     12  C   UNL     1     140.439 167.378 187.357  0.00  0.00    +0.125 A 
ATOM     13  O   UNL     1     140.460 168.730 187.514  0.00  0.00    -0.443 OA
ATOM     14  C   UNL     1     142.029 165.385 187.900  0.00  0.00    +0.250 A 
ATOM     15  N   UNL     1     143.231 164.987 188.289  0.00  0.00    -0.203 NA
ATOM     16  C   UNL     1     143.145 163.618 188.300  0.00  0.00    +0.164 A 
ATOM     17  C   UNL     1     141.907 163.226 187.871  0.00  0.00    +0.125 A 
ATOM     18  O   UNL     1     141.184 164.346 187.587  0.00  0.00    -0.442 OA
ATOM     19  C   UNL     1     144.299 162.659 188.721  0.00  0.00    +0.249 A 
ATOM     20  N   UNL     1     145.521 163.076 189.004  0.00  0.00    -0.210 NA
ATOM     21  C   UNL     1     146.241 161.924 189.239  0.00  0.00    +0.109 A 
ATOM     22  C   UNL     1     145.392 160.848 189.168  0.00  0.00    +0.118 A 
ATOM     23  O   UNL     1     144.160 161.292 188.791  0.00  0.00    -0.442 OA
ATOM     24  C   UNL     1     147.716 161.964 189.519  0.00  0.00    +0.113 C 
ATOM     25  C   UNL     1     148.599 161.854 188.258  0.00  0.00    +0.051 C 
ATOM     26  C   UNL     1     148.867 163.219 187.647  0.00  0.00    +0.161 C 
ATOM     27  O   UNL     1     149.983 163.733 187.744  0.00  0.00    -0.292 OA
ATOM     28  C   UNL     1     147.759 163.943 186.961  0.00  0.00    -0.023 C 
ATOM     29  C   UNL     1     147.917 165.217 186.567  0.00  0.00    -0.078 C 
ATOM     30  C   UNL     1     146.804 166.052 186.000  0.00  0.00    -0.008 C 
ATOM     31  C   UNL     1     146.364 167.168 186.961  0.00  0.00    +0.069 C 
ATOM     32  C   UNL     1     147.408 168.275 187.093  0.00  0.00    +0.071 C 
ATOM     33  C   UNL     1     147.130 169.026 188.362  0.00  0.00    +0.310 C 
ATOM     34  O   UNL     1     147.165 168.499 189.466  0.00  0.00    -0.251 OA
ATOM     35  O   UNL     1     146.805 170.319 188.112  0.00  0.00    -0.461 OA
ATOM     36  C   UNL     1     146.108 171.043 189.161  0.00  0.00    +0.110 C 
ATOM     37  H   UNL     1     144.567 171.396 187.689  0.00  0.00    +0.036 HD
ATOM     38  H   UNL     1     144.618 173.413 189.989  0.00  0.00    +0.060 HD
ATOM     39  H   UNL     1     143.918 171.493 191.144  0.00  0.00    +0.033 HD
ATOM     40  H   UNL     1     142.411 172.247 190.695  0.00  0.00    +0.033 HD
ATOM     41  H   UNL     1     143.244 169.539 190.145  0.00  0.00    +0.057 HD
ATOM     42  H   UNL     1     141.535 171.163 188.164  0.00  0.00    +0.067 HD
ATOM     43  H   UNL     1     139.557 166.960 186.896  0.00  0.00    +0.105 HD
ATOM     44  H   UNL     1     141.409 162.274 187.726  0.00  0.00    +0.105 HD
ATOM     45  H   UNL     1     145.513 159.780 189.289  0.00  0.00    +0.105 HD
ATOM     46  H   UNL     1     147.911 162.923 190.018  0.00  0.00    +0.067 HD
ATOM     47  H   UNL     1     149.588 161.499 188.585  0.00  0.00    +0.041 HD
ATOM     48  H   UNL     1     146.807 163.439 186.855  0.00  0.00    +0.065 HD
ATOM     49  H   UNL     1     148.886 165.697 186.690  0.00  0.00    +0.057 HD
ATOM     50  H   UNL     1     147.118 166.480 185.041  0.00  0.00    +0.033 HD
ATOM     51  H   UNL     1     145.934 165.423 185.768  0.00  0.00    +0.033 HD
ATOM     52  H   UNL     1     146.125 166.729 187.938  0.00  0.00    +0.060 HD
ATOM     53  H   UNL     1     148.433 167.894 187.184  0.00  0.00    +0.040 HD
ATOM     54  H   UNL     1     147.383 168.960 186.235  0.00  0.00    +0.040 HD
ATOM     55  H   UNL     1     145.511 170.321 189.720  0.00  0.00    +0.074 HD
BRANCH   4  56
ATOM     56  C   UNL     1     145.879 173.035 187.577  0.00  0.00    -0.057 C 
ATOM     57  H   UNL     1     145.444 174.031 187.696  0.00  0.00    +0.023 HD
ATOM     58  H   UNL     1     145.850 172.777 186.517  0.00  0.00    +0.023 HD
ATOM     59  H   UNL     1     146.929 173.107 187.878  0.00  0.00    +0.023 HD
ENDBRANCH   4  56
BRANCH  25  60
ATOM     60  C   UNL     1     148.148 160.830 187.217  0.00  0.00    -0.053 C 
ATOM     61  H   UNL     1     148.653 159.864 187.326  0.00  0.00    +0.024 HD
ATOM     62  H   UNL     1     148.326 161.204 186.203  0.00  0.00    +0.024 HD
ATOM     63  H   UNL     1     147.072 160.640 187.322  0.00  0.00    +0.024 HD
ENDBRANCH  25  60
BRANCH  31  64
ATOM     64  O   UNL     1     145.163 167.755 186.451  0.00  0.00    -0.391 OA
ATOM     65  H   UNL     1     145.425 168.581 185.991  0.00  0.00    +0.210 HD
ENDBRANCH  31  64
BRANCH  24  66
ATOM     66  O   UNL     1     148.064 160.894 190.420  0.00  0.00    -0.373 OA
BRANCH  66  67
ATOM     67  C   UNL     1     149.358 160.366 190.151  0.00  0.00    +0.037 C 
ATOM     68  H   UNL     1     150.140 161.035 190.524  0.00  0.00    +0.052 HD
ATOM     69  H   UNL     1     149.468 159.374 190.602  0.00  0.00    +0.052 HD
ATOM     70  H   UNL     1     149.471 160.270 189.068  0.00  0.00    +0.052 HD
ENDBRANCH  66  67
ENDBRANCH  24  66
BRANCH   5  71
ATOM     71  O   UNL     1     143.162 173.419 188.522  0.00  0.00    -0.379 OA
BRANCH  71  72
ATOM     72  C   UNL     1     142.294 174.261 189.270  0.00  0.00    +0.037 C 
ATOM     73  H   UNL     1     142.593 174.315 190.321  0.00  0.00    +0.052 HD
ATOM     74  H   UNL     1     141.284 173.839 189.216  0.00  0.00    +0.052 HD
ATOM     75  H   UNL     1     142.273 175.265 188.834  0.00  0.00    +0.052 HD
ENDBRANCH  71  72
ENDBRANCH   5  71
ENDBRANCH   1  36
BRANCH   1  76
ATOM     76  C   UNL     1     147.373 171.056 191.413  0.00  0.00    +0.064 C 
ATOM     77  H   UNL     1     146.622 170.275 191.567  0.00  0.00    +0.060 HD
BRANCH  76  78
ATOM     78  C   UNL     1     148.790 170.426 191.511  0.00  0.00    -0.017 C 
ATOM     79  H   UNL     1     149.159 170.296 190.493  0.00  0.00    +0.032 HD
BRANCH  78  80
ATOM     80  C   UNL     1     149.734 171.437 192.206  0.00  0.00    -0.060 C 
ATOM     81  H   UNL     1     150.702 170.975 192.435  0.00  0.00    +0.023 HD
ATOM     82  H   UNL     1     149.940 172.299 191.565  0.00  0.00    +0.023 HD
ATOM     83  H   UNL     1     149.300 171.796 193.144  0.00  0.00    +0.023 HD
ENDBRANCH  78  80
BRANCH  78  84
ATOM     84  C   UNL     1     148.911 169.102 192.284  0.00  0.00    -0.045 C 
ATOM     85  H   UNL     1     148.515 169.258 193.300  0.00  0.00    +0.027 HD
ATOM     86  H   UNL     1     148.235 168.358 191.831  0.00  0.00    +0.027 HD
BRANCH  84  87
ATOM     87  C   UNL     1     150.287 168.445 192.487  0.00  0.00    -0.015 C 
ATOM     88  H   UNL     1     150.789 168.587 191.523  0.00  0.00    +0.030 HD
ATOM     89  H   UNL     1     150.878 169.026 193.203  0.00  0.00    +0.030 HD
BRANCH  87  90
ATOM     90  C   UNL     1     150.383 166.946 192.860  0.00  0.00    +0.109 C 
ATOM     91  H   UNL     1     150.406 166.888 193.955  0.00  0.00    +0.074 HD
BRANCH  90  92
ATOM     92  C   UNL     1     151.680 166.293 192.259  0.00  0.00    +0.031 C 
ATOM     93  H   UNL     1     151.984 165.486 192.938  0.00  0.00    +0.037 HD
BRANCH  92  94
ATOM     94  C   UNL     1     152.880 167.259 192.280  0.00  0.00    -0.056 C 
ATOM     95  H   UNL     1     153.187 167.536 191.271  0.00  0.00    +0.023 HD
ATOM     96  H   UNL     1     153.734 166.827 192.807  0.00  0.00    +0.023 HD
ATOM     97  H   UNL     1     152.615 168.198 192.784  0.00  0.00    +0.023 HD
ENDBRANCH  92  94
BRANCH  92  98
ATOM     98  C   UNL     1     151.558 165.730 190.805  0.00  0.00    +0.115 C 
ATOM     99  H   UNL     1     150.505 165.469 190.623  0.00  0.00    +0.074 HD
BRANCH  98 100
ATOM    100  C   UNL     1     151.916 166.726 189.661  0.00  0.00    +0.013 C 
ATOM    101  H   UNL     1     152.290 167.660 190.084  0.00  0.00    +0.038 HD
BRANCH 100 102
ATOM    102  C   UNL     1     150.702 167.046 188.777  0.00  0.00    -0.056 C 
ATOM    103  H   UNL     1     150.316 168.056 188.972  0.00  0.00    +0.024 HD
ATOM    104  H   UNL     1     150.959 166.990 187.708  0.00  0.00    +0.024 HD
ATOM    105  H   UNL     1     149.880 166.349 188.961  0.00  0.00    +0.024 HD
ENDBRANCH 100 102
BRANCH 100 106
ATOM    106  C   UNL     1     153.006 166.157 188.765  0.00  0.00    -0.064 C 
ATOM    107  C   UNL     1     154.239 166.677 188.683  0.00  0.00    -0.005 C 
ATOM    108  H   UNL     1     152.723 165.295 188.165  0.00  0.00    +0.059 HD
ATOM    109  H   UNL     1     154.465 167.562 189.277  0.00  0.00    +0.078 HD
BRANCH 107 110
ATOM    110  N   UNL     1     155.290 166.235 187.895  0.00  0.00    -0.284 N 
ATOM    111  C   UNL     1     155.425 166.468 186.525  0.00  0.00    +0.206 C 
ATOM    112  O   UNL     1     154.682 167.087 185.771  0.00  0.00    -0.279 OA
ATOM    113  H   UNL     1     156.339 166.005 186.117  0.00  0.00    +0.126 HD
BRANCH 110 114
ATOM    114  C   UNL     1     156.332 165.460 188.563  0.00  0.00    +0.007 C 
ATOM    115  H   UNL     1     157.257 165.529 187.979  0.00  0.00    +0.043 HD
ATOM    116  H   UNL     1     156.060 164.403 188.653  0.00  0.00    +0.043 HD
ATOM    117  H   UNL     1     156.498 165.866 189.565  0.00  0.00    +0.043 HD
ENDBRANCH 110 114
ENDBRANCH 107 110
ENDBRANCH 100 106
ENDBRANCH  98 100
BRANCH  98 118
ATOM    118  O   UNL     1     152.383 164.550 190.662  0.00  0.00    -0.461 OA
BRANCH 118 119
ATOM    119  C   UNL     1     151.745 163.350 190.775  0.00  0.00    +0.304 C 
ATOM    120  O   UNL     1     150.569 163.187 191.068  0.00  0.00    -0.251 OA
BRANCH 119 121
ATOM    121  C   UNL     1     152.700 162.224 190.522  0.00  0.00    +0.033 C 
ATOM    122  H   UNL     1     152.712 161.992 189.455  0.00  0.00    +0.034 HD
ATOM    123  H   UNL     1     152.408 161.348 191.107  0.00  0.00    +0.034 HD
ATOM    124  H   UNL     1     153.703 162.520 190.842  0.00  0.00    +0.034 HD
ENDBRANCH 119 121
ENDBRANCH 118 119
ENDBRANCH  98 118
ENDBRANCH  92  98
ENDBRANCH  90  92
BRANCH  90 125
ATOM    125  O   UNL     1     149.200 166.260 192.374  0.00  0.00    -0.459 OA
BRANCH 125 126
ATOM    126  C   UNL     1     148.575 165.420 193.266  0.00  0.00    +0.339 C 
ATOM    127  O   UNL     1     148.701 164.202 193.261  0.00  0.00    -0.248 OA
BRANCH 126 128
ATOM    128  C   UNL     1     147.632 166.164 194.227  0.00  0.00    +0.178 C 
ATOM    129  H   UNL     1     147.935 167.223 194.201  0.00  0.00    +0.074 HD
BRANCH 128 130
ATOM    130  C   UNL     1     146.196 166.060 193.708  0.00  0.00    +0.084 C 
ATOM    131  H   UNL     1     145.975 165.030 193.420  0.00  0.00    +0.059 HD
ATOM    132  H   UNL     1     145.498 166.316 194.514  0.00  0.00    +0.059 HD
BRANCH 130 133
ATOM    133  O   UNL     1     145.978 166.937 192.605  0.00  0.00    -0.380 OA
BRANCH 133 134
ATOM    134  C   UNL     1     144.735 166.679 191.967  0.00  0.00    +0.037 C 
ATOM    135  H   UNL     1     144.906 166.225 190.985  0.00  0.00    +0.052 HD
ATOM    136  H   UNL     1     144.170 165.974 192.584  0.00  0.00    +0.052 HD
ATOM    137  H   UNL     1     144.151 167.598 191.856  0.00  0.00    +0.052 HD
ENDBRANCH 133 134
ENDBRANCH 130 133
ENDBRANCH 128 130
BRANCH 128 138
ATOM    138  O   UNL     1     147.638 165.703 195.581  0.00  0.00    -0.366 OA
BRANCH 138 139
ATOM    139  C   UNL     1     148.814 166.090 196.277  0.00  0.00    +0.038 C 
ATOM    140  H   UNL     1     148.661 167.098 196.673  0.00  0.00    +0.052 HD
ATOM    141  H   UNL     1     149.671 166.115 195.596  0.00  0.00    +0.052 HD
ATOM    142  H   UNL     1     149.017 165.415 197.113  0.00  0.00    +0.052 HD
ENDBRANCH 138 139
ENDBRANCH 128 138
ENDBRANCH 126 128
ENDBRANCH 125 126
ENDBRANCH  90 125
ENDBRANCH  87  90
ENDBRANCH  84  87
ENDBRANCH  78  84
ENDBRANCH  76  78
BRANCH  76 143
ATOM    143  O   UNL     1     147.310 172.057 192.447  0.00  0.00    -0.379 OA
BRANCH 143 144
ATOM    144  C   UNL     1     146.335 173.066 192.214  0.00  0.00    +0.037 C 
ATOM    145  H   UNL     1     146.858 174.010 192.025  0.00  0.00    +0.052 HD
ATOM    146  H   UNL     1     145.672 173.203 193.075  0.00  0.00    +0.052 HD
ATOM    147  H   UNL     1     145.748 172.830 191.324  0.00  0.00    +0.052 HD
ENDBRANCH 143 144
ENDBRANCH  76 143
ENDBRANCH   1  76
TORSDOF 35
ENDMDL
MODEL 6
REMARK VINA RESULT:      -5.4      3.082      9.336
REMARK  Name = Mycalolide B_conf3
REMARK  35 active torsions:
REMARK  status: ('A' for Active; 'I' for Inactive)
REMARK    1  A    between atoms: C_1  and  C_2
REMARK    2  A    between atoms: C_3  and  O_72
REMARK    3  A    between atoms: C_22  and  O_70
REMARK    4  A    between atoms: C_23  and  C_69
REMARK    5  A    between atoms: C_29  and  O_68
REMARK    6  A    between atoms: C_34  and  C_35
REMARK    7  A    between atoms: C_35  and  C_36
REMARK    8  A    between atoms: C_36  and  C_37
REMARK    9  A    between atoms: C_36  and  O_66
REMARK   10  A    between atoms: C_37  and  C_38
REMARK   11  A    between atoms: C_37  and  C_39
REMARK   12  A    between atoms: C_39  and  C_40
REMARK   13  A    between atoms: C_40  and  C_41
REMARK   14  A    between atoms: C_41  and  C_42
REMARK   15  A    between atoms: C_41  and  O_57
REMARK   16  A    between atoms: C_42  and  C_43
REMARK   17  A    between atoms: C_42  and  C_44
REMARK   18  A    between atoms: C_44  and  C_45
REMARK   19  A    between atoms: C_44  and  O_53
REMARK   20  A    between atoms: C_45  and  C_46
REMARK   21  A    between atoms: C_45  and  C_47
REMARK   22  A    between atoms: C_48  and  N_49
REMARK   23  A    between atoms: N_49  and  C_50
REMARK   24  A    between atoms: O_53  and  C_54
REMARK   25  A    between atoms: C_54  and  C_56
REMARK   26  A    between atoms: O_57  and  C_58
REMARK   27  A    between atoms: C_58  and  C_60
REMARK   28  A    between atoms: C_60  and  C_61
REMARK   29  A    between atoms: C_60  and  O_64
REMARK   30  A    between atoms: C_61  and  O_62
REMARK   31  A    between atoms: O_62  and  C_63
REMARK   32  A    between atoms: O_64  and  C_65
REMARK   33  A    between atoms: O_66  and  C_67
REMARK   34  A    between atoms: O_70  and  C_71
REMARK   35  A    between atoms: O_72  and  C_73
REMARK                            x       y       z     vdW  Elec       q    Type
REMARK                         _______ _______ _______ _____ _____    ______ ____
ROOT
ATOM      1  C   UNL     1     146.698 171.476 189.856  0.00  0.00    +0.011 C 
ATOM      2  H   UNL     1     146.157 172.426 189.916  0.00  0.00    +0.033 HD
ATOM      3  H   UNL     1     147.578 171.628 189.220  0.00  0.00    +0.033 HD
ENDROOT
BRANCH   1  36
ATOM      4  C   UNL     1     144.306 170.848 189.065  0.00  0.00    +0.020 C 
ATOM      5  C   UNL     1     143.540 170.968 190.414  0.00  0.00    +0.068 C 
ATOM      6  C   UNL     1     143.624 169.723 191.334  0.00  0.00    -0.008 C 
ATOM      7  C   UNL     1     143.523 168.380 190.664  0.00  0.00    -0.077 C 
ATOM      8  C   UNL     1     142.470 167.926 189.968  0.00  0.00    -0.003 C 
ATOM      9  C   UNL     1     142.524 166.633 189.373  0.00  0.00    +0.220 A 
ATOM     10  N   UNL     1     143.629 165.978 189.030  0.00  0.00    -0.205 NA
ATOM     11  C   UNL     1     143.208 164.733 188.641  0.00  0.00    +0.164 A 
ATOM     12  C   UNL     1     141.844 164.666 188.699  0.00  0.00    +0.125 A 
ATOM     13  O   UNL     1     141.385 165.877 189.120  0.00  0.00    -0.443 OA
ATOM     14  C   UNL     1     144.169 163.578 188.244  0.00  0.00    +0.250 A 
ATOM     15  N   UNL     1     145.475 163.747 188.111  0.00  0.00    -0.203 NA
ATOM     16  C   UNL     1     145.954 162.484 187.863  0.00  0.00    +0.164 A 
ATOM     17  C   UNL     1     144.916 161.596 187.806  0.00  0.00    +0.125 A 
ATOM     18  O   UNL     1     143.759 162.283 188.025  0.00  0.00    -0.442 OA
ATOM     19  C   UNL     1     147.457 162.129 187.659  0.00  0.00    +0.249 A 
ATOM     20  N   UNL     1     148.415 163.038 187.593  0.00  0.00    -0.210 NA
ATOM     21  C   UNL     1     149.563 162.323 187.325  0.00  0.00    +0.109 A 
ATOM     22  C   UNL     1     149.260 160.985 187.321  0.00  0.00    +0.118 A 
ATOM     23  O   UNL     1     147.915 160.843 187.485  0.00  0.00    -0.442 OA
ATOM     24  C   UNL     1     150.878 163.009 187.091  0.00  0.00    +0.113 C 
ATOM     25  C   UNL     1     151.154 163.356 185.613  0.00  0.00    +0.051 C 
ATOM     26  C   UNL     1     150.591 164.718 185.248  0.00  0.00    +0.161 C 
ATOM     27  O   UNL     1     151.348 165.674 185.067  0.00  0.00    -0.292 OA
ATOM     28  C   UNL     1     149.114 164.895 185.144  0.00  0.00    -0.023 C 
ATOM     29  C   UNL     1     148.582 166.119 184.996  0.00  0.00    -0.078 C 
ATOM     30  C   UNL     1     147.103 166.388 185.027  0.00  0.00    -0.008 C 
ATOM     31  C   UNL     1     146.675 167.150 186.290  0.00  0.00    +0.069 C 
ATOM     32  C   UNL     1     147.150 168.602 186.291  0.00  0.00    +0.071 C 
ATOM     33  C   UNL     1     147.123 169.098 187.707  0.00  0.00    +0.310 C 
ATOM     34  O   UNL     1     147.799 168.601 188.597  0.00  0.00    -0.251 OA
ATOM     35  O   UNL     1     146.240 170.117 187.858  0.00  0.00    -0.461 OA
ATOM     36  C   UNL     1     145.790 170.410 189.207  0.00  0.00    +0.110 C 
ATOM     37  H   UNL     1     143.791 170.092 188.451  0.00  0.00    +0.036 HD
ATOM     38  H   UNL     1     143.941 171.827 190.966  0.00  0.00    +0.060 HD
ATOM     39  H   UNL     1     144.583 169.754 191.861  0.00  0.00    +0.033 HD
ATOM     40  H   UNL     1     142.857 169.769 192.115  0.00  0.00    +0.033 HD
ATOM     41  H   UNL     1     144.407 167.745 190.762  0.00  0.00    +0.057 HD
ATOM     42  H   UNL     1     141.563 168.507 189.862  0.00  0.00    +0.067 HD
ATOM     43  H   UNL     1     141.098 163.916 188.487  0.00  0.00    +0.105 HD
ATOM     44  H   UNL     1     144.825 160.529 187.641  0.00  0.00    +0.105 HD
ATOM     45  H   UNL     1     149.834 160.080 187.168  0.00  0.00    +0.105 HD
ATOM     46  H   UNL     1     150.855 163.933 187.684  0.00  0.00    +0.067 HD
ATOM     47  H   UNL     1     152.243 163.469 185.505  0.00  0.00    +0.041 HD
ATOM     48  H   UNL     1     148.485 164.022 185.263  0.00  0.00    +0.065 HD
ATOM     49  H   UNL     1     149.241 166.977 184.883  0.00  0.00    +0.057 HD
ATOM     50  H   UNL     1     146.813 166.948 184.130  0.00  0.00    +0.033 HD
ATOM     51  H   UNL     1     146.542 165.445 184.975  0.00  0.00    +0.033 HD
ATOM     52  H   UNL     1     147.038 166.613 187.176  0.00  0.00    +0.060 HD
ATOM     53  H   UNL     1     148.186 168.717 185.949  0.00  0.00    +0.040 HD
ATOM     54  H   UNL     1     146.517 169.235 185.655  0.00  0.00    +0.040 HD
ATOM     55  H   UNL     1     145.804 169.476 189.771  0.00  0.00    +0.074 HD
BRANCH   4  56
ATOM     56  C   UNL     1     144.181 172.148 188.248  0.00  0.00    -0.057 C 
ATOM     57  H   UNL     1     143.451 172.037 187.441  0.00  0.00    +0.023 HD
ATOM     58  H   UNL     1     145.137 172.430 187.802  0.00  0.00    +0.023 HD
ATOM     59  H   UNL     1     143.842 172.980 188.873  0.00  0.00    +0.023 HD
ENDBRANCH   4  56
BRANCH  25  60
ATOM     60  C   UNL     1     150.777 162.279 184.596  0.00  0.00    -0.053 C 
ATOM     61  H   UNL     1     149.879 161.721 184.881  0.00  0.00    +0.024 HD
ATOM     62  H   UNL     1     151.600 161.569 184.460  0.00  0.00    +0.024 HD
ATOM     63  H   UNL     1     150.568 162.742 183.622  0.00  0.00    +0.024 HD
ENDBRANCH  25  60
BRANCH  31  64
ATOM     64  O   UNL     1     145.245 167.156 186.351  0.00  0.00    -0.391 OA
ATOM     65  H   UNL     1     144.973 166.273 186.681  0.00  0.00    +0.210 HD
ENDBRANCH  31  64
BRANCH  24  66
ATOM     66  O   UNL     1     151.949 162.174 187.577  0.00  0.00    -0.373 OA
BRANCH  66  67
ATOM     67  C   UNL     1     153.183 162.879 187.655  0.00  0.00    +0.037 C 
ATOM     68  H   UNL     1     153.033 163.951 187.497  0.00  0.00    +0.052 HD
ATOM     69  H   UNL     1     153.661 162.706 188.626  0.00  0.00    +0.052 HD
ATOM     70  H   UNL     1     153.844 162.500 186.870  0.00  0.00    +0.052 HD
ENDBRANCH  66  67
ENDBRANCH  24  66
BRANCH   5  71
ATOM     71  O   UNL     1     142.153 171.236 190.113  0.00  0.00    -0.379 OA
BRANCH  71  72
ATOM     72  C   UNL     1     141.469 171.866 191.190  0.00  0.00    +0.037 C 
ATOM     73  H   UNL     1     142.108 171.960 192.072  0.00  0.00    +0.052 HD
ATOM     74  H   UNL     1     140.604 171.246 191.450  0.00  0.00    +0.052 HD
ATOM     75  H   UNL     1     141.107 172.853 190.883  0.00  0.00    +0.052 HD
ENDBRANCH  71  72
ENDBRANCH   5  71
ENDBRANCH   1  36
BRANCH   1  76
ATOM     76  C   UNL     1     147.146 171.128 191.285  0.00  0.00    +0.064 C 
ATOM     77  H   UNL     1     146.645 170.214 191.619  0.00  0.00    +0.060 HD
BRANCH  76  78
ATOM     78  C   UNL     1     148.683 170.943 191.416  0.00  0.00    -0.017 C 
ATOM     79  H   UNL     1     149.132 171.274 190.480  0.00  0.00    +0.032 HD
BRANCH  78  80
ATOM     80  C   UNL     1     149.203 171.890 192.524  0.00  0.00    -0.060 C 
ATOM     81  H   UNL     1     149.048 172.939 192.246  0.00  0.00    +0.023 HD
ATOM     82  H   UNL     1     148.673 171.733 193.468  0.00  0.00    +0.023 HD
ATOM     83  H   UNL     1     150.273 171.740 192.697  0.00  0.00    +0.023 HD
ENDBRANCH  78  80
BRANCH  78  84
ATOM     84  C   UNL     1     149.187 169.532 191.767  0.00  0.00    -0.045 C 
ATOM     85  H   UNL     1     148.943 169.330 192.821  0.00  0.00    +0.027 HD
ATOM     86  H   UNL     1     148.603 168.790 191.197  0.00  0.00    +0.027 HD
BRANCH  84  87
ATOM     87  C   UNL     1     150.679 169.184 191.627  0.00  0.00    -0.015 C 
ATOM     88  H   UNL     1     150.924 169.490 190.603  0.00  0.00    +0.030 HD
ATOM     89  H   UNL     1     151.278 169.838 192.270  0.00  0.00    +0.030 HD
BRANCH  87  90
ATOM     90  C   UNL     1     151.155 167.724 191.815  0.00  0.00    +0.109 C 
ATOM     91  H   UNL     1     150.404 167.077 191.344  0.00  0.00    +0.074 HD
BRANCH  90  92
ATOM     92  C   UNL     1     151.297 167.363 193.338  0.00  0.00    +0.031 C 
ATOM     93  H   UNL     1     151.165 168.292 193.907  0.00  0.00    +0.037 HD
BRANCH  92  94
ATOM     94  C   UNL     1     152.725 166.913 193.698  0.00  0.00    -0.056 C 
ATOM     95  H   UNL     1     153.028 166.043 193.115  0.00  0.00    +0.023 HD
ATOM     96  H   UNL     1     152.816 166.679 194.762  0.00  0.00    +0.023 HD
ATOM     97  H   UNL     1     153.452 167.702 193.465  0.00  0.00    +0.023 HD
ENDBRANCH  92  94
BRANCH  92  98
ATOM     98  C   UNL     1     150.313 166.277 193.883  0.00  0.00    +0.115 C 
ATOM     99  H   UNL     1     149.587 166.769 194.548  0.00  0.00    +0.074 HD
BRANCH  98 100
ATOM    100  C   UNL     1     149.436 165.558 192.813  0.00  0.00    +0.013 C 
ATOM    101  H   UNL     1     149.425 166.140 191.889  0.00  0.00    +0.038 HD
BRANCH 100 102
ATOM    102  C   UNL     1     147.987 165.375 193.287  0.00  0.00    -0.056 C 
ATOM    103  H   UNL     1     147.374 166.258 193.062  0.00  0.00    +0.024 HD
ATOM    104  H   UNL     1     147.513 164.509 192.800  0.00  0.00    +0.024 HD
ATOM    105  H   UNL     1     147.938 165.220 194.369  0.00  0.00    +0.024 HD
ENDBRANCH 100 102
BRANCH 100 106
ATOM    106  C   UNL     1     149.996 164.183 192.485  0.00  0.00    -0.064 C 
ATOM    107  C   UNL     1     149.598 163.457 191.430  0.00  0.00    -0.005 C 
ATOM    108  H   UNL     1     150.743 163.799 193.176  0.00  0.00    +0.059 HD
ATOM    109  H   UNL     1     148.821 163.869 190.786  0.00  0.00    +0.078 HD
BRANCH 107 110
ATOM    110  N   UNL     1     150.042 162.199 191.057  0.00  0.00    -0.284 N 
ATOM    111  C   UNL     1     149.229 161.081 190.859  0.00  0.00    +0.206 C 
ATOM    112  O   UNL     1     148.011 160.985 190.963  0.00  0.00    -0.279 OA
ATOM    113  H   UNL     1     149.816 160.191 190.578  0.00  0.00    +0.126 HD
BRANCH 110 114
ATOM    114  C   UNL     1     151.481 162.042 190.862  0.00  0.00    +0.007 C 
ATOM    115  H   UNL     1     151.781 161.047 191.214  0.00  0.00    +0.043 HD
ATOM    116  H   UNL     1     152.053 162.791 191.419  0.00  0.00    +0.043 HD
ATOM    117  H   UNL     1     151.714 162.141 189.798  0.00  0.00    +0.043 HD
ENDBRANCH 110 114
ENDBRANCH 107 110
ENDBRANCH 100 106
ENDBRANCH  98 100
BRANCH  98 118
ATOM    118  O   UNL     1     151.047 165.274 194.623  0.00  0.00    -0.461 OA
BRANCH 118 119
ATOM    119  C   UNL     1     150.840 165.246 195.972  0.00  0.00    +0.304 C 
ATOM    120  O   UNL     1     150.438 166.177 196.655  0.00  0.00    -0.251 OA
BRANCH 119 121
ATOM    121  C   UNL     1     151.210 163.906 196.530  0.00  0.00    +0.033 C 
ATOM    122  H   UNL     1     152.287 163.874 196.711  0.00  0.00    +0.034 HD
ATOM    123  H   UNL     1     150.910 163.117 195.835  0.00  0.00    +0.034 HD
ATOM    124  H   UNL     1     150.676 163.744 197.470  0.00  0.00    +0.034 HD
ENDBRANCH 119 121
ENDBRANCH 118 119
ENDBRANCH  98 118
ENDBRANCH  92  98
ENDBRANCH  90  92
BRANCH  90 125
ATOM    125  O   UNL     1     152.424 167.548 191.133  0.00  0.00    -0.459 OA
BRANCH 125 126
ATOM    126  C   UNL     1     152.440 166.639 190.101  0.00  0.00    +0.339 C 
ATOM    127  O   UNL     1     152.699 165.450 190.241  0.00  0.00    -0.248 OA
BRANCH 126 128
ATOM    128  C   UNL     1     152.175 167.287 188.732  0.00  0.00    +0.178 C 
ATOM    129  H   UNL     1     152.444 168.350 188.834  0.00  0.00    +0.074 HD
BRANCH 128 130
ATOM    130  C   UNL     1     153.096 166.654 187.686  0.00  0.00    +0.084 C 
ATOM    131  H   UNL     1     153.107 165.568 187.805  0.00  0.00    +0.059 HD
ATOM    132  H   UNL     1     152.700 166.854 186.683  0.00  0.00    +0.059 HD
BRANCH 130 133
ATOM    133  O   UNL     1     154.420 167.174 187.779  0.00  0.00    -0.380 OA
BRANCH 133 134
ATOM    134  C   UNL     1     155.391 166.138 187.790  0.00  0.00    +0.037 C 
ATOM    135  H   UNL     1     155.936 166.146 188.740  0.00  0.00    +0.052 HD
ATOM    136  H   UNL     1     154.874 165.179 187.693  0.00  0.00    +0.052 HD
ATOM    137  H   UNL     1     156.093 166.246 186.958  0.00  0.00    +0.052 HD
ENDBRANCH 133 134
ENDBRANCH 130 133
ENDBRANCH 128 130
BRANCH 128 138
ATOM    138  O   UNL     1     150.833 167.183 188.247  0.00  0.00    -0.366 OA
BRANCH 138 139
ATOM    139  C   UNL     1     150.158 166.047 188.768  0.00  0.00    +0.038 C 
ATOM    140  H   UNL     1     149.637 166.348 189.682  0.00  0.00    +0.052 HD
ATOM    141  H   UNL     1     150.875 165.260 189.025  0.00  0.00    +0.052 HD
ATOM    142  H   UNL     1     149.420 165.666 188.056  0.00  0.00    +0.052 HD
ENDBRANCH 138 139
ENDBRANCH 128 138
ENDBRANCH 126 128
ENDBRANCH 125 126
ENDBRANCH  90 125
ENDBRANCH  87  90
ENDBRANCH  84  87
ENDBRANCH  78  84
ENDBRANCH  76  78
BRANCH  76 143
ATOM    143  O   UNL     1     146.807 172.249 192.123  0.00  0.00    -0.379 OA
BRANCH 143 144
ATOM    144  C   UNL     1     146.143 173.303 191.436  0.00  0.00    +0.037 C 
ATOM    145  H   UNL     1     145.177 172.925 191.082  0.00  0.00    +0.052 HD
ATOM    146  H   UNL     1     146.716 173.655 190.570  0.00  0.00    +0.052 HD
ATOM    147  H   UNL     1     145.945 174.133 192.116  0.00  0.00    +0.052 HD
ENDBRANCH 143 144
ENDBRANCH  76 143
ENDBRANCH   1  76
TORSDOF 35
ENDMDL
MODEL 7
REMARK VINA RESULT:      -5.2      2.654      8.481
REMARK  Name = Mycalolide B_conf3
REMARK  35 active torsions:
REMARK  status: ('A' for Active; 'I' for Inactive)
REMARK    1  A    between atoms: C_1  and  C_2
REMARK    2  A    between atoms: C_3  and  O_72
REMARK    3  A    between atoms: C_22  and  O_70
REMARK    4  A    between atoms: C_23  and  C_69
REMARK    5  A    between atoms: C_29  and  O_68
REMARK    6  A    between atoms: C_34  and  C_35
REMARK    7  A    between atoms: C_35  and  C_36
REMARK    8  A    between atoms: C_36  and  C_37
REMARK    9  A    between atoms: C_36  and  O_66
REMARK   10  A    between atoms: C_37  and  C_38
REMARK   11  A    between atoms: C_37  and  C_39
REMARK   12  A    between atoms: C_39  and  C_40
REMARK   13  A    between atoms: C_40  and  C_41
REMARK   14  A    between atoms: C_41  and  C_42
REMARK   15  A    between atoms: C_41  and  O_57
REMARK   16  A    between atoms: C_42  and  C_43
REMARK   17  A    between atoms: C_42  and  C_44
REMARK   18  A    between atoms: C_44  and  C_45
REMARK   19  A    between atoms: C_44  and  O_53
REMARK   20  A    between atoms: C_45  and  C_46
REMARK   21  A    between atoms: C_45  and  C_47
REMARK   22  A    between atoms: C_48  and  N_49
REMARK   23  A    between atoms: N_49  and  C_50
REMARK   24  A    between atoms: O_53  and  C_54
REMARK   25  A    between atoms: C_54  and  C_56
REMARK   26  A    between atoms: O_57  and  C_58
REMARK   27  A    between atoms: C_58  and  C_60
REMARK   28  A    between atoms: C_60  and  C_61
REMARK   29  A    between atoms: C_60  and  O_64
REMARK   30  A    between atoms: C_61  and  O_62
REMARK   31  A    between atoms: O_62  and  C_63
REMARK   32  A    between atoms: O_64  and  C_65
REMARK   33  A    between atoms: O_66  and  C_67
REMARK   34  A    between atoms: O_70  and  C_71
REMARK   35  A    between atoms: O_72  and  C_73
REMARK                            x       y       z     vdW  Elec       q    Type
REMARK                         _______ _______ _______ _____ _____    ______ ____
ROOT
ATOM      1  C   UNL     1     146.504 172.137 189.973  0.00  0.00    +0.011 C 
ATOM      2  H   UNL     1     145.992 173.032 190.340  0.00  0.00    +0.033 HD
ATOM      3  H   UNL     1     147.344 172.460 189.348  0.00  0.00    +0.033 HD
ENDROOT
BRANCH   1  36
ATOM      4  C   UNL     1     144.182 172.024 188.817  0.00  0.00    +0.020 C 
ATOM      5  C   UNL     1     143.259 172.189 190.058  0.00  0.00    +0.068 C 
ATOM      6  C   UNL     1     142.988 170.888 190.858  0.00  0.00    -0.008 C 
ATOM      7  C   UNL     1     142.753 169.638 190.054  0.00  0.00    -0.077 C 
ATOM      8  C   UNL     1     141.751 169.439 189.184  0.00  0.00    -0.003 C 
ATOM      9  C   UNL     1     141.665 168.204 188.480  0.00  0.00    +0.220 A 
ATOM     10  N   UNL     1     142.677 167.381 188.224  0.00  0.00    -0.205 NA
ATOM     11  C   UNL     1     142.106 166.266 187.665  0.00  0.00    +0.164 A 
ATOM     12  C   UNL     1     140.759 166.451 187.536  0.00  0.00    +0.125 A 
ATOM     13  O   UNL     1     140.462 167.694 188.007  0.00  0.00    -0.443 OA
ATOM     14  C   UNL     1     142.899 164.984 187.288  0.00  0.00    +0.250 A 
ATOM     15  N   UNL     1     144.220 164.914 187.345  0.00  0.00    -0.203 NA
ATOM     16  C   UNL     1     144.502 163.606 187.043  0.00  0.00    +0.164 A 
ATOM     17  C   UNL     1     143.344 162.933 186.764  0.00  0.00    +0.125 A 
ATOM     18  O   UNL     1     142.306 163.807 186.893  0.00  0.00    -0.442 OA
ATOM     19  C   UNL     1     145.933 162.992 187.005  0.00  0.00    +0.249 A 
ATOM     20  N   UNL     1     147.034 163.709 187.153  0.00  0.00    -0.210 NA
ATOM     21  C   UNL     1     148.066 162.813 186.971  0.00  0.00    +0.109 A 
ATOM     22  C   UNL     1     147.538 161.558 186.798  0.00  0.00    +0.118 A 
ATOM     23  O   UNL     1     146.179 161.659 186.769  0.00  0.00    -0.442 OA
ATOM     24  C   UNL     1     149.501 163.256 186.980  0.00  0.00    +0.113 C 
ATOM     25  C   UNL     1     150.047 163.649 185.591  0.00  0.00    +0.051 C 
ATOM     26  C   UNL     1     149.791 165.115 185.288  0.00  0.00    +0.161 C 
ATOM     27  O   UNL     1     150.722 165.923 185.302  0.00  0.00    -0.292 OA
ATOM     28  C   UNL     1     148.399 165.571 185.008  0.00  0.00    -0.023 C 
ATOM     29  C   UNL     1     148.117 166.880 184.910  0.00  0.00    -0.078 C 
ATOM     30  C   UNL     1     146.720 167.417 184.771  0.00  0.00    -0.008 C 
ATOM     31  C   UNL     1     146.250 168.155 186.035  0.00  0.00    +0.069 C 
ATOM     32  C   UNL     1     146.967 169.488 186.238  0.00  0.00    +0.071 C 
ATOM     33  C   UNL     1     146.818 169.880 187.679  0.00  0.00    +0.310 C 
ATOM     34  O   UNL     1     147.258 169.203 188.599  0.00  0.00    -0.251 OA
ATOM     35  O   UNL     1     146.115 171.032 187.810  0.00  0.00    -0.461 OA
ATOM     36  C   UNL     1     145.529 171.307 189.110  0.00  0.00    +0.110 C 
ATOM     37  H   UNL     1     143.639 171.422 188.070  0.00  0.00    +0.036 HD
ATOM     38  H   UNL     1     143.718 172.917 190.739  0.00  0.00    +0.060 HD
ATOM     39  H   UNL     1     143.849 170.702 191.506  0.00  0.00    +0.033 HD
ATOM     40  H   UNL     1     142.134 171.021 191.532  0.00  0.00    +0.033 HD
ATOM     41  H   UNL     1     143.489 168.844 190.206  0.00  0.00    +0.057 HD
ATOM     42  H   UNL     1     140.985 170.184 189.016  0.00  0.00    +0.067 HD
ATOM     43  H   UNL     1     139.933 165.870 187.156  0.00  0.00    +0.105 HD
ATOM     44  H   UNL     1     143.094 161.916 186.486  0.00  0.00    +0.105 HD
ATOM     45  H   UNL     1     147.961 160.575 186.635  0.00  0.00    +0.105 HD
ATOM     46  H   UNL     1     149.553 164.124 187.651  0.00  0.00    +0.067 HD
ATOM     47  H   UNL     1     151.143 163.565 185.639  0.00  0.00    +0.041 HD
ATOM     48  H   UNL     1     147.617 164.825 184.958  0.00  0.00    +0.065 HD
ATOM     49  H   UNL     1     148.925 167.606 184.967  0.00  0.00    +0.057 HD
ATOM     50  H   UNL     1     146.667 168.084 183.902  0.00  0.00    +0.033 HD
ATOM     51  H   UNL     1     146.016 166.602 184.556  0.00  0.00    +0.033 HD
ATOM     52  H   UNL     1     146.379 167.497 186.905  0.00  0.00    +0.060 HD
ATOM     53  H   UNL     1     148.045 169.432 186.048  0.00  0.00    +0.040 HD
ATOM     54  H   UNL     1     146.554 170.272 185.589  0.00  0.00    +0.040 HD
ATOM     55  H   UNL     1     145.297 170.350 189.578  0.00  0.00    +0.074 HD
BRANCH   4  56
ATOM     56  C   UNL     1     144.408 173.379 188.120  0.00  0.00    -0.057 C 
ATOM     57  H   UNL     1     145.475 173.582 187.992  0.00  0.00    +0.023 HD
ATOM     58  H   UNL     1     143.975 174.198 188.696  0.00  0.00    +0.023 HD
ATOM     59  H   UNL     1     143.958 173.393 187.122  0.00  0.00    +0.023 HD
ENDBRANCH   4  56
BRANCH  25  60
ATOM     60  C   UNL     1     149.642 162.736 184.434  0.00  0.00    -0.053 C 
ATOM     61  H   UNL     1     149.520 163.277 183.490  0.00  0.00    +0.024 HD
ATOM     62  H   UNL     1     148.705 162.216 184.661  0.00  0.00    +0.024 HD
ATOM     63  H   UNL     1     150.417 161.977 184.268  0.00  0.00    +0.024 HD
ENDBRANCH  25  60
BRANCH  31  64
ATOM     64  O   UNL     1     144.850 168.422 185.908  0.00  0.00    -0.391 OA
ATOM     65  H   UNL     1     144.479 168.429 186.816  0.00  0.00    +0.210 HD
ENDBRANCH  31  64
BRANCH  24  66
ATOM     66  O   UNL     1     150.326 162.204 187.520  0.00  0.00    -0.373 OA
BRANCH  66  67
ATOM     67  C   UNL     1     151.710 162.534 187.478  0.00  0.00    +0.037 C 
ATOM     68  H   UNL     1     152.165 162.201 186.540  0.00  0.00    +0.052 HD
ATOM     69  H   UNL     1     151.848 163.615 187.598  0.00  0.00    +0.052 HD
ATOM     70  H   UNL     1     152.209 162.026 188.307  0.00  0.00    +0.052 HD
ENDBRANCH  66  67
ENDBRANCH  24  66
BRANCH   5  71
ATOM     71  O   UNL     1     142.000 172.731 189.605  0.00  0.00    -0.379 OA
BRANCH  71  72
ATOM     72  C   UNL     1     141.125 173.061 190.678  0.00  0.00    +0.037 C 
ATOM     73  H   UNL     1     141.223 174.111 190.968  0.00  0.00    +0.052 HD
ATOM     74  H   UNL     1     141.391 172.435 191.536  0.00  0.00    +0.052 HD
ATOM     75  H   UNL     1     140.088 172.845 190.400  0.00  0.00    +0.052 HD
ENDBRANCH  71  72
ENDBRANCH   5  71
ENDBRANCH   1  36
BRANCH   1  76
ATOM     76  C   UNL     1     147.035 171.389 191.207  0.00  0.00    +0.064 C 
ATOM     77  H   UNL     1     146.463 170.469 191.359  0.00  0.00    +0.060 HD
BRANCH  76  78
ATOM     78  C   UNL     1     148.546 171.039 191.107  0.00  0.00    -0.017 C 
ATOM     79  H   UNL     1     148.853 171.216 190.076  0.00  0.00    +0.032 HD
BRANCH  78  80
ATOM     80  C   UNL     1     149.343 172.029 191.991  0.00  0.00    -0.060 C 
ATOM     81  H   UNL     1     149.411 173.013 191.512  0.00  0.00    +0.023 HD
ATOM     82  H   UNL     1     148.859 172.182 192.959  0.00  0.00    +0.023 HD
ATOM     83  H   UNL     1     150.361 171.665 192.164  0.00  0.00    +0.023 HD
ENDBRANCH  78  80
BRANCH  78  84
ATOM     84  C   UNL     1     148.962 169.623 191.541  0.00  0.00    -0.045 C 
ATOM     85  H   UNL     1     149.542 169.168 190.723  0.00  0.00    +0.027 HD
ATOM     86  H   UNL     1     149.674 169.699 192.380  0.00  0.00    +0.027 HD
BRANCH  84  87
ATOM     87  C   UNL     1     147.895 168.578 191.905  0.00  0.00    -0.015 C 
ATOM     88  H   UNL     1     148.044 168.415 192.979  0.00  0.00    +0.030 HD
ATOM     89  H   UNL     1     146.895 169.017 191.821  0.00  0.00    +0.030 HD
BRANCH  87  90
ATOM     90  C   UNL     1     147.893 167.195 191.209  0.00  0.00    +0.109 C 
ATOM     91  H   UNL     1     147.813 166.438 191.998  0.00  0.00    +0.074 HD
BRANCH  90  92
ATOM     92  C   UNL     1     149.211 166.973 190.382  0.00  0.00    +0.031 C 
ATOM     93  H   UNL     1     149.638 167.962 190.177  0.00  0.00    +0.037 HD
BRANCH  92  94
ATOM     94  C   UNL     1     148.928 166.399 188.980  0.00  0.00    -0.056 C 
ATOM     95  H   UNL     1     148.590 167.175 188.292  0.00  0.00    +0.023 HD
ATOM     96  H   UNL     1     148.180 165.603 189.017  0.00  0.00    +0.023 HD
ATOM     97  H   UNL     1     149.842 165.981 188.539  0.00  0.00    +0.023 HD
ENDBRANCH  92  94
BRANCH  92  98
ATOM     98  C   UNL     1     150.297 166.066 191.048  0.00  0.00    +0.115 C 
ATOM     99  H   UNL     1     150.981 165.712 190.263  0.00  0.00    +0.074 HD
BRANCH  98 100
ATOM    100  C   UNL     1     151.224 166.768 192.086  0.00  0.00    +0.013 C 
ATOM    101  H   UNL     1     150.880 167.789 192.261  0.00  0.00    +0.038 HD
BRANCH 100 102
ATOM    102  C   UNL     1     152.682 166.823 191.609  0.00  0.00    -0.056 C 
ATOM    103  H   UNL     1     153.085 165.817 191.426  0.00  0.00    +0.024 HD
ATOM    104  H   UNL     1     152.776 167.394 190.673  0.00  0.00    +0.024 HD
ATOM    105  H   UNL     1     153.328 167.294 192.355  0.00  0.00    +0.024 HD
ENDBRANCH 100 102
BRANCH 100 106
ATOM    106  C   UNL     1     151.198 166.038 193.420  0.00  0.00    -0.064 C 
ATOM    107  C   UNL     1     150.356 166.351 194.416  0.00  0.00    -0.005 C 
ATOM    108  H   UNL     1     151.928 165.240 193.536  0.00  0.00    +0.059 HD
ATOM    109  H   UNL     1     149.667 167.181 194.265  0.00  0.00    +0.078 HD
BRANCH 107 110
ATOM    110  N   UNL     1     150.266 165.752 195.662  0.00  0.00    -0.284 N 
ATOM    111  C   UNL     1     149.295 166.033 196.625  0.00  0.00    +0.206 C 
ATOM    112  O   UNL     1     148.362 166.827 196.570  0.00  0.00    -0.279 OA
ATOM    113  H   UNL     1     149.439 165.436 197.541  0.00  0.00    +0.126 HD
BRANCH 110 114
ATOM    114  C   UNL     1     151.277 164.747 195.983  0.00  0.00    +0.007 C 
ATOM    115  H   UNL     1     151.061 164.329 196.973  0.00  0.00    +0.043 HD
ATOM    116  H   UNL     1     152.285 165.174 196.001  0.00  0.00    +0.043 HD
ATOM    117  H   UNL     1     151.246 163.951 195.233  0.00  0.00    +0.043 HD
ENDBRANCH 110 114
ENDBRANCH 107 110
ENDBRANCH 100 106
ENDBRANCH  98 100
BRANCH  98 118
ATOM    118  O   UNL     1     149.666 164.932 191.688  0.00  0.00    -0.461 OA
BRANCH 118 119
ATOM    119  C   UNL     1     149.740 163.744 191.022  0.00  0.00    +0.304 C 
ATOM    120  O   UNL     1     148.814 163.177 190.461  0.00  0.00    -0.251 OA
BRANCH 119 121
ATOM    121  C   UNL     1     151.130 163.189 191.098  0.00  0.00    +0.033 C 
ATOM    122  H   UNL     1     151.851 164.004 191.009  0.00  0.00    +0.034 HD
ATOM    123  H   UNL     1     151.280 162.449 190.306  0.00  0.00    +0.034 HD
ATOM    124  H   UNL     1     151.267 162.683 192.057  0.00  0.00    +0.034 HD
ENDBRANCH 119 121
ENDBRANCH 118 119
ENDBRANCH  98 118
ENDBRANCH  92  98
ENDBRANCH  90  92
BRANCH  90 125
ATOM    125  O   UNL     1     146.731 167.102 190.344  0.00  0.00    -0.459 OA
BRANCH 125 126
ATOM    126  C   UNL     1     145.779 166.177 190.702  0.00  0.00    +0.339 C 
ATOM    127  O   UNL     1     145.843 164.986 190.424  0.00  0.00    -0.248 OA
BRANCH 126 128
ATOM    128  C   UNL     1     144.576 166.809 191.424  0.00  0.00    +0.178 C 
ATOM    129  H   UNL     1     144.302 167.706 190.845  0.00  0.00    +0.074 HD
BRANCH 128 130
ATOM    130  C   UNL     1     143.397 165.834 191.390  0.00  0.00    +0.084 C 
ATOM    131  H   UNL     1     143.429 165.239 190.475  0.00  0.00    +0.059 HD
ATOM    132  H   UNL     1     143.483 165.129 192.225  0.00  0.00    +0.059 HD
BRANCH 130 133
ATOM    133  O   UNL     1     142.152 166.522 191.486  0.00  0.00    -0.380 OA
BRANCH 133 134
ATOM    134  C   UNL     1     141.639 166.493 192.811  0.00  0.00    +0.037 C 
ATOM    135  H   UNL     1     140.555 166.647 192.796  0.00  0.00    +0.052 HD
ATOM    136  H   UNL     1     141.846 165.510 193.241  0.00  0.00    +0.052 HD
ATOM    137  H   UNL     1     142.114 167.258 193.434  0.00  0.00    +0.052 HD
ENDBRANCH 133 134
ENDBRANCH 130 133
ENDBRANCH 128 130
BRANCH 128 138
ATOM    138  O   UNL     1     144.796 167.175 192.789  0.00  0.00    -0.366 OA
BRANCH 138 139
ATOM    139  C   UNL     1     145.250 166.083 193.575  0.00  0.00    +0.038 C 
ATOM    140  H   UNL     1     144.383 165.630 194.065  0.00  0.00    +0.052 HD
ATOM    141  H   UNL     1     145.940 166.430 194.351  0.00  0.00    +0.052 HD
ATOM    142  H   UNL     1     145.734 165.324 192.953  0.00  0.00    +0.052 HD
ENDBRANCH 138 139
ENDBRANCH 128 138
ENDBRANCH 126 128
ENDBRANCH 125 126
ENDBRANCH  90 125
ENDBRANCH  87  90
ENDBRANCH  84  87
ENDBRANCH  78  84
ENDBRANCH  76  78
BRANCH  76 143
ATOM    143  O   UNL     1     146.907 172.279 192.332  0.00  0.00    -0.379 OA
BRANCH 143 144
ATOM    144  C   UNL     1     145.917 173.286 192.161  0.00  0.00    +0.037 C 
ATOM    145  H   UNL     1     146.324 174.056 191.496  0.00  0.00    +0.052 HD
ATOM    146  H   UNL     1     145.642 173.758 193.111  0.00  0.00    +0.052 HD
ATOM    147  H   UNL     1     145.030 172.869 191.680  0.00  0.00    +0.052 HD
ENDBRANCH 143 144
ENDBRANCH  76 143
ENDBRANCH   1  76
TORSDOF 35
ENDMDL
MODEL 8
REMARK VINA RESULT:      -5.2      6.144     12.119
REMARK  Name = Mycalolide B_conf3
REMARK  35 active torsions:
REMARK  status: ('A' for Active; 'I' for Inactive)
REMARK    1  A    between atoms: C_1  and  C_2
REMARK    2  A    between atoms: C_3  and  O_72
REMARK    3  A    between atoms: C_22  and  O_70
REMARK    4  A    between atoms: C_23  and  C_69
REMARK    5  A    between atoms: C_29  and  O_68
REMARK    6  A    between atoms: C_34  and  C_35
REMARK    7  A    between atoms: C_35  and  C_36
REMARK    8  A    between atoms: C_36  and  C_37
REMARK    9  A    between atoms: C_36  and  O_66
REMARK   10  A    between atoms: C_37  and  C_38
REMARK   11  A    between atoms: C_37  and  C_39
REMARK   12  A    between atoms: C_39  and  C_40
REMARK   13  A    between atoms: C_40  and  C_41
REMARK   14  A    between atoms: C_41  and  C_42
REMARK   15  A    between atoms: C_41  and  O_57
REMARK   16  A    between atoms: C_42  and  C_43
REMARK   17  A    between atoms: C_42  and  C_44
REMARK   18  A    between atoms: C_44  and  C_45
REMARK   19  A    between atoms: C_44  and  O_53
REMARK   20  A    between atoms: C_45  and  C_46
REMARK   21  A    between atoms: C_45  and  C_47
REMARK   22  A    between atoms: C_48  and  N_49
REMARK   23  A    between atoms: N_49  and  C_50
REMARK   24  A    between atoms: O_53  and  C_54
REMARK   25  A    between atoms: C_54  and  C_56
REMARK   26  A    between atoms: O_57  and  C_58
REMARK   27  A    between atoms: C_58  and  C_60
REMARK   28  A    between atoms: C_60  and  C_61
REMARK   29  A    between atoms: C_60  and  O_64
REMARK   30  A    between atoms: C_61  and  O_62
REMARK   31  A    between atoms: O_62  and  C_63
REMARK   32  A    between atoms: O_64  and  C_65
REMARK   33  A    between atoms: O_66  and  C_67
REMARK   34  A    between atoms: O_70  and  C_71
REMARK   35  A    between atoms: O_72  and  C_73
REMARK                            x       y       z     vdW  Elec       q    Type
REMARK                         _______ _______ _______ _____ _____    ______ ____
ROOT
ATOM      1  C   UNL     1     151.424 164.786 187.775  0.00  0.00    +0.011 C 
ATOM      2  H   UNL     1     151.065 164.058 188.510  0.00  0.00    +0.033 HD
ATOM      3  H   UNL     1     150.691 164.836 186.962  0.00  0.00    +0.033 HD
ENDROOT
BRANCH   1  36
ATOM      4  C   UNL     1     152.998 162.776 187.305  0.00  0.00    +0.020 C 
ATOM      5  C   UNL     1     153.202 162.252 188.755  0.00  0.00    +0.068 C 
ATOM      6  C   UNL     1     154.293 162.988 189.576  0.00  0.00    -0.008 C 
ATOM      7  C   UNL     1     155.559 163.346 188.846  0.00  0.00    -0.077 C 
ATOM      8  C   UNL     1     156.415 162.479 188.284  0.00  0.00    -0.003 C 
ATOM      9  C   UNL     1     157.570 162.968 187.610  0.00  0.00    +0.220 A 
ATOM     10  N   UNL     1     157.705 164.175 187.071  0.00  0.00    -0.205 NA
ATOM     11  C   UNL     1     159.015 164.251 186.671  0.00  0.00    +0.164 A 
ATOM     12  C   UNL     1     159.645 163.064 186.923  0.00  0.00    +0.125 A 
ATOM     13  O   UNL     1     158.734 162.219 187.480  0.00  0.00    -0.443 OA
ATOM     14  C   UNL     1     159.665 165.526 186.068  0.00  0.00    +0.250 A 
ATOM     15  N   UNL     1     158.967 166.608 185.756  0.00  0.00    -0.203 NA
ATOM     16  C   UNL     1     159.915 167.520 185.365  0.00  0.00    +0.164 A 
ATOM     17  C   UNL     1     161.156 166.947 185.405  0.00  0.00    +0.125 A 
ATOM     18  O   UNL     1     161.014 165.659 185.832  0.00  0.00    -0.442 OA
ATOM     19  C   UNL     1     159.611 168.982 184.922  0.00  0.00    +0.249 A 
ATOM     20  N   UNL     1     158.385 169.455 184.773  0.00  0.00    -0.210 NA
ATOM     21  C   UNL     1     158.557 170.737 184.297  0.00  0.00    +0.109 A 
ATOM     22  C   UNL     1     159.899 171.018 184.255  0.00  0.00    +0.118 A 
ATOM     23  O   UNL     1     160.589 169.896 184.604  0.00  0.00    -0.442 OA
ATOM     24  C   UNL     1     157.386 171.596 183.917  0.00  0.00    +0.113 C 
ATOM     25  C   UNL     1     156.963 171.467 182.438  0.00  0.00    +0.051 C 
ATOM     26  C   UNL     1     155.962 170.341 182.243  0.00  0.00    +0.161 C 
ATOM     27  O   UNL     1     154.778 170.597 182.013  0.00  0.00    -0.292 OA
ATOM     28  C   UNL     1     156.419 168.927 182.367  0.00  0.00    -0.023 C 
ATOM     29  C   UNL     1     155.530 167.921 182.373  0.00  0.00    -0.078 C 
ATOM     30  C   UNL     1     155.903 166.488 182.635  0.00  0.00    -0.008 C 
ATOM     31  C   UNL     1     155.383 165.989 183.993  0.00  0.00    +0.069 C 
ATOM     32  C   UNL     1     153.865 165.816 184.012  0.00  0.00    +0.071 C 
ATOM     33  C   UNL     1     153.418 165.810 185.446  0.00  0.00    +0.310 C 
ATOM     34  O   UNL     1     153.583 166.762 186.195  0.00  0.00    -0.251 OA
ATOM     35  O   UNL     1     152.861 164.621 185.786  0.00  0.00    -0.461 OA
ATOM     36  C   UNL     1     152.776 164.310 187.202  0.00  0.00    +0.110 C 
ATOM     37  H   UNL     1     153.903 162.529 186.727  0.00  0.00    +0.036 HD
ATOM     38  H   UNL     1     152.251 162.344 189.295  0.00  0.00    +0.060 HD
ATOM     39  H   UNL     1     153.862 163.917 189.958  0.00  0.00    +0.033 HD
ATOM     40  H   UNL     1     154.567 162.404 190.462  0.00  0.00    +0.033 HD
ATOM     41  H   UNL     1     155.766 164.417 188.775  0.00  0.00    +0.057 HD
ATOM     42  H   UNL     1     156.267 161.409 188.348  0.00  0.00    +0.067 HD
ATOM     43  H   UNL     1     160.639 162.672 186.776  0.00  0.00    +0.105 HD
ATOM     44  H   UNL     1     162.164 167.280 185.190  0.00  0.00    +0.105 HD
ATOM     45  H   UNL     1     160.482 171.882 183.965  0.00  0.00    +0.105 HD
ATOM     46  H   UNL     1     156.552 171.287 184.562  0.00  0.00    +0.067 HD
ATOM     47  H   UNL     1     156.405 172.380 182.179  0.00  0.00    +0.041 HD
ATOM     48  H   UNL     1     157.474 168.742 182.522  0.00  0.00    +0.065 HD
ATOM     49  H   UNL     1     154.475 168.139 182.218  0.00  0.00    +0.057 HD
ATOM     50  H   UNL     1     155.520 165.855 181.826  0.00  0.00    +0.033 HD
ATOM     51  H   UNL     1     156.994 166.367 182.609  0.00  0.00    +0.033 HD
ATOM     52  H   UNL     1     155.715 166.677 184.781  0.00  0.00    +0.060 HD
ATOM     53  H   UNL     1     153.330 166.643 183.531  0.00  0.00    +0.040 HD
ATOM     54  H   UNL     1     153.558 164.886 183.517  0.00  0.00    +0.040 HD
ATOM     55  H   UNL     1     153.615 164.798 187.699  0.00  0.00    +0.074 HD
BRANCH   4  56
ATOM     56  C   UNL     1     151.873 161.997 186.596  0.00  0.00    -0.057 C 
ATOM     57  H   UNL     1     152.156 161.744 185.570  0.00  0.00    +0.023 HD
ATOM     58  H   UNL     1     150.951 162.580 186.558  0.00  0.00    +0.023 HD
ATOM     59  H   UNL     1     151.657 161.055 187.109  0.00  0.00    +0.023 HD
ENDBRANCH   4  56
BRANCH  25  60
ATOM     60  C   UNL     1     158.104 171.413 181.423  0.00  0.00    -0.053 C 
ATOM     61  H   UNL     1     158.069 172.236 180.701  0.00  0.00    +0.024 HD
ATOM     62  H   UNL     1     158.088 170.466 180.872  0.00  0.00    +0.024 HD
ATOM     63  H   UNL     1     159.069 171.485 181.941  0.00  0.00    +0.024 HD
ENDBRANCH  25  60
BRANCH  31  64
ATOM     64  O   UNL     1     155.975 164.714 184.262  0.00  0.00    -0.391 OA
ATOM     65  H   UNL     1     156.893 164.751 183.918  0.00  0.00    +0.210 HD
ENDBRANCH  31  64
BRANCH  24  66
ATOM     66  O   UNL     1     157.694 172.978 184.189  0.00  0.00    -0.373 OA
BRANCH  66  67
ATOM     67  C   UNL     1     156.604 173.841 183.881  0.00  0.00    +0.037 C 
ATOM     68  H   UNL     1     156.743 174.826 184.336  0.00  0.00    +0.052 HD
ATOM     69  H   UNL     1     156.492 173.942 182.796  0.00  0.00    +0.052 HD
ATOM     70  H   UNL     1     155.690 173.397 184.285  0.00  0.00    +0.052 HD
ENDBRANCH  66  67
ENDBRANCH  24  66
BRANCH   5  71
ATOM     71  O   UNL     1     153.539 160.850 188.677  0.00  0.00    -0.379 OA
BRANCH  71  72
ATOM     72  C   UNL     1     152.974 160.089 189.738  0.00  0.00    +0.037 C 
ATOM     73  H   UNL     1     152.009 160.495 190.055  0.00  0.00    +0.052 HD
ATOM     74  H   UNL     1     153.664 160.127 190.587  0.00  0.00    +0.052 HD
ATOM     75  H   UNL     1     152.858 159.043 189.433  0.00  0.00    +0.052 HD
ENDBRANCH  71  72
ENDBRANCH   5  71
ENDBRANCH   1  36
BRANCH   1  76
ATOM     76  C   UNL     1     151.495 166.144 188.492  0.00  0.00    +0.064 C 
ATOM     77  H   UNL     1     152.156 166.821 187.942  0.00  0.00    +0.060 HD
BRANCH  76  78
ATOM     78  C   UNL     1     150.106 166.819 188.665  0.00  0.00    -0.017 C 
ATOM     79  H   UNL     1     150.202 167.851 188.328  0.00  0.00    +0.032 HD
BRANCH  78  80
ATOM     80  C   UNL     1     149.098 166.127 187.716  0.00  0.00    -0.060 C 
ATOM     81  H   UNL     1     149.614 165.671 186.863  0.00  0.00    +0.023 HD
ATOM     82  H   UNL     1     148.555 165.324 188.223  0.00  0.00    +0.023 HD
ATOM     83  H   UNL     1     148.371 166.847 187.326  0.00  0.00    +0.023 HD
ENDBRANCH  78  80
BRANCH  78  84
ATOM     84  C   UNL     1     149.486 166.784 190.072  0.00  0.00    -0.045 C 
ATOM     85  H   UNL     1     148.398 166.643 189.967  0.00  0.00    +0.027 HD
ATOM     86  H   UNL     1     149.835 165.879 190.597  0.00  0.00    +0.027 HD
BRANCH  84  87
ATOM     87  C   UNL     1     149.645 167.984 191.021  0.00  0.00    -0.015 C 
ATOM     88  H   UNL     1     150.727 168.047 191.183  0.00  0.00    +0.030 HD
ATOM     89  H   UNL     1     149.381 168.911 190.500  0.00  0.00    +0.030 HD
BRANCH  87  90
ATOM     90  C   UNL     1     148.954 167.975 192.406  0.00  0.00    +0.109 C 
ATOM     91  H   UNL     1     149.733 168.165 193.155  0.00  0.00    +0.074 HD
BRANCH  90  92
ATOM     92  C   UNL     1     148.263 166.592 192.688  0.00  0.00    +0.031 C 
ATOM     93  H   UNL     1     148.226 166.046 191.737  0.00  0.00    +0.037 HD
BRANCH  92  94
ATOM     94  C   UNL     1     146.781 166.752 193.076  0.00  0.00    -0.056 C 
ATOM     95  H   UNL     1     146.271 165.788 193.113  0.00  0.00    +0.023 HD
ATOM     96  H   UNL     1     146.253 167.409 192.380  0.00  0.00    +0.023 HD
ATOM     97  H   UNL     1     146.686 167.183 194.081  0.00  0.00    +0.023 HD
ENDBRANCH  92  94
BRANCH  92  98
ATOM     98  C   UNL     1     148.937 165.694 193.777  0.00  0.00    +0.115 C 
ATOM     99  H   UNL     1     148.146 165.265 194.410  0.00  0.00    +0.074 HD
BRANCH  98 100
ATOM    100  C   UNL     1     149.724 164.459 193.246  0.00  0.00    +0.013 C 
ATOM    101  H   UNL     1     149.811 163.706 194.033  0.00  0.00    +0.038 HD
BRANCH 100 102
ATOM    102  C   UNL     1     151.137 164.835 192.778  0.00  0.00    -0.056 C 
ATOM    103  H   UNL     1     151.419 164.291 191.866  0.00  0.00    +0.024 HD
ATOM    104  H   UNL     1     151.213 165.911 192.559  0.00  0.00    +0.024 HD
ATOM    105  H   UNL     1     151.886 164.594 193.537  0.00  0.00    +0.024 HD
ENDBRANCH 100 102
BRANCH 100 106
ATOM    106  C   UNL     1     149.001 163.816 192.072  0.00  0.00    -0.064 C 
ATOM    107  C   UNL     1     149.512 162.804 191.356  0.00  0.00    -0.005 C 
ATOM    108  H   UNL     1     148.031 164.241 191.825  0.00  0.00    +0.059 HD
ATOM    109  H   UNL     1     150.502 162.436 191.620  0.00  0.00    +0.078 HD
BRANCH 107 110
ATOM    110  N   UNL     1     148.934 162.164 190.271  0.00  0.00    -0.284 N 
ATOM    111  C   UNL     1     149.025 160.798 189.997  0.00  0.00    +0.206 C 
ATOM    112  O   UNL     1     149.601 159.921 190.631  0.00  0.00    -0.279 OA
ATOM    113  H   UNL     1     148.491 160.528 189.070  0.00  0.00    +0.126 HD
BRANCH 110 114
ATOM    114  C   UNL     1     148.174 162.999 189.344  0.00  0.00    +0.007 C 
ATOM    115  H   UNL     1     147.971 162.424 188.433  0.00  0.00    +0.043 HD
ATOM    116  H   UNL     1     148.723 163.904 189.066  0.00  0.00    +0.043 HD
ATOM    117  H   UNL     1     147.229 163.291 189.813  0.00  0.00    +0.043 HD
ENDBRANCH 110 114
ENDBRANCH 107 110
ENDBRANCH 100 106
ENDBRANCH  98 100
BRANCH  98 118
ATOM    118  O   UNL     1     149.829 166.493 194.589  0.00  0.00    -0.461 OA
BRANCH 118 119
ATOM    119  C   UNL     1     149.818 166.236 195.929  0.00  0.00    +0.304 C 
ATOM    120  O   UNL     1     150.800 166.039 196.630  0.00  0.00    -0.251 OA
BRANCH 119 121
ATOM    121  C   UNL     1     148.410 166.191 196.441  0.00  0.00    +0.033 C 
ATOM    122  H   UNL     1     147.718 166.223 195.597  0.00  0.00    +0.034 HD
ATOM    123  H   UNL     1     148.234 167.029 197.121  0.00  0.00    +0.034 HD
ATOM    124  H   UNL     1     148.259 165.266 197.004  0.00  0.00    +0.034 HD
ENDBRANCH 119 121
ENDBRANCH 118 119
ENDBRANCH  98 118
ENDBRANCH  92  98
ENDBRANCH  90  92
BRANCH  90 125
ATOM    125  O   UNL     1     147.979 169.048 192.456  0.00  0.00    -0.459 OA
BRANCH 125 126
ATOM    126  C   UNL     1     148.423 170.292 192.074  0.00  0.00    +0.339 C 
ATOM    127  O   UNL     1     149.493 170.774 192.424  0.00  0.00    -0.248 OA
BRANCH 126 128
ATOM    128  C   UNL     1     147.396 171.055 191.220  0.00  0.00    +0.178 C 
ATOM    129  H   UNL     1     147.974 171.730 190.567  0.00  0.00    +0.074 HD
BRANCH 128 130
ATOM    130  C   UNL     1     146.637 170.063 190.335  0.00  0.00    +0.084 C 
ATOM    131  H   UNL     1     146.954 169.043 190.559  0.00  0.00    +0.059 HD
ATOM    132  H   UNL     1     145.566 170.115 190.567  0.00  0.00    +0.059 HD
BRANCH 130 133
ATOM    133  O   UNL     1     146.831 170.348 188.952  0.00  0.00    -0.380 OA
BRANCH 133 134
ATOM    134  C   UNL     1     147.108 169.170 188.208  0.00  0.00    +0.037 C 
ATOM    135  H   UNL     1     148.036 169.295 187.641  0.00  0.00    +0.052 HD
ATOM    136  H   UNL     1     147.237 168.341 188.909  0.00  0.00    +0.052 HD
ATOM    137  H   UNL     1     146.285 168.932 187.527  0.00  0.00    +0.052 HD
ENDBRANCH 133 134
ENDBRANCH 130 133
ENDBRANCH 128 130
BRANCH 128 138
ATOM    138  O   UNL     1     146.428 171.816 191.948  0.00  0.00    -0.366 OA
BRANCH 138 139
ATOM    139  C   UNL     1     146.976 173.010 192.488  0.00  0.00    +0.038 C 
ATOM    140  H   UNL     1     146.553 173.160 193.485  0.00  0.00    +0.052 HD
ATOM    141  H   UNL     1     146.703 173.870 191.867  0.00  0.00    +0.052 HD
ATOM    142  H   UNL     1     148.063 172.940 192.577  0.00  0.00    +0.052 HD
ENDBRANCH 138 139
ENDBRANCH 128 138
ENDBRANCH 126 128
ENDBRANCH 125 126
ENDBRANCH  90 125
ENDBRANCH  87  90
ENDBRANCH  84  87
ENDBRANCH  78  84
ENDBRANCH  76  78
BRANCH  76 143
ATOM    143  O   UNL     1     151.986 165.898 189.824  0.00  0.00    -0.379 OA
BRANCH 143 144
ATOM    144  C   UNL     1     153.206 166.566 190.122  0.00  0.00    +0.037 C 
ATOM    145  H   UNL     1     153.997 165.812 190.207  0.00  0.00    +0.052 HD
ATOM    146  H   UNL     1     153.151 167.120 191.065  0.00  0.00    +0.052 HD
ATOM    147  H   UNL     1     153.478 167.240 189.307  0.00  0.00    +0.052 HD
ENDBRANCH 143 144
ENDBRANCH  76 143
ENDBRANCH   1  76
TORSDOF 35
ENDMDL
MODEL 9
REMARK VINA RESULT:      -5.2      6.098     12.034
REMARK  Name = Mycalolide B_conf3
REMARK  35 active torsions:
REMARK  status: ('A' for Active; 'I' for Inactive)
REMARK    1  A    between atoms: C_1  and  C_2
REMARK    2  A    between atoms: C_3  and  O_72
REMARK    3  A    between atoms: C_22  and  O_70
REMARK    4  A    between atoms: C_23  and  C_69
REMARK    5  A    between atoms: C_29  and  O_68
REMARK    6  A    between atoms: C_34  and  C_35
REMARK    7  A    between atoms: C_35  and  C_36
REMARK    8  A    between atoms: C_36  and  C_37
REMARK    9  A    between atoms: C_36  and  O_66
REMARK   10  A    between atoms: C_37  and  C_38
REMARK   11  A    between atoms: C_37  and  C_39
REMARK   12  A    between atoms: C_39  and  C_40
REMARK   13  A    between atoms: C_40  and  C_41
REMARK   14  A    between atoms: C_41  and  C_42
REMARK   15  A    between atoms: C_41  and  O_57
REMARK   16  A    between atoms: C_42  and  C_43
REMARK   17  A    between atoms: C_42  and  C_44
REMARK   18  A    between atoms: C_44  and  C_45
REMARK   19  A    between atoms: C_44  and  O_53
REMARK   20  A    between atoms: C_45  and  C_46
REMARK   21  A    between atoms: C_45  and  C_47
REMARK   22  A    between atoms: C_48  and  N_49
REMARK   23  A    between atoms: N_49  and  C_50
REMARK   24  A    between atoms: O_53  and  C_54
REMARK   25  A    between atoms: C_54  and  C_56
REMARK   26  A    between atoms: O_57  and  C_58
REMARK   27  A    between atoms: C_58  and  C_60
REMARK   28  A    between atoms: C_60  and  C_61
REMARK   29  A    between atoms: C_60  and  O_64
REMARK   30  A    between atoms: C_61  and  O_62
REMARK   31  A    between atoms: O_62  and  C_63
REMARK   32  A    between atoms: O_64  and  C_65
REMARK   33  A    between atoms: O_66  and  C_67
REMARK   34  A    between atoms: O_70  and  C_71
REMARK   35  A    between atoms: O_72  and  C_73
REMARK                            x       y       z     vdW  Elec       q    Type
REMARK                         _______ _______ _______ _____ _____    ______ ____
ROOT
ATOM      1  C   UNL     1     151.417 164.537 187.634  0.00  0.00    +0.011 C 
ATOM      2  H   UNL     1     150.775 163.657 187.750  0.00  0.00    +0.033 HD
ATOM      3  H   UNL     1     150.946 165.207 186.907  0.00  0.00    +0.033 HD
ENDROOT
BRANCH   1  36
ATOM      4  C   UNL     1     153.058 162.571 187.206  0.00  0.00    +0.020 C 
ATOM      5  C   UNL     1     153.247 162.059 188.663  0.00  0.00    +0.068 C 
ATOM      6  C   UNL     1     154.300 162.829 189.502  0.00  0.00    -0.008 C 
ATOM      7  C   UNL     1     155.569 163.221 188.796  0.00  0.00    -0.077 C 
ATOM      8  C   UNL     1     156.462 162.377 188.256  0.00  0.00    -0.003 C 
ATOM      9  C   UNL     1     157.616 162.896 187.603  0.00  0.00    +0.220 A 
ATOM     10  N   UNL     1     157.727 164.105 187.061  0.00  0.00    -0.205 NA
ATOM     11  C   UNL     1     159.042 164.217 186.688  0.00  0.00    +0.164 A 
ATOM     12  C   UNL     1     159.700 163.050 186.958  0.00  0.00    +0.125 A 
ATOM     13  O   UNL     1     158.803 162.181 187.500  0.00  0.00    -0.443 OA
ATOM     14  C   UNL     1     159.666 165.508 186.091  0.00  0.00    +0.250 A 
ATOM     15  N   UNL     1     158.944 166.568 185.761  0.00  0.00    -0.203 NA
ATOM     16  C   UNL     1     159.873 167.505 185.384  0.00  0.00    +0.164 A 
ATOM     17  C   UNL     1     161.129 166.969 185.453  0.00  0.00    +0.125 A 
ATOM     18  O   UNL     1     161.015 165.679 185.882  0.00  0.00    -0.442 OA
ATOM     19  C   UNL     1     159.536 168.956 184.929  0.00  0.00    +0.249 A 
ATOM     20  N   UNL     1     158.300 169.393 184.753  0.00  0.00    -0.210 NA
ATOM     21  C   UNL     1     158.445 170.678 184.274  0.00  0.00    +0.109 A 
ATOM     22  C   UNL     1     159.779 170.997 184.258  0.00  0.00    +0.118 A 
ATOM     23  O   UNL     1     160.493 169.897 184.627  0.00  0.00    -0.442 OA
ATOM     24  C   UNL     1     157.257 171.501 183.866  0.00  0.00    +0.113 C 
ATOM     25  C   UNL     1     156.869 171.353 182.380  0.00  0.00    +0.051 C 
ATOM     26  C   UNL     1     155.905 170.198 182.170  0.00  0.00    +0.161 C 
ATOM     27  O   UNL     1     154.719 170.418 181.915  0.00  0.00    -0.292 OA
ATOM     28  C   UNL     1     156.400 168.798 182.310  0.00  0.00    -0.023 C 
ATOM     29  C   UNL     1     155.541 167.767 182.303  0.00  0.00    -0.078 C 
ATOM     30  C   UNL     1     155.949 166.347 182.579  0.00  0.00    -0.008 C 
ATOM     31  C   UNL     1     155.416 165.838 183.928  0.00  0.00    +0.069 C 
ATOM     32  C   UNL     1     153.904 165.621 183.917  0.00  0.00    +0.071 C 
ATOM     33  C   UNL     1     153.429 165.608 185.341  0.00  0.00    +0.310 C 
ATOM     34  O   UNL     1     153.551 166.568 186.090  0.00  0.00    -0.251 OA
ATOM     35  O   UNL     1     152.899 164.405 185.676  0.00  0.00    -0.461 OA
ATOM     36  C   UNL     1     152.794 164.097 187.091  0.00  0.00    +0.110 C 
ATOM     37  H   UNL     1     153.981 162.348 186.647  0.00  0.00    +0.036 HD
ATOM     38  H   UNL     1     152.283 162.126 189.183  0.00  0.00    +0.060 HD
ATOM     39  H   UNL     1     153.834 163.748 189.870  0.00  0.00    +0.033 HD
ATOM     40  H   UNL     1     154.573 162.258 190.396  0.00  0.00    +0.033 HD
ATOM     41  H   UNL     1     155.747 164.298 188.725  0.00  0.00    +0.057 HD
ATOM     42  H   UNL     1     156.343 161.304 188.321  0.00  0.00    +0.067 HD
ATOM     43  H   UNL     1     160.708 162.686 186.833  0.00  0.00    +0.105 HD
ATOM     44  H   UNL     1     162.132 167.330 185.257  0.00  0.00    +0.105 HD
ATOM     45  H   UNL     1     160.343 171.877 183.975  0.00  0.00    +0.105 HD
ATOM     46  H   UNL     1     156.420 171.171 184.496  0.00  0.00    +0.067 HD
ATOM     47  H   UNL     1     156.290 172.248 182.105  0.00  0.00    +0.041 HD
ATOM     48  H   UNL     1     157.457 168.645 182.487  0.00  0.00    +0.065 HD
ATOM     49  H   UNL     1     154.484 167.954 182.125  0.00  0.00    +0.057 HD
ATOM     50  H   UNL     1     155.601 165.699 181.765  0.00  0.00    +0.033 HD
ATOM     51  H   UNL     1     157.044 166.257 182.575  0.00  0.00    +0.033 HD
ATOM     52  H   UNL     1     155.712 166.538 184.719  0.00  0.00    +0.060 HD
ATOM     53  H   UNL     1     153.355 166.430 183.421  0.00  0.00    +0.040 HD
ATOM     54  H   UNL     1     153.634 164.680 183.420  0.00  0.00    +0.040 HD
ATOM     55  H   UNL     1     153.608 164.611 187.603  0.00  0.00    +0.074 HD
BRANCH   4  56
ATOM     56  C   UNL     1     151.971 161.757 186.478  0.00  0.00    -0.057 C 
ATOM     57  H   UNL     1     152.371 161.287 185.575  0.00  0.00    +0.023 HD
ATOM     58  H   UNL     1     151.131 162.390 186.186  0.00  0.00    +0.023 HD
ATOM     59  H   UNL     1     151.584 160.954 187.112  0.00  0.00    +0.023 HD
ENDBRANCH   4  56
BRANCH  25  60
ATOM     60  C   UNL     1     158.031 171.328 181.388  0.00  0.00    -0.053 C 
ATOM     61  H   UNL     1     158.270 170.318 181.039  0.00  0.00    +0.024 HD
ATOM     62  H   UNL     1     158.932 171.764 181.834  0.00  0.00    +0.024 HD
ATOM     63  H   UNL     1     157.776 171.920 180.499  0.00  0.00    +0.024 HD
ENDBRANCH  25  60
BRANCH  31  64
ATOM     64  O   UNL     1     156.039 164.582 184.215  0.00  0.00    -0.391 OA
ATOM     65  H   UNL     1     155.485 164.140 184.892  0.00  0.00    +0.210 HD
ENDBRANCH  31  64
BRANCH  24  66
ATOM     66  O   UNL     1     157.520 172.892 184.138  0.00  0.00    -0.373 OA
BRANCH  66  67
ATOM     67  C   UNL     1     156.384 173.711 183.882  0.00  0.00    +0.037 C 
ATOM     68  H   UNL     1     155.901 173.429 182.941  0.00  0.00    +0.052 HD
ATOM     69  H   UNL     1     155.667 173.639 184.706  0.00  0.00    +0.052 HD
ATOM     70  H   UNL     1     156.720 174.749 183.803  0.00  0.00    +0.052 HD
ENDBRANCH  66  67
ENDBRANCH  24  66
BRANCH   5  71
ATOM     71  O   UNL     1     153.626 160.667 188.598  0.00  0.00    -0.379 OA
BRANCH  71  72
ATOM     72  C   UNL     1     152.925 159.862 189.538  0.00  0.00    +0.037 C 
ATOM     73  H   UNL     1     151.965 159.524 189.141  0.00  0.00    +0.052 HD
ATOM     74  H   UNL     1     152.739 160.469 190.431  0.00  0.00    +0.052 HD
ATOM     75  H   UNL     1     153.536 159.000 189.828  0.00  0.00    +0.052 HD
ENDBRANCH  71  72
ENDBRANCH   5  71
ENDBRANCH   1  36
BRANCH   1  76
ATOM     76  C   UNL     1     151.481 165.225 189.008  0.00  0.00    +0.064 C 
ATOM     77  H   UNL     1     151.776 164.500 189.773  0.00  0.00    +0.060 HD
BRANCH  76  78
ATOM     78  C   UNL     1     152.460 166.431 189.044  0.00  0.00    -0.017 C 
ATOM     79  H   UNL     1     153.269 166.213 188.346  0.00  0.00    +0.032 HD
BRANCH  78  80
ATOM     80  C   UNL     1     151.725 167.682 188.505  0.00  0.00    -0.060 C 
ATOM     81  H   UNL     1     152.225 168.601 188.835  0.00  0.00    +0.023 HD
ATOM     82  H   UNL     1     151.717 167.702 187.412  0.00  0.00    +0.023 HD
ATOM     83  H   UNL     1     150.691 167.711 188.862  0.00  0.00    +0.023 HD
ENDBRANCH  78  80
BRANCH  78  84
ATOM     84  C   UNL     1     153.042 166.814 190.415  0.00  0.00    -0.045 C 
ATOM     85  H   UNL     1     154.047 166.372 190.500  0.00  0.00    +0.027 HD
ATOM     86  H   UNL     1     153.213 167.903 190.441  0.00  0.00    +0.027 HD
BRANCH  84  87
ATOM     87  C   UNL     1     152.315 166.408 191.708  0.00  0.00    -0.015 C 
ATOM     88  H   UNL     1     151.572 165.676 191.371  0.00  0.00    +0.030 HD
ATOM     89  H   UNL     1     152.993 165.846 192.359  0.00  0.00    +0.030 HD
BRANCH  87  90
ATOM     90  C   UNL     1     151.582 167.477 192.554  0.00  0.00    +0.109 C 
ATOM     91  H   UNL     1     152.314 168.259 192.789  0.00  0.00    +0.074 HD
BRANCH  90  92
ATOM     92  C   UNL     1     151.010 166.859 193.881  0.00  0.00    +0.031 C 
ATOM     93  H   UNL     1     150.814 167.689 194.570  0.00  0.00    +0.037 HD
BRANCH  92  94
ATOM     94  C   UNL     1     152.058 166.006 194.622  0.00  0.00    -0.056 C 
ATOM     95  H   UNL     1     152.238 165.061 194.109  0.00  0.00    +0.023 HD
ATOM     96  H   UNL     1     151.752 165.802 195.651  0.00  0.00    +0.023 HD
ATOM     97  H   UNL     1     153.026 166.522 194.655  0.00  0.00    +0.023 HD
ENDBRANCH  92  94
BRANCH  92  98
ATOM     98  C   UNL     1     149.718 165.989 193.734  0.00  0.00    +0.115 C 
ATOM     99  H   UNL     1     149.744 165.200 194.500  0.00  0.00    +0.074 HD
BRANCH  98 100
ATOM    100  C   UNL     1     148.370 166.730 193.984  0.00  0.00    +0.013 C 
ATOM    101  H   UNL     1     148.562 167.774 194.241  0.00  0.00    +0.038 HD
BRANCH 100 102
ATOM    102  C   UNL     1     147.566 166.090 195.125  0.00  0.00    -0.056 C 
ATOM    103  H   UNL     1     146.489 166.086 194.906  0.00  0.00    +0.024 HD
ATOM    104  H   UNL     1     147.874 165.048 195.296  0.00  0.00    +0.024 HD
ATOM    105  H   UNL     1     147.699 166.638 196.062  0.00  0.00    +0.024 HD
ENDBRANCH 100 102
BRANCH 100 106
ATOM    106  C   UNL     1     147.501 166.715 192.736  0.00  0.00    -0.064 C 
ATOM    107  C   UNL     1     146.211 166.348 192.740  0.00  0.00    -0.005 C 
ATOM    108  H   UNL     1     147.996 167.007 191.812  0.00  0.00    +0.059 HD
ATOM    109  H   UNL     1     145.770 166.030 193.684  0.00  0.00    +0.078 HD
BRANCH 107 110
ATOM    110  N   UNL     1     145.347 166.295 191.658  0.00  0.00    -0.284 N 
ATOM    111  C   UNL     1     144.118 166.951 191.573  0.00  0.00    +0.206 C 
ATOM    112  O   UNL     1     143.575 167.681 192.395  0.00  0.00    -0.279 OA
ATOM    113  H   UNL     1     143.607 166.745 190.617  0.00  0.00    +0.126 HD
BRANCH 110 114
ATOM    114  C   UNL     1     145.768 165.479 190.522  0.00  0.00    +0.007 C 
ATOM    115  H   UNL     1     145.216 164.532 190.541  0.00  0.00    +0.043 HD
ATOM    116  H   UNL     1     146.839 165.254 190.555  0.00  0.00    +0.043 HD
ATOM    117  H   UNL     1     145.549 166.013 189.592  0.00  0.00    +0.043 HD
ENDBRANCH 110 114
ENDBRANCH 107 110
ENDBRANCH 100 106
ENDBRANCH  98 100
BRANCH  98 118
ATOM    118  O   UNL     1     149.676 165.389 192.419  0.00  0.00    -0.461 OA
BRANCH 118 119
ATOM    119  C   UNL     1     149.625 164.026 192.379  0.00  0.00    +0.304 C 
ATOM    120  O   UNL     1     148.679 163.332 192.721  0.00  0.00    -0.251 OA
BRANCH 119 121
ATOM    121  C   UNL     1     150.924 163.469 191.881  0.00  0.00    +0.033 C 
ATOM    122  H   UNL     1     150.893 162.379 191.930  0.00  0.00    +0.034 HD
ATOM    123  H   UNL     1     151.751 163.862 192.478  0.00  0.00    +0.034 HD
ATOM    124  H   UNL     1     151.081 163.784 190.846  0.00  0.00    +0.034 HD
ENDBRANCH 119 121
ENDBRANCH 118 119
ENDBRANCH  98 118
ENDBRANCH  92  98
ENDBRANCH  90  92
BRANCH  90 125
ATOM    125  O   UNL     1     150.511 168.056 191.763  0.00  0.00    -0.459 OA
BRANCH 125 126
ATOM    126  C   UNL     1     150.403 169.426 191.795  0.00  0.00    +0.339 C 
ATOM    127  O   UNL     1     151.352 170.184 191.949  0.00  0.00    -0.248 OA
BRANCH 126 128
ATOM    128  C   UNL     1     148.946 169.911 191.696  0.00  0.00    +0.178 C 
ATOM    129  H   UNL     1     148.434 169.544 192.601  0.00  0.00    +0.074 HD
BRANCH 128 130
ATOM    130  C   UNL     1     148.921 171.441 191.715  0.00  0.00    +0.084 C 
ATOM    131  H   UNL     1     149.917 171.835 191.504  0.00  0.00    +0.059 HD
ATOM    132  H   UNL     1     148.265 171.804 190.915  0.00  0.00    +0.059 HD
BRANCH 130 133
ATOM    133  O   UNL     1     148.449 171.937 192.966  0.00  0.00    -0.380 OA
BRANCH 133 134
ATOM    134  C   UNL     1     149.359 172.866 193.539  0.00  0.00    +0.037 C 
ATOM    135  H   UNL     1     148.820 173.577 194.172  0.00  0.00    +0.052 HD
ATOM    136  H   UNL     1     150.070 172.315 194.160  0.00  0.00    +0.052 HD
ATOM    137  H   UNL     1     149.912 173.404 192.762  0.00  0.00    +0.052 HD
ENDBRANCH 133 134
ENDBRANCH 130 133
ENDBRANCH 128 130
BRANCH 128 138
ATOM    138  O   UNL     1     148.227 169.480 190.538  0.00  0.00    -0.366 OA
BRANCH 138 139
ATOM    139  C   UNL     1     146.832 169.727 190.646  0.00  0.00    +0.038 C 
ATOM    140  H   UNL     1     146.361 168.842 191.084  0.00  0.00    +0.052 HD
ATOM    141  H   UNL     1     146.395 169.893 189.656  0.00  0.00    +0.052 HD
ATOM    142  H   UNL     1     146.633 170.585 191.294  0.00  0.00    +0.052 HD
ENDBRANCH 138 139
ENDBRANCH 128 138
ENDBRANCH 126 128
ENDBRANCH 125 126
ENDBRANCH  90 125
ENDBRANCH  87  90
ENDBRANCH  84  87
ENDBRANCH  78  84
ENDBRANCH  76  78
BRANCH  76 143
ATOM    143  O   UNL     1     150.173 165.767 189.274  0.00  0.00    -0.379 OA
BRANCH 143 144
ATOM    144  C   UNL     1     149.105 164.955 188.801  0.00  0.00    +0.037 C 
ATOM    145  H   UNL     1     148.915 165.215 187.754  0.00  0.00    +0.052 HD
ATOM    146  H   UNL     1     148.183 165.115 189.371  0.00  0.00    +0.052 HD
ATOM    147  H   UNL     1     149.387 163.901 188.833  0.00  0.00    +0.052 HD
ENDBRANCH 143 144
ENDBRANCH  76 143
ENDBRANCH   1  76
TORSDOF 35
ENDMDL
MODEL 10
REMARK VINA RESULT:      -5.1      6.478     12.258
REMARK  Name = Mycalolide B_conf3
REMARK  35 active torsions:
REMARK  status: ('A' for Active; 'I' for Inactive)
REMARK    1  A    between atoms: C_1  and  C_2
REMARK    2  A    between atoms: C_3  and  O_72
REMARK    3  A    between atoms: C_22  and  O_70
REMARK    4  A    between atoms: C_23  and  C_69
REMARK    5  A    between atoms: C_29  and  O_68
REMARK    6  A    between atoms: C_34  and  C_35
REMARK    7  A    between atoms: C_35  and  C_36
REMARK    8  A    between atoms: C_36  and  C_37
REMARK    9  A    between atoms: C_36  and  O_66
REMARK   10  A    between atoms: C_37  and  C_38
REMARK   11  A    between atoms: C_37  and  C_39
REMARK   12  A    between atoms: C_39  and  C_40
REMARK   13  A    between atoms: C_40  and  C_41
REMARK   14  A    between atoms: C_41  and  C_42
REMARK   15  A    between atoms: C_41  and  O_57
REMARK   16  A    between atoms: C_42  and  C_43
REMARK   17  A    between atoms: C_42  and  C_44
REMARK   18  A    between atoms: C_44  and  C_45
REMARK   19  A    between atoms: C_44  and  O_53
REMARK   20  A    between atoms: C_45  and  C_46
REMARK   21  A    between atoms: C_45  and  C_47
REMARK   22  A    between atoms: C_48  and  N_49
REMARK   23  A    between atoms: N_49  and  C_50
REMARK   24  A    between atoms: O_53  and  C_54
REMARK   25  A    between atoms: C_54  and  C_56
REMARK   26  A    between atoms: O_57  and  C_58
REMARK   27  A    between atoms: C_58  and  C_60
REMARK   28  A    between atoms: C_60  and  C_61
REMARK   29  A    between atoms: C_60  and  O_64
REMARK   30  A    between atoms: C_61  and  O_62
REMARK   31  A    between atoms: O_62  and  C_63
REMARK   32  A    between atoms: O_64  and  C_65
REMARK   33  A    between atoms: O_66  and  C_67
REMARK   34  A    between atoms: O_70  and  C_71
REMARK   35  A    between atoms: O_72  and  C_73
REMARK                            x       y       z     vdW  Elec       q    Type
REMARK                         _______ _______ _______ _____ _____    ______ ____
ROOT
ATOM      1  C   UNL     1     153.287 163.466 186.072  0.00  0.00    +0.011 C 
ATOM      2  H   UNL     1     153.165 162.383 185.956  0.00  0.00    +0.033 HD
ATOM      3  H   UNL     1     152.526 163.959 185.458  0.00  0.00    +0.033 HD
ENDROOT
BRANCH   1  36
ATOM      4  C   UNL     1     155.752 162.755 185.673  0.00  0.00    +0.020 C 
ATOM      5  C   UNL     1     156.166 162.401 187.130  0.00  0.00    +0.068 C 
ATOM      6  C   UNL     1     156.596 163.606 188.006  0.00  0.00    -0.008 C 
ATOM      7  C   UNL     1     157.445 164.655 187.342  0.00  0.00    -0.077 C 
ATOM      8  C   UNL     1     158.667 164.463 186.820  0.00  0.00    -0.003 C 
ATOM      9  C   UNL     1     159.348 165.551 186.206  0.00  0.00    +0.220 A 
ATOM     10  N   UNL     1     158.778 166.630 185.678  0.00  0.00    -0.205 NA
ATOM     11  C   UNL     1     159.815 167.464 185.345  0.00  0.00    +0.164 A 
ATOM     12  C   UNL     1     161.006 166.854 185.623  0.00  0.00    +0.125 A 
ATOM     13  O   UNL     1     160.735 165.620 186.130  0.00  0.00    -0.443 OA
ATOM     14  C   UNL     1     159.626 168.898 184.779  0.00  0.00    +0.250 A 
ATOM     15  N   UNL     1     158.443 169.384 184.437  0.00  0.00    -0.203 NA
ATOM     16  C   UNL     1     158.700 170.689 184.097  0.00  0.00    +0.164 A 
ATOM     17  C   UNL     1     160.041 170.940 184.197  0.00  0.00    +0.125 A 
ATOM     18  O   UNL     1     160.656 169.795 184.611  0.00  0.00    -0.442 OA
ATOM     19  C   UNL     1     157.621 171.717 183.645  0.00  0.00    +0.249 A 
ATOM     20  N   UNL     1     156.355 171.397 183.437  0.00  0.00    -0.210 NA
ATOM     21  C   UNL     1     155.769 172.556 182.975  0.00  0.00    +0.109 A 
ATOM     22  C   UNL     1     156.699 173.564 183.001  0.00  0.00    +0.118 A 
ATOM     23  O   UNL     1     157.898 173.039 183.380  0.00  0.00    -0.442 OA
ATOM     24  C   UNL     1     154.332 172.589 182.540  0.00  0.00    +0.113 C 
ATOM     25  C   UNL     1     154.120 172.286 181.042  0.00  0.00    +0.051 C 
ATOM     26  C   UNL     1     153.967 170.795 180.793  0.00  0.00    +0.161 C 
ATOM     27  O   UNL     1     152.864 170.325 180.505  0.00  0.00    -0.292 OA
ATOM     28  C   UNL     1     155.154 169.905 180.934  0.00  0.00    -0.023 C 
ATOM     29  C   UNL     1     155.015 168.570 180.893  0.00  0.00    -0.078 C 
ATOM     30  C   UNL     1     156.140 167.611 181.168  0.00  0.00    -0.008 C 
ATOM     31  C   UNL     1     155.954 166.860 182.495  0.00  0.00    +0.069 C 
ATOM     32  C   UNL     1     154.820 165.839 182.439  0.00  0.00    +0.071 C 
ATOM     33  C   UNL     1     154.405 165.529 183.848  0.00  0.00    +0.310 C 
ATOM     34  O   UNL     1     153.957 166.376 184.609  0.00  0.00    -0.251 OA
ATOM     35  O   UNL     1     154.628 164.227 184.156  0.00  0.00    -0.461 OA
ATOM     36  C   UNL     1     154.685 163.879 185.565  0.00  0.00    +0.110 C 
ATOM     37  H   UNL     1     156.654 163.097 185.139  0.00  0.00    +0.036 HD
ATOM     38  H   UNL     1     155.319 161.907 187.622  0.00  0.00    +0.060 HD
ATOM     39  H   UNL     1     155.691 164.101 188.370  0.00  0.00    +0.033 HD
ATOM     40  H   UNL     1     157.124 163.261 188.902  0.00  0.00    +0.033 HD
ATOM     41  H   UNL     1     156.995 165.649 187.285  0.00  0.00    +0.057 HD
ATOM     42  H   UNL     1     159.164 163.504 186.872  0.00  0.00    +0.067 HD
ATOM     43  H   UNL     1     162.049 167.116 185.524  0.00  0.00    +0.105 HD
ATOM     44  H   UNL     1     160.675 171.803 184.033  0.00  0.00    +0.105 HD
ATOM     45  H   UNL     1     156.683 174.615 182.743  0.00  0.00    +0.105 HD
ATOM     46  H   UNL     1     153.809 171.834 183.142  0.00  0.00    +0.067 HD
ATOM     47  H   UNL     1     153.147 172.714 180.759  0.00  0.00    +0.041 HD
ATOM     48  H   UNL     1     156.114 170.361 181.141  0.00  0.00    +0.065 HD
ATOM     49  H   UNL     1     154.036 168.141 180.686  0.00  0.00    +0.057 HD
ATOM     50  H   UNL     1     156.226 166.899 180.338  0.00  0.00    +0.033 HD
ATOM     51  H   UNL     1     157.099 168.146 181.195  0.00  0.00    +0.033 HD
ATOM     52  H   UNL     1     155.795 167.587 183.302  0.00  0.00    +0.060 HD
ATOM     53  H   UNL     1     153.922 166.217 181.935  0.00  0.00    +0.040 HD
ATOM     54  H   UNL     1     155.128 164.919 181.925  0.00  0.00    +0.040 HD
ATOM     55  H   UNL     1     155.066 164.747 186.105  0.00  0.00    +0.074 HD
BRANCH   4  56
ATOM     56  C   UNL     1     155.316 161.492 184.906  0.00  0.00    -0.057 C 
ATOM     57  H   UNL     1     156.176 160.992 184.451  0.00  0.00    +0.023 HD
ATOM     58  H   UNL     1     154.608 161.735 184.112  0.00  0.00    +0.023 HD
ATOM     59  H   UNL     1     154.840 160.766 185.573  0.00  0.00    +0.023 HD
ENDBRANCH   4  56
BRANCH  25  60
ATOM     60  C   UNL     1     155.118 172.935 180.084  0.00  0.00    -0.053 C 
ATOM     61  H   UNL     1     155.428 173.935 180.407  0.00  0.00    +0.024 HD
ATOM     62  H   UNL     1     154.696 173.011 179.076  0.00  0.00    +0.024 HD
ATOM     63  H   UNL     1     156.029 172.324 180.023  0.00  0.00    +0.024 HD
ENDBRANCH  25  60
BRANCH  31  64
ATOM     64  O   UNL     1     157.165 166.156 182.789  0.00  0.00    -0.391 OA
ATOM     65  H   UNL     1     157.010 165.660 183.620  0.00  0.00    +0.210 HD
ENDBRANCH  31  64
BRANCH  24  66
ATOM     66  O   UNL     1     153.770 173.884 182.833  0.00  0.00    -0.373 OA
BRANCH  66  67
ATOM     67  C   UNL     1     152.497 174.066 182.223  0.00  0.00    +0.037 C 
ATOM     68  H   UNL     1     151.725 174.256 182.975  0.00  0.00    +0.052 HD
ATOM     69  H   UNL     1     152.532 174.893 181.505  0.00  0.00    +0.052 HD
ATOM     70  H   UNL     1     152.241 173.150 181.684  0.00  0.00    +0.052 HD
ENDBRANCH  66  67
ENDBRANCH  24  66
BRANCH   5  71
ATOM     71  O   UNL     1     157.257 161.457 187.063  0.00  0.00    -0.379 OA
BRANCH  71  72
ATOM     72  C   UNL     1     157.672 161.005 188.347  0.00  0.00    +0.037 C 
ATOM     73  H   UNL     1     158.762 160.944 188.418  0.00  0.00    +0.052 HD
ATOM     74  H   UNL     1     157.256 160.004 188.503  0.00  0.00    +0.052 HD
ATOM     75  H   UNL     1     157.282 161.667 189.126  0.00  0.00    +0.052 HD
ENDBRANCH  71  72
ENDBRANCH   5  71
ENDBRANCH   1  36
BRANCH   1  76
ATOM     76  C   UNL     1     153.043 163.785 187.555  0.00  0.00    +0.064 C 
ATOM     77  H   UNL     1     153.666 163.140 188.183  0.00  0.00    +0.060 HD
BRANCH  76  78
ATOM     78  C   UNL     1     153.326 165.270 187.916  0.00  0.00    -0.017 C 
ATOM     79  H   UNL     1     154.166 165.599 187.304  0.00  0.00    +0.032 HD
BRANCH  78  80
ATOM     80  C   UNL     1     152.104 166.123 187.497  0.00  0.00    -0.060 C 
ATOM     81  H   UNL     1     152.394 166.892 186.771  0.00  0.00    +0.023 HD
ATOM     82  H   UNL     1     151.334 165.512 187.018  0.00  0.00    +0.023 HD
ATOM     83  H   UNL     1     151.662 166.625 188.363  0.00  0.00    +0.023 HD
ENDBRANCH  78  80
BRANCH  78  84
ATOM     84  C   UNL     1     153.601 165.587 189.396  0.00  0.00    -0.045 C 
ATOM     85  H   UNL     1     153.366 164.690 189.991  0.00  0.00    +0.027 HD
ATOM     86  H   UNL     1     154.684 165.739 189.535  0.00  0.00    +0.027 HD
BRANCH  84  87
ATOM     87  C   UNL     1     152.857 166.738 190.095  0.00  0.00    -0.015 C 
ATOM     88  H   UNL     1     153.627 167.205 190.719  0.00  0.00    +0.030 HD
ATOM     89  H   UNL     1     152.581 167.505 189.363  0.00  0.00    +0.030 HD
BRANCH  87  90
ATOM     90  C   UNL     1     151.632 166.438 190.991  0.00  0.00    +0.109 C 
ATOM     91  H   UNL     1     150.737 166.617 190.383  0.00  0.00    +0.074 HD
BRANCH  90  92
ATOM     92  C   UNL     1     151.615 167.366 192.260  0.00  0.00    +0.031 C 
ATOM     93  H   UNL     1     152.515 167.991 192.219  0.00  0.00    +0.037 HD
BRANCH  92  94
ATOM     94  C   UNL     1     151.783 166.566 193.566  0.00  0.00    -0.056 C 
ATOM     95  H   UNL     1     151.242 165.620 193.527  0.00  0.00    +0.023 HD
ATOM     96  H   UNL     1     151.441 167.138 194.433  0.00  0.00    +0.023 HD
ATOM     97  H   UNL     1     152.836 166.305 193.730  0.00  0.00    +0.023 HD
ENDBRANCH  92  94
BRANCH  92  98
ATOM     98  C   UNL     1     150.356 168.278 192.429  0.00  0.00    +0.115 C 
ATOM     99  H   UNL     1     150.279 168.568 193.487  0.00  0.00    +0.074 HD
BRANCH  98 100
ATOM    100  C   UNL     1     150.389 169.630 191.655  0.00  0.00    +0.013 C 
ATOM    101  H   UNL     1     150.166 169.460 190.599  0.00  0.00    +0.038 HD
BRANCH 100 102
ATOM    102  C   UNL     1     151.759 170.316 191.756  0.00  0.00    -0.056 C 
ATOM    103  H   UNL     1     152.577 169.583 191.774  0.00  0.00    +0.024 HD
ATOM    104  H   UNL     1     151.934 170.988 190.902  0.00  0.00    +0.024 HD
ATOM    105  H   UNL     1     151.842 170.909 192.671  0.00  0.00    +0.024 HD
ENDBRANCH 100 102
BRANCH 100 106
ATOM    106  C   UNL     1     149.345 170.594 192.196  0.00  0.00    -0.064 C 
ATOM    107  C   UNL     1     149.249 171.873 191.807  0.00  0.00    -0.005 C 
ATOM    108  H   UNL     1     148.673 170.188 192.949  0.00  0.00    +0.059 HD
ATOM    109  H   UNL     1     149.967 172.243 191.076  0.00  0.00    +0.078 HD
BRANCH 107 110
ATOM    110  N   UNL     1     148.341 172.823 192.248  0.00  0.00    -0.284 N 
ATOM    111  C   UNL     1     147.388 173.460 191.452  0.00  0.00    +0.206 C 
ATOM    112  O   UNL     1     147.162 173.316 190.255  0.00  0.00    -0.279 OA
ATOM    113  H   UNL     1     146.789 174.185 192.028  0.00  0.00    +0.126 HD
BRANCH 110 114
ATOM    114  C   UNL     1     148.400 173.179 193.663  0.00  0.00    +0.007 C 
ATOM    115  H   UNL     1     149.284 172.710 194.112  0.00  0.00    +0.043 HD
ATOM    116  H   UNL     1     147.514 172.836 194.207  0.00  0.00    +0.043 HD
ATOM    117  H   UNL     1     148.472 174.267 193.759  0.00  0.00    +0.043 HD
ENDBRANCH 110 114
ENDBRANCH 107 110
ENDBRANCH 100 106
ENDBRANCH  98 100
BRANCH  98 118
ATOM    118  O   UNL     1     149.166 167.553 192.036  0.00  0.00    -0.461 OA
BRANCH 118 119
ATOM    119  C   UNL     1     148.281 167.261 193.033  0.00  0.00    +0.304 C 
ATOM    120  O   UNL     1     147.582 168.066 193.631  0.00  0.00    -0.251 OA
BRANCH 119 121
ATOM    121  C   UNL     1     148.300 165.793 193.335  0.00  0.00    +0.033 C 
ATOM    122  H   UNL     1     148.631 165.246 192.450  0.00  0.00    +0.034 HD
ATOM    123  H   UNL     1     147.305 165.464 193.645  0.00  0.00    +0.034 HD
ATOM    124  H   UNL     1     148.988 165.602 194.162  0.00  0.00    +0.034 HD
ENDBRANCH 119 121
ENDBRANCH 118 119
ENDBRANCH  98 118
ENDBRANCH  92  98
ENDBRANCH  90  92
BRANCH  90 125
ATOM    125  O   UNL     1     151.663 165.042 191.385  0.00  0.00    -0.459 OA
BRANCH 125 126
ATOM    126  C   UNL     1     150.655 164.247 190.892  0.00  0.00    +0.339 C 
ATOM    127  O   UNL     1     149.665 164.678 190.314  0.00  0.00    -0.248 OA
BRANCH 126 128
ATOM    128  C   UNL     1     150.860 162.756 191.212  0.00  0.00    +0.178 C 
ATOM    129  H   UNL     1     150.710 162.648 192.298  0.00  0.00    +0.074 HD
BRANCH 128 130
ATOM    130  C   UNL     1     149.788 161.933 190.493  0.00  0.00    +0.084 C 
ATOM    131  H   UNL     1     149.389 162.495 189.646  0.00  0.00    +0.059 HD
ATOM    132  H   UNL     1     150.243 161.025 190.079  0.00  0.00    +0.059 HD
BRANCH 130 133
ATOM    133  O   UNL     1     148.735 161.566 191.381  0.00  0.00    -0.380 OA
BRANCH 133 134
ATOM    134  C   UNL     1     147.916 160.545 190.827  0.00  0.00    +0.037 C 
ATOM    135  H   UNL     1     147.326 160.947 189.996  0.00  0.00    +0.052 HD
ATOM    136  H   UNL     1     148.563 159.752 190.444  0.00  0.00    +0.052 HD
ATOM    137  H   UNL     1     147.249 160.121 191.585  0.00  0.00    +0.052 HD
ENDBRANCH 133 134
ENDBRANCH 130 133
ENDBRANCH 128 130
BRANCH 128 138
ATOM    138  O   UNL     1     152.134 162.216 190.853  0.00  0.00    -0.366 OA
BRANCH 138 139
ATOM    139  C   UNL     1     152.082 160.814 190.631  0.00  0.00    +0.038 C 
ATOM    140  H   UNL     1     151.900 160.643 189.566  0.00  0.00    +0.052 HD
ATOM    141  H   UNL     1     151.257 160.367 191.196  0.00  0.00    +0.052 HD
ATOM    142  H   UNL     1     153.027 160.336 190.903  0.00  0.00    +0.052 HD
ENDBRANCH 138 139
ENDBRANCH 128 138
ENDBRANCH 126 128
ENDBRANCH 125 126
ENDBRANCH  90 125
ENDBRANCH  87  90
ENDBRANCH  84  87
ENDBRANCH  78  84
ENDBRANCH  76  78
BRANCH  76 143
ATOM    143  O   UNL     1     151.641 163.574 187.812  0.00  0.00    -0.379 OA
BRANCH 143 144
ATOM    144  C   UNL     1     151.080 162.486 187.087  0.00  0.00    +0.037 C 
ATOM    145  H   UNL     1     151.265 162.655 186.020  0.00  0.00    +0.052 HD
ATOM    146  H   UNL     1     149.999 162.403 187.243  0.00  0.00    +0.052 HD
ATOM    147  H   UNL     1     151.571 161.552 187.364  0.00  0.00    +0.052 HD
ENDBRANCH 143 144
ENDBRANCH  76 143
ENDBRANCH   1  76
TORSDOF 35
ENDMDL
