MODEL 1
REMARK VINA RESULT:      -6.2      0.000      0.000
REMARK  Name = Phalloidin_conf2
REMARK  12 active torsions:
REMARK  status: ('A' for Active; 'I' for Inactive)
REMARK    1  A    between atoms: CB_1  and  CA_2
REMARK    2  A    between atoms: CG_24  and  OD_30
REMARK    3  A    between atoms: CA_34  and  CB_53
REMARK    4  A    between atoms: CA_38  and  CB_52
REMARK    5  A    between atoms: C_42  and  C_46
REMARK    6  A    between atoms: C_46  and  C_47
REMARK    7  A    between atoms: C_47  and  C_48
REMARK    8  A    between atoms: C_47  and  C_49
REMARK    9  A    between atoms: C_47  and  O_51
REMARK   10  A    between atoms: C_49  and  O_50
REMARK   11  A    between atoms: CB_53  and  CG2_54
REMARK   12  A    between atoms: CB_53  and  OG1_55
REMARK                            x       y       z     vdW  Elec       q    Type
REMARK                         _______ _______ _______ _____ _____    ______ ____
ROOT
ATOM      1  CA  ALA A   7     146.693 171.538 189.622  0.00  0.00    +0.097 C 
ATOM      2  C   ALA A   7     147.612 170.340 189.931  0.00  0.00    +0.234 C 
ATOM      3  O   ALA A   7     147.530 169.315 189.251  0.00  0.00    -0.274 OA
ATOM      4  N   UNK A   1     148.528 170.428 190.947  0.00  0.00    -0.302 N 
ATOM      5  C   UNK A   1     149.165 169.225 191.529  0.00  0.00    +0.103 C 
ATOM      6  C   UNK A   1     148.110 168.324 192.219  0.00  0.00    +0.002 C 
ATOM      7  C   UNK A   1     148.472 166.891 192.482  0.00  0.00    -0.006 A 
ATOM      8  C   UNK A   5     147.738 165.771 192.131  0.00  0.00    +0.078 A 
ATOM      9  N   UNK A   5     148.387 164.658 192.575  0.00  0.00    -0.349 N 
ATOM     10  C   UNK A   5     149.540 165.008 193.232  0.00  0.00    +0.048 A 
ATOM     11  C   UNK A   5     150.502 164.200 193.849  0.00  0.00    -0.038 A 
ATOM     12  C   UNK A   5     151.578 164.835 194.474  0.00  0.00    -0.060 A 
ATOM     13  C   UNK A   5     151.678 166.222 194.486  0.00  0.00    -0.061 A 
ATOM     14  C   UNK A   5     150.706 167.015 193.862  0.00  0.00    -0.052 A 
ATOM     15  C   UNK A   5     149.613 166.403 193.212  0.00  0.00    +0.004 A 
ATOM     16  S   UNK A   5     146.203 165.528 191.359  0.00  0.00    -0.105 S 
ATOM     17  C   UNK A   5     146.538 166.137 189.675  0.00  0.00    +0.027 C 
ATOM     18  C   UNK A   5     145.312 166.198 188.751  0.00  0.00    +0.109 C 
ATOM     19  C   UNK A   5     144.773 167.647 188.598  0.00  0.00    +0.237 C 
ATOM     20  O   UNK A   5     145.159 168.391 187.688  0.00  0.00    -0.274 OA
ATOM     21  N   HYP A   6     143.860 168.127 189.513  0.00  0.00    -0.286 N 
ATOM     22  CD  HYP A   6     143.100 167.362 190.493  0.00  0.00    +0.042 C 
ATOM     23  CG  HYP A   6     142.228 168.385 191.226  0.00  0.00    +0.073 C 
ATOM     24  CB  HYP A   6     142.106 169.547 190.246  0.00  0.00    +0.002 C 
ATOM     25  CA  HYP A   6     143.421 169.523 189.463  0.00  0.00    +0.105 C 
ATOM     26  C   HYP A   6     144.517 170.392 190.120  0.00  0.00    +0.234 C 
ATOM     27  O   HYP A   6     144.648 170.471 191.341  0.00  0.00    -0.274 OA
ATOM     28  N   ALA A   7     145.413 170.936 189.225  0.00  0.00    -0.303 N 
ATOM     29  N   UNK A   5     145.722 165.773 187.407  0.00  0.00    -0.302 N 
ATOM     30  C   THR A   4     145.136 164.748 186.712  0.00  0.00    +0.237 C 
ATOM     31  O   THR A   4     144.159 164.134 187.140  0.00  0.00    -0.274 OA
ATOM     32  CA  THR A   4     145.707 164.486 185.301  0.00  0.00    +0.125 C 
ATOM     33  N   THR A   4     146.984 165.164 185.069  0.00  0.00    -0.300 N 
ATOM     34  C   ALA A   3     148.195 164.661 185.480  0.00  0.00    +0.234 C 
ATOM     35  O   ALA A   3     148.305 163.594 186.082  0.00  0.00    -0.274 OA
ATOM     36  CA  ALA A   3     149.395 165.581 185.167  0.00  0.00    +0.097 C 
ATOM     37  N   ALA A   3     150.087 165.890 186.408  0.00  0.00    -0.303 N 
ATOM     38  C   UNK A   2     149.535 166.735 187.337  0.00  0.00    +0.234 C 
ATOM     39  O   UNK A   2     148.437 167.261 187.155  0.00  0.00    -0.274 OA
ATOM     40  C   UNK A   2     150.383 166.966 188.616  0.00  0.00    +0.102 C 
ATOM     41  N   UNK A   2     149.646 167.881 189.483  0.00  0.00    -0.302 N 
ATOM     42  C   UNK A   1     150.165 168.477 190.600  0.00  0.00    +0.234 C 
ATOM     43  O   UNK A   1     151.356 168.368 190.897  0.00  0.00    -0.274 OA
ATOM     44  HA  ALA A   7     147.091 172.010 188.716  0.00  0.00    +0.059 HD
ATOM     45  H   UNK A   1     148.607 171.287 191.474  0.00  0.00    +0.150 HD
ATOM     46  H   UNK A   1     149.798 169.637 192.325  0.00  0.00    +0.060 HD
ATOM     47  H   UNK A   1     147.169 168.356 191.661  0.00  0.00    +0.034 HD
ATOM     48  H   UNK A   1     147.857 168.784 193.185  0.00  0.00    +0.034 HD
ATOM     49  H   UNK A   5     148.048 163.715 192.455  0.00  0.00    +0.166 HD
ATOM     50  H   UNK A   5     150.414 163.118 193.852  0.00  0.00    +0.064 HD
ATOM     51  H   UNK A   5     152.341 164.236 194.967  0.00  0.00    +0.062 HD
ATOM     52  H   UNK A   5     152.520 166.700 194.983  0.00  0.00    +0.062 HD
ATOM     53  H   UNK A   5     150.807 168.095 193.882  0.00  0.00    +0.062 HD
ATOM     54  H   UNK A   5     146.988 167.119 189.759  0.00  0.00    +0.040 HD
ATOM     55  H   UNK A   5     147.294 165.462 189.258  0.00  0.00    +0.040 HD
ATOM     56  H   UNK A   5     144.509 165.538 189.092  0.00  0.00    +0.060 HD
ATOM     57  HD1 HYP A   6     143.768 166.835 191.171  0.00  0.00    +0.049 HD
ATOM     58  HD2 HYP A   6     142.490 166.640 189.939  0.00  0.00    +0.049 HD
ATOM     59  HG  HYP A   6     141.252 167.963 191.482  0.00  0.00    +0.061 HD
ATOM     60  HB1 HYP A   6     141.923 170.508 190.738  0.00  0.00    +0.031 HD
ATOM     61  HB2 HYP A   6     141.278 169.346 189.555  0.00  0.00    +0.031 HD
ATOM     62  HA  HYP A   6     143.268 169.848 188.429  0.00  0.00    +0.060 HD
ATOM     63  H   ALA A   7     145.406 170.507 188.299  0.00  0.00    +0.149 HD
ATOM     64  H   UNK A   5     146.458 166.319 186.956  0.00  0.00    +0.150 HD
ATOM     65  HA  THR A   4     145.882 163.405 185.245  0.00  0.00    +0.062 HD
ATOM     66  H   THR A   4     146.927 166.022 184.530  0.00  0.00    +0.150 HD
ATOM     67  HA  ALA A   3     149.037 166.524 184.740  0.00  0.00    +0.059 HD
ATOM     68  H   ALA A   3     150.940 165.383 186.655  0.00  0.00    +0.149 HD
ATOM     69  H   UNK A   2     151.305 167.477 188.322  0.00  0.00    +0.060 HD
ATOM     70  H   UNK A   2     148.723 168.186 189.158  0.00  0.00    +0.150 HD
ENDROOT
BRANCH   1  71
ATOM     71  CB  ALA A   7     146.573 172.601 190.704  0.00  0.00    -0.038 C 
ATOM     72  HB1 ALA A   7     146.697 173.603 190.285  0.00  0.00    +0.025 HD
ATOM     73  HB2 ALA A   7     145.610 172.564 191.225  0.00  0.00    +0.025 HD
ATOM     74  HB3 ALA A   7     147.349 172.458 191.465  0.00  0.00    +0.025 HD
ENDBRANCH   1  71
BRANCH  36  75
ATOM     75  CB  ALA A   3     150.321 164.900 184.171  0.00  0.00    -0.038 C 
ATOM     76  HB1 ALA A   3     150.380 165.450 183.224  0.00  0.00    +0.025 HD
ATOM     77  HB2 ALA A   3     149.970 163.888 183.942  0.00  0.00    +0.025 HD
ATOM     78  HB3 ALA A   3     151.336 164.828 184.576  0.00  0.00    +0.025 HD
ENDBRANCH  36  75
BRANCH  40  79
ATOM     79  C   UNK A   2     150.648 165.631 189.338  0.00  0.00    +0.005 C 
ATOM     80  H   UNK A   2     149.890 164.900 189.023  0.00  0.00    +0.032 HD
ATOM     81  H   UNK A   2     150.518 165.736 190.419  0.00  0.00    +0.032 HD
BRANCH  79  82
ATOM     82  C   UNK A   2     152.047 165.043 189.091  0.00  0.00    +0.088 C 
BRANCH  82  83
ATOM     83  C   UNK A   2     152.446 164.139 190.266  0.00  0.00    -0.034 C 
ATOM     84  H   UNK A   2     151.604 163.521 190.598  0.00  0.00    +0.026 HD
ATOM     85  H   UNK A   2     152.737 164.740 191.136  0.00  0.00    +0.026 HD
ATOM     86  H   UNK A   2     153.280 163.482 190.000  0.00  0.00    +0.026 HD
ENDBRANCH  82  83
BRANCH  82  87
ATOM     87  C   UNK A   2     153.107 166.146 188.875  0.00  0.00    +0.073 C 
ATOM     88  H   UNK A   2     152.705 166.993 188.311  0.00  0.00    +0.059 HD
ATOM     89  H   UNK A   2     153.990 165.753 188.364  0.00  0.00    +0.059 HD
BRANCH  87  90
ATOM     90  O   UNK A   2     153.558 166.603 190.158  0.00  0.00    -0.392 OA
ATOM     91  H   UNK A   2     153.284 167.537 190.219  0.00  0.00    +0.210 HD
ENDBRANCH  87  90
ENDBRANCH  82  87
BRANCH  82  92
ATOM     92  O   UNK A   2     152.019 164.217 187.912  0.00  0.00    -0.387 OA
ATOM     93  H   UNK A   2     151.566 163.398 188.212  0.00  0.00    +0.210 HD
ENDBRANCH  82  92
ENDBRANCH  79  82
ENDBRANCH  40  79
BRANCH  23  94
ATOM     94  OD  HYP A   6     142.825 168.804 192.450  0.00  0.00    -0.390 OA
ATOM     95  HD  HYP A   6     143.778 168.565 192.440  0.00  0.00    +0.210 HD
ENDBRANCH  23  94
BRANCH  32  96
ATOM     96  CB  THR A   4     144.646 164.939 184.266  0.00  0.00    +0.079 C 
ATOM     97  HB  THR A   4     143.999 164.103 183.969  0.00  0.00    +0.061 HD
BRANCH  96  98
ATOM     98  CG2 THR A   4     145.301 165.515 183.016  0.00  0.00    -0.037 C 
ATOM     99 HG21 THR A   4     144.696 165.295 182.129  0.00  0.00    +0.026 HD
ATOM    100 HG22 THR A   4     146.301 165.094 182.867  0.00  0.00    +0.026 HD
ATOM    101 HG23 THR A   4     145.378 166.605 183.079  0.00  0.00    +0.026 HD
ENDBRANCH  96  98
BRANCH  96 102
ATOM    102  OG1 THR A   4     143.781 165.945 184.833  0.00  0.00    -0.390 OA
ATOM    103  HG1 THR A   4     143.982 166.782 184.377  0.00  0.00    +0.210 HD
ENDBRANCH  96 102
ENDBRANCH  32  96
TORSDOF 12
ENDMDL
MODEL 2
REMARK VINA RESULT:      -6.2      4.023      8.550
REMARK  Name = Phalloidin_conf2
REMARK  12 active torsions:
REMARK  status: ('A' for Active; 'I' for Inactive)
REMARK    1  A    between atoms: CB_1  and  CA_2
REMARK    2  A    between atoms: CG_24  and  OD_30
REMARK    3  A    between atoms: CA_34  and  CB_53
REMARK    4  A    between atoms: CA_38  and  CB_52
REMARK    5  A    between atoms: C_42  and  C_46
REMARK    6  A    between atoms: C_46  and  C_47
REMARK    7  A    between atoms: C_47  and  C_48
REMARK    8  A    between atoms: C_47  and  C_49
REMARK    9  A    between atoms: C_47  and  O_51
REMARK   10  A    between atoms: C_49  and  O_50
REMARK   11  A    between atoms: CB_53  and  CG2_54
REMARK   12  A    between atoms: CB_53  and  OG1_55
REMARK                            x       y       z     vdW  Elec       q    Type
REMARK                         _______ _______ _______ _____ _____    ______ ____
ROOT
ATOM      1  CA  ALA A   7     151.128 159.083 190.389  0.00  0.00    +0.097 C 
ATOM      2  C   ALA A   7     151.561 160.283 189.524  0.00  0.00    +0.234 C 
ATOM      3  O   ALA A   7     151.221 161.424 189.846  0.00  0.00    -0.274 OA
ATOM      4  N   UNK A   1     152.338 160.078 188.413  0.00  0.00    -0.302 N 
ATOM      5  C   UNK A   1     152.474 161.106 187.357  0.00  0.00    +0.103 C 
ATOM      6  C   UNK A   1     151.112 161.369 186.666  0.00  0.00    +0.002 C 
ATOM      7  C   UNK A   1     150.950 162.645 185.892  0.00  0.00    -0.006 A 
ATOM      8  C   UNK A   5     149.931 163.572 186.023  0.00  0.00    +0.078 A 
ATOM      9  N   UNK A   5     150.124 164.574 185.119  0.00  0.00    -0.349 N 
ATOM     10  C   UNK A   5     151.249 164.331 184.370  0.00  0.00    +0.048 A 
ATOM     11  C   UNK A   5     151.817 165.083 183.335  0.00  0.00    -0.038 A 
ATOM     12  C   UNK A   5     152.967 164.577 182.723  0.00  0.00    -0.060 A 
ATOM     13  C   UNK A   5     153.516 163.365 183.127  0.00  0.00    -0.061 A 
ATOM     14  C   UNK A   5     152.934 162.628 184.167  0.00  0.00    -0.052 A 
ATOM     15  C   UNK A   5     151.779 163.117 184.813  0.00  0.00    +0.004 A 
ATOM     16  S   UNK A   5     148.497 163.659 186.995  0.00  0.00    -0.105 S 
ATOM     17  C   UNK A   5     149.196 163.828 188.668  0.00  0.00    +0.027 C 
ATOM     18  C   UNK A   5     148.169 163.783 189.809  0.00  0.00    +0.109 C 
ATOM     19  C   UNK A   5     148.158 162.406 190.527  0.00  0.00    +0.237 C 
ATOM     20  O   UNK A   5     148.865 162.183 191.517  0.00  0.00    -0.274 OA
ATOM     21  N   HYP A   6     147.359 161.395 190.033  0.00  0.00    -0.286 N 
ATOM     22  CD  HYP A   6     146.287 161.510 189.054  0.00  0.00    +0.042 C 
ATOM     23  CG  HYP A   6     145.726 160.094 188.891  0.00  0.00    +0.073 C 
ATOM     24  CB  HYP A   6     146.102 159.388 190.190  0.00  0.00    +0.002 C 
ATOM     25  CA  HYP A   6     147.413 160.052 190.617  0.00  0.00    +0.105 C 
ATOM     26  C   HYP A   6     148.655 159.334 190.044  0.00  0.00    +0.234 C 
ATOM     27  O   HYP A   6     148.670 158.849 188.914  0.00  0.00    -0.274 OA
ATOM     28  N   ALA A   7     149.773 159.420 190.846  0.00  0.00    -0.303 N 
ATOM     29  N   UNK A   5     148.561 164.767 190.825  0.00  0.00    -0.302 N 
ATOM     30  C   THR A   4     147.749 165.777 191.272  0.00  0.00    +0.237 C 
ATOM     31  O   THR A   4     146.584 165.902 190.898  0.00  0.00    -0.274 OA
ATOM     32  CA  THR A   4     148.354 166.684 192.366  0.00  0.00    +0.125 C 
ATOM     33  N   THR A   4     149.800 166.511 192.516  0.00  0.00    -0.300 N 
ATOM     34  C   ALA A   3     150.724 167.133 191.711  0.00  0.00    +0.234 C 
ATOM     35  O   ALA A   3     150.410 167.890 190.795  0.00  0.00    -0.274 OA
ATOM     36  CA  ALA A   3     152.188 166.754 192.028  0.00  0.00    +0.097 C 
ATOM     37  N   ALA A   3     152.802 166.209 190.829  0.00  0.00    -0.303 N 
ATOM     38  C   UNK A   2     152.461 164.965 190.358  0.00  0.00    +0.234 C 
ATOM     39  O   UNK A   2     151.624 164.269 190.934  0.00  0.00    -0.274 OA
ATOM     40  C   UNK A   2     153.191 164.517 189.065  0.00  0.00    +0.102 C 
ATOM     41  N   UNK A   2     152.707 163.185 188.716  0.00  0.00    -0.302 N 
ATOM     42  C   UNK A   1     153.267 162.383 187.759  0.00  0.00    +0.234 C 
ATOM     43  O   UNK A   1     154.316 162.692 187.189  0.00  0.00    -0.274 OA
ATOM     44  HA  ALA A   7     151.756 159.105 191.287  0.00  0.00    +0.059 HD
ATOM     45  H   UNK A   1     152.636 159.141 188.181  0.00  0.00    +0.150 HD
ATOM     46  H   UNK A   1     153.116 160.616 186.613  0.00  0.00    +0.060 HD
ATOM     47  H   UNK A   1     150.301 161.292 187.397  0.00  0.00    +0.034 HD
ATOM     48  H   UNK A   1     150.921 160.535 185.975  0.00  0.00    +0.034 HD
ATOM     49  H   UNK A   5     149.509 165.366 185.006  0.00  0.00    +0.166 HD
ATOM     50  H   UNK A   5     151.377 166.020 183.009  0.00  0.00    +0.064 HD
ATOM     51  H   UNK A   5     153.430 165.134 181.911  0.00  0.00    +0.062 HD
ATOM     52  H   UNK A   5     154.408 162.984 182.635  0.00  0.00    +0.062 HD
ATOM     53  H   UNK A   5     153.383 161.687 184.467  0.00  0.00    +0.062 HD
ATOM     54  H   UNK A   5     149.933 163.044 188.802  0.00  0.00    +0.040 HD
ATOM     55  H   UNK A   5     149.729 164.786 188.675  0.00  0.00    +0.040 HD
ATOM     56  H   UNK A   5     147.161 164.028 189.462  0.00  0.00    +0.060 HD
ATOM     57  HD1 HYP A   6     146.664 161.909 188.115  0.00  0.00    +0.049 HD
ATOM     58  HD2 HYP A   6     145.538 162.191 189.471  0.00  0.00    +0.049 HD
ATOM     59  HG  HYP A   6     144.643 160.113 188.736  0.00  0.00    +0.061 HD
ATOM     60  HB1 HYP A   6     146.193 158.303 190.079  0.00  0.00    +0.031 HD
ATOM     61  HB2 HYP A   6     145.335 159.599 190.946  0.00  0.00    +0.031 HD
ATOM     62  HA  HYP A   6     147.490 160.103 191.708  0.00  0.00    +0.060 HD
ATOM     63  H   ALA A   7     149.726 160.141 191.567  0.00  0.00    +0.149 HD
ATOM     64  H   UNK A   5     149.480 164.646 191.253  0.00  0.00    +0.150 HD
ATOM     65  HA  THR A   4     148.168 167.714 192.039  0.00  0.00    +0.062 HD
ATOM     66  H   THR A   4     150.089 165.931 193.296  0.00  0.00    +0.150 HD
ATOM     67  HA  ALA A   3     152.209 165.975 192.798  0.00  0.00    +0.059 HD
ATOM     68  H   ALA A   3     153.408 166.798 190.253  0.00  0.00    +0.149 HD
ATOM     69  H   UNK A   2     154.257 164.419 189.296  0.00  0.00    +0.060 HD
ATOM     70  H   UNK A   2     151.978 162.785 189.314  0.00  0.00    +0.150 HD
ENDROOT
BRANCH   1  71
ATOM     71  CB  ALA A   7     151.247 157.707 189.752  0.00  0.00    -0.038 C 
ATOM     72  HB1 ALA A   7     152.226 157.264 189.956  0.00  0.00    +0.025 HD
ATOM     73  HB2 ALA A   7     150.477 157.013 190.104  0.00  0.00    +0.025 HD
ATOM     74  HB3 ALA A   7     151.133 157.781 188.665  0.00  0.00    +0.025 HD
ENDBRANCH   1  71
BRANCH  36  75
ATOM     75  CB  ALA A   3     152.941 167.976 192.530  0.00  0.00    -0.038 C 
ATOM     76  HB1 ALA A   3     152.572 168.902 192.071  0.00  0.00    +0.025 HD
ATOM     77  HB2 ALA A   3     154.009 167.897 192.299  0.00  0.00    +0.025 HD
ATOM     78  HB3 ALA A   3     152.831 168.077 193.615  0.00  0.00    +0.025 HD
ENDBRANCH  36  75
BRANCH  40  79
ATOM     79  C   UNK A   2     152.920 165.510 187.919  0.00  0.00    +0.005 C 
ATOM     80  H   UNK A   2     152.171 166.243 188.253  0.00  0.00    +0.032 HD
ATOM     81  H   UNK A   2     152.470 165.005 187.059  0.00  0.00    +0.032 HD
BRANCH  79  82
ATOM     82  C   UNK A   2     154.168 166.258 187.420  0.00  0.00    +0.088 C 
BRANCH  82  83
ATOM     83  C   UNK A   2     154.316 166.067 185.904  0.00  0.00    -0.034 C 
ATOM     84  H   UNK A   2     155.327 166.321 185.566  0.00  0.00    +0.026 HD
ATOM     85  H   UNK A   2     153.640 166.737 185.360  0.00  0.00    +0.026 HD
ATOM     86  H   UNK A   2     154.097 165.035 185.609  0.00  0.00    +0.026 HD
ENDBRANCH  82  83
BRANCH  82  87
ATOM     87  C   UNK A   2     155.449 165.797 188.149  0.00  0.00    +0.073 C 
ATOM     88  H   UNK A   2     156.320 165.802 187.487  0.00  0.00    +0.059 HD
ATOM     89  H   UNK A   2     155.323 164.799 188.578  0.00  0.00    +0.059 HD
BRANCH  87  90
ATOM     90  O   UNK A   2     155.689 166.680 189.253  0.00  0.00    -0.392 OA
ATOM     91  H   UNK A   2     155.423 166.187 190.052  0.00  0.00    +0.210 HD
ENDBRANCH  87  90
ENDBRANCH  82  87
BRANCH  82  92
ATOM     92  O   UNK A   2     154.007 167.670 187.655  0.00  0.00    -0.387 OA
ATOM     93  H   UNK A   2     153.281 167.926 187.044  0.00  0.00    +0.210 HD
ENDBRANCH  82  92
ENDBRANCH  79  82
ENDBRANCH  40  79
BRANCH  23  94
ATOM     94  OD  HYP A   6     146.289 159.431 187.763  0.00  0.00    -0.390 OA
ATOM     95  HD  HYP A   6     145.884 159.792 186.944  0.00  0.00    +0.210 HD
ENDBRANCH  23  94
BRANCH  32  96
ATOM     96  CB  THR A   4     147.622 166.377 193.698  0.00  0.00    +0.079 C 
ATOM     97  HB  THR A   4     146.733 167.009 193.817  0.00  0.00    +0.061 HD
BRANCH  96  98
ATOM     98  CG2 THR A   4     148.538 166.593 194.897  0.00  0.00    -0.037 C 
ATOM     99 HG21 THR A   4     148.238 165.947 195.730  0.00  0.00    +0.026 HD
ATOM    100 HG22 THR A   4     148.504 167.634 195.235  0.00  0.00    +0.026 HD
ATOM    101 HG23 THR A   4     149.573 166.330 194.654  0.00  0.00    +0.026 HD
ENDBRANCH  96  98
BRANCH  96 102
ATOM    102  OG1 THR A   4     147.158 165.010 193.718  0.00  0.00    -0.390 OA
ATOM    103  HG1 THR A   4     146.824 164.837 194.616  0.00  0.00    +0.210 HD
ENDBRANCH  96 102
ENDBRANCH  32  96
TORSDOF 12
ENDMDL
MODEL 3
REMARK VINA RESULT:      -6.2      2.959      8.951
REMARK  Name = Phalloidin_conf2
REMARK  12 active torsions:
REMARK  status: ('A' for Active; 'I' for Inactive)
REMARK    1  A    between atoms: CB_1  and  CA_2
REMARK    2  A    between atoms: CG_24  and  OD_30
REMARK    3  A    between atoms: CA_34  and  CB_53
REMARK    4  A    between atoms: CA_38  and  CB_52
REMARK    5  A    between atoms: C_42  and  C_46
REMARK    6  A    between atoms: C_46  and  C_47
REMARK    7  A    between atoms: C_47  and  C_48
REMARK    8  A    between atoms: C_47  and  C_49
REMARK    9  A    between atoms: C_47  and  O_51
REMARK   10  A    between atoms: C_49  and  O_50
REMARK   11  A    between atoms: CB_53  and  CG2_54
REMARK   12  A    between atoms: CB_53  and  OG1_55
REMARK                            x       y       z     vdW  Elec       q    Type
REMARK                         _______ _______ _______ _____ _____    ______ ____
ROOT
ATOM      1  CA  ALA A   7     145.981 170.292 184.213  0.00  0.00    +0.097 C 
ATOM      2  C   ALA A   7     145.167 170.718 185.451  0.00  0.00    +0.234 C 
ATOM      3  O   ALA A   7     145.682 170.665 186.570  0.00  0.00    -0.274 OA
ATOM      4  N   UNK A   1     143.883 171.173 185.299  0.00  0.00    -0.302 N 
ATOM      5  C   UNK A   1     142.940 171.241 186.438  0.00  0.00    +0.103 C 
ATOM      6  C   UNK A   1     142.642 169.825 186.990  0.00  0.00    +0.002 C 
ATOM      7  C   UNK A   1     142.070 169.715 188.374  0.00  0.00    -0.006 A 
ATOM      8  C   UNK A   5     142.548 168.931 189.410  0.00  0.00    +0.078 A 
ATOM      9  N   UNK A   5     141.735 169.083 190.493  0.00  0.00    -0.349 N 
ATOM     10  C   UNK A   5     140.709 169.947 190.201  0.00  0.00    +0.048 A 
ATOM     11  C   UNK A   5     139.650 170.386 191.006  0.00  0.00    -0.038 A 
ATOM     12  C   UNK A   5     138.721 171.259 190.433  0.00  0.00    -0.060 A 
ATOM     13  C   UNK A   5     138.846 171.667 189.110  0.00  0.00    -0.061 A 
ATOM     14  C   UNK A   5     139.915 171.219 188.322  0.00  0.00    -0.052 A 
ATOM     15  C   UNK A   5     140.876 170.345 188.873  0.00  0.00    +0.004 A 
ATOM     16  S   UNK A   5     143.850 167.793 189.560  0.00  0.00    -0.105 S 
ATOM     17  C   UNK A   5     145.304 168.875 189.384  0.00  0.00    +0.027 C 
ATOM     18  C   UNK A   5     146.654 168.144 189.324  0.00  0.00    +0.109 C 
ATOM     19  C   UNK A   5     147.202 168.057 187.873  0.00  0.00    +0.237 C 
ATOM     20  O   UNK A   5     147.957 168.922 187.410  0.00  0.00    -0.274 OA
ATOM     21  N   HYP A   6     146.819 167.003 187.069  0.00  0.00    -0.286 N 
ATOM     22  CD  HYP A   6     146.155 165.772 187.477  0.00  0.00    +0.042 C 
ATOM     23  CG  HYP A   6     145.989 164.951 186.195  0.00  0.00    +0.073 C 
ATOM     24  CB  HYP A   6     147.072 165.486 185.263  0.00  0.00    +0.002 C 
ATOM     25  CA  HYP A   6     147.227 166.954 185.663  0.00  0.00    +0.105 C 
ATOM     26  C   HYP A   6     146.291 167.888 184.863  0.00  0.00    +0.234 C 
ATOM     27  O   HYP A   6     145.147 167.560 184.549  0.00  0.00    -0.274 OA
ATOM     28  N   ALA A   7     146.794 169.158 184.672  0.00  0.00    -0.303 N 
ATOM     29  N   UNK A   5     147.639 168.923 190.084  0.00  0.00    -0.302 N 
ATOM     30  C   THR A   4     148.377 168.423 191.125  0.00  0.00    +0.237 C 
ATOM     31  O   THR A   4     148.320 167.243 191.469  0.00  0.00    -0.274 OA
ATOM     32  CA  THR A   4     149.376 169.410 191.769  0.00  0.00    +0.125 C 
ATOM     33  N   THR A   4     149.142 170.799 191.369  0.00  0.00    -0.300 N 
ATOM     34  C   ALA A   3     148.203 171.609 191.962  0.00  0.00    +0.234 C 
ATOM     35  O   ALA A   3     147.479 171.230 192.880  0.00  0.00    -0.274 OA
ATOM     36  CA  ALA A   3     148.104 173.017 191.335  0.00  0.00    +0.097 C 
ATOM     37  N   ALA A   3     146.739 173.237 190.886  0.00  0.00    -0.303 N 
ATOM     38  C   UNK A   2     146.240 172.586 189.785  0.00  0.00    +0.234 C 
ATOM     39  O   UNK A   2     146.928 171.795 189.140  0.00  0.00    -0.274 OA
ATOM     40  C   UNK A   2     144.766 172.912 189.428  0.00  0.00    +0.102 C 
ATOM     41  N   UNK A   2     144.410 172.136 188.244  0.00  0.00    -0.302 N 
ATOM     42  C   UNK A   1     143.264 172.315 187.516  0.00  0.00    +0.234 C 
ATOM     43  O   UNK A   1     142.488 173.243 187.750  0.00  0.00    -0.274 OA
ATOM     44  HA  ALA A   7     146.692 171.103 184.015  0.00  0.00    +0.059 HD
ATOM     45  H   UNK A   1     143.486 171.243 184.371  0.00  0.00    +0.150 HD
ATOM     46  H   UNK A   1     142.013 171.601 185.973  0.00  0.00    +0.060 HD
ATOM     47  H   UNK A   1     143.539 169.202 186.926  0.00  0.00    +0.034 HD
ATOM     48  H   UNK A   1     141.936 169.339 186.301  0.00  0.00    +0.034 HD
ATOM     49  H   UNK A   5     141.863 168.606 191.373  0.00  0.00    +0.166 HD
ATOM     50  H   UNK A   5     139.544 170.054 192.033  0.00  0.00    +0.064 HD
ATOM     51  H   UNK A   5     137.883 171.615 191.029  0.00  0.00    +0.062 HD
ATOM     52  H   UNK A   5     138.111 172.343 188.680  0.00  0.00    +0.062 HD
ATOM     53  H   UNK A   5     139.993 171.553 187.292  0.00  0.00    +0.062 HD
ATOM     54  H   UNK A   5     145.168 169.475 188.492  0.00  0.00    +0.040 HD
ATOM     55  H   UNK A   5     145.279 169.554 190.245  0.00  0.00    +0.040 HD
ATOM     56  H   UNK A   5     146.596 167.142 189.758  0.00  0.00    +0.060 HD
ATOM     57  HD1 HYP A   6     145.200 165.989 187.949  0.00  0.00    +0.049 HD
ATOM     58  HD2 HYP A   6     146.815 165.269 188.192  0.00  0.00    +0.049 HD
ATOM     59  HG  HYP A   6     146.110 163.882 186.391  0.00  0.00    +0.061 HD
ATOM     60  HB1 HYP A   6     146.828 165.358 184.203  0.00  0.00    +0.031 HD
ATOM     61  HB2 HYP A   6     148.013 164.960 185.470  0.00  0.00    +0.031 HD
ATOM     62  HA  HYP A   6     148.263 167.286 185.544  0.00  0.00    +0.060 HD
ATOM     63  H   ALA A   7     147.576 169.403 185.280  0.00  0.00    +0.149 HD
ATOM     64  H   UNK A   5     147.809 169.880 189.771  0.00  0.00    +0.150 HD
ATOM     65  HA  THR A   4     149.215 169.337 192.851  0.00  0.00    +0.062 HD
ATOM     66  H   THR A   4     149.760 171.153 190.648  0.00  0.00    +0.150 HD
ATOM     67  HA  ALA A   3     148.758 173.078 190.458  0.00  0.00    +0.059 HD
ATOM     68  H   ALA A   3     146.096 173.788 191.459  0.00  0.00    +0.149 HD
ATOM     69  H   UNK A   2     144.713 173.969 189.146  0.00  0.00    +0.060 HD
ATOM     70  H   UNK A   2     145.125 171.505 187.870  0.00  0.00    +0.150 HD
ENDROOT
BRANCH   1  71
ATOM     71  CB  ALA A   7     145.193 170.021 182.941  0.00  0.00    -0.038 C 
ATOM     72  HB1 ALA A   7     145.239 168.962 182.670  0.00  0.00    +0.025 HD
ATOM     73  HB2 ALA A   7     144.140 170.306 183.030  0.00  0.00    +0.025 HD
ATOM     74  HB3 ALA A   7     145.608 170.598 182.107  0.00  0.00    +0.025 HD
ENDBRANCH   1  71
BRANCH  36  75
ATOM     75  CB  ALA A   3     148.528 174.066 192.351  0.00  0.00    -0.038 C 
ATOM     76  HB1 ALA A   3     149.224 173.658 193.095  0.00  0.00    +0.025 HD
ATOM     77  HB2 ALA A   3     147.660 174.458 192.891  0.00  0.00    +0.025 HD
ATOM     78  HB3 ALA A   3     149.029 174.904 191.853  0.00  0.00    +0.025 HD
ENDBRANCH  36  75
BRANCH  40  79
ATOM     79  C   UNK A   2     143.834 172.564 190.605  0.00  0.00    +0.005 C 
ATOM     80  H   UNK A   2     144.344 171.845 191.261  0.00  0.00    +0.032 HD
ATOM     81  H   UNK A   2     142.934 172.051 190.254  0.00  0.00    +0.032 HD
BRANCH  79  82
ATOM     82  C   UNK A   2     143.386 173.776 191.439  0.00  0.00    +0.088 C 
BRANCH  82  83
ATOM     83  C   UNK A   2     142.085 173.441 192.182  0.00  0.00    -0.034 C 
ATOM     84  H   UNK A   2     142.060 172.390 192.491  0.00  0.00    +0.026 HD
ATOM     85  H   UNK A   2     141.216 173.583 191.528  0.00  0.00    +0.026 HD
ATOM     86  H   UNK A   2     141.960 174.070 193.070  0.00  0.00    +0.026 HD
ENDBRANCH  82  83
BRANCH  82  87
ATOM     87  C   UNK A   2     143.200 175.039 190.569  0.00  0.00    +0.073 C 
ATOM     88  H   UNK A   2     142.188 175.105 190.157  0.00  0.00    +0.059 HD
ATOM     89  H   UNK A   2     143.928 175.070 189.755  0.00  0.00    +0.059 HD
BRANCH  87  90
ATOM     90  O   UNK A   2     143.457 176.194 191.381  0.00  0.00    -0.392 OA
ATOM     91  H   UNK A   2     144.426 176.306 191.385  0.00  0.00    +0.210 HD
ENDBRANCH  87  90
ENDBRANCH  82  87
BRANCH  82  92
ATOM     92  O   UNK A   2     144.382 174.066 192.437  0.00  0.00    -0.387 OA
ATOM     93  H   UNK A   2     144.180 174.989 192.707  0.00  0.00    +0.210 HD
ENDBRANCH  82  92
ENDBRANCH  79  82
ENDBRANCH  40  79
BRANCH  23  94
ATOM     94  OD  HYP A   6     144.693 165.118 185.628  0.00  0.00    -0.390 OA
ATOM     95  HD  HYP A   6     144.401 164.264 185.240  0.00  0.00    +0.210 HD
ENDBRANCH  23  94
BRANCH  32  96
ATOM     96  CB  THR A   4     150.808 168.959 191.381  0.00  0.00    +0.079 C 
ATOM     97  HB  THR A   4     151.184 168.194 192.072  0.00  0.00    +0.061 HD
BRANCH  96  98
ATOM     98  CG2 THR A   4     151.778 170.135 191.380  0.00  0.00    -0.037 C 
ATOM     99 HG21 THR A   4     151.253 171.066 191.141  0.00  0.00    +0.026 HD
ATOM    100 HG22 THR A   4     152.575 169.987 190.645  0.00  0.00    +0.026 HD
ATOM    101 HG23 THR A   4     152.226 170.275 192.370  0.00  0.00    +0.026 HD
ENDBRANCH  96  98
BRANCH  96 102
ATOM    102  OG1 THR A   4     150.813 168.362 190.066  0.00  0.00    -0.390 OA
ATOM    103  HG1 THR A   4     151.254 167.498 190.149  0.00  0.00    +0.210 HD
ENDBRANCH  96 102
ENDBRANCH  32  96
TORSDOF 12
ENDMDL
MODEL 4
REMARK VINA RESULT:      -6.2      3.324      8.458
REMARK  Name = Phalloidin_conf2
REMARK  12 active torsions:
REMARK  status: ('A' for Active; 'I' for Inactive)
REMARK    1  A    between atoms: CB_1  and  CA_2
REMARK    2  A    between atoms: CG_24  and  OD_30
REMARK    3  A    between atoms: CA_34  and  CB_53
REMARK    4  A    between atoms: CA_38  and  CB_52
REMARK    5  A    between atoms: C_42  and  C_46
REMARK    6  A    between atoms: C_46  and  C_47
REMARK    7  A    between atoms: C_47  and  C_48
REMARK    8  A    between atoms: C_47  and  C_49
REMARK    9  A    between atoms: C_47  and  O_51
REMARK   10  A    between atoms: C_49  and  O_50
REMARK   11  A    between atoms: CB_53  and  CG2_54
REMARK   12  A    between atoms: CB_53  and  OG1_55
REMARK                            x       y       z     vdW  Elec       q    Type
REMARK                         _______ _______ _______ _____ _____    ______ ____
ROOT
ATOM      1  CA  ALA A   7     150.729 167.498 191.314  0.00  0.00    +0.097 C 
ATOM      2  C   ALA A   7     149.718 166.963 190.282  0.00  0.00    +0.234 C 
ATOM      3  O   ALA A   7     149.730 165.770 189.974  0.00  0.00    -0.274 OA
ATOM      4  N   UNK A   1     148.796 167.813 189.727  0.00  0.00    -0.302 N 
ATOM      5  C   UNK A   1     148.062 167.467 188.489  0.00  0.00    +0.103 C 
ATOM      6  C   UNK A   1     149.035 167.334 187.291  0.00  0.00    +0.002 C 
ATOM      7  C   UNK A   1     148.561 166.586 186.079  0.00  0.00    -0.006 A 
ATOM      8  C   UNK A   5     149.212 165.547 185.437  0.00  0.00    +0.078 A 
ATOM      9  N   UNK A   5     148.474 165.159 184.359  0.00  0.00    -0.349 N 
ATOM     10  C   UNK A   5     147.342 165.928 184.254  0.00  0.00    +0.048 A 
ATOM     11  C   UNK A   5     146.313 165.884 183.307  0.00  0.00    -0.038 A 
ATOM     12  C   UNK A   5     145.280 166.817 183.429  0.00  0.00    -0.060 A 
ATOM     13  C   UNK A   5     145.286 167.758 184.453  0.00  0.00    -0.061 A 
ATOM     14  C   UNK A   5     146.324 167.785 185.394  0.00  0.00    -0.052 A 
ATOM     15  C   UNK A   5     147.376 166.848 185.304  0.00  0.00    +0.004 A 
ATOM     16  S   UNK A   5     150.735 164.748 185.673  0.00  0.00    -0.105 S 
ATOM     17  C   UNK A   5     150.471 163.919 187.273  0.00  0.00    +0.027 C 
ATOM     18  C   UNK A   5     151.710 163.224 187.856  0.00  0.00    +0.109 C 
ATOM     19  C   UNK A   5     152.360 164.056 188.995  0.00  0.00    +0.237 C 
ATOM     20  O   UNK A   5     152.046 163.894 190.181  0.00  0.00    -0.274 OA
ATOM     21  N   HYP A   6     153.295 165.021 188.677  0.00  0.00    -0.286 N 
ATOM     22  CD  HYP A   6     153.981 165.205 187.405  0.00  0.00    +0.042 C 
ATOM     23  CG  HYP A   6     154.918 166.398 187.613  0.00  0.00    +0.073 C 
ATOM     24  CB  HYP A   6     155.142 166.442 189.121  0.00  0.00    +0.002 C 
ATOM     25  CA  HYP A   6     153.840 165.899 189.714  0.00  0.00    +0.105 C 
ATOM     26  C   HYP A   6     152.805 167.012 189.989  0.00  0.00    +0.234 C 
ATOM     27  O   HYP A   6     152.662 167.976 189.239  0.00  0.00    -0.274 OA
ATOM     28  N   ALA A   7     151.965 166.748 191.050  0.00  0.00    -0.303 N 
ATOM     29  N   UNK A   5     151.288 161.959 188.469  0.00  0.00    -0.302 N 
ATOM     30  C   THR A   4     151.804 160.733 188.138  0.00  0.00    +0.237 C 
ATOM     31  O   THR A   4     152.726 160.600 187.333  0.00  0.00    -0.274 OA
ATOM     32  CA  THR A   4     151.234 159.534 188.926  0.00  0.00    +0.125 C 
ATOM     33  N   THR A   4     150.016 159.867 189.668  0.00  0.00    -0.300 N 
ATOM     34  C   ALA A   3     148.765 159.885 189.100  0.00  0.00    +0.234 C 
ATOM     35  O   ALA A   3     148.566 159.623 187.916  0.00  0.00    -0.274 OA
ATOM     36  CA  ALA A   3     147.642 160.317 190.070  0.00  0.00    +0.097 C 
ATOM     37  N   ALA A   3     146.959 161.472 189.513  0.00  0.00    -0.303 N 
ATOM     38  C   UNK A   2     147.561 162.705 189.479  0.00  0.00    +0.234 C 
ATOM     39  O   UNK A   2     148.699 162.876 189.918  0.00  0.00    -0.274 OA
ATOM     40  C   UNK A   2     146.716 163.844 188.849  0.00  0.00    +0.102 C 
ATOM     41  N   UNK A   2     147.508 165.069 188.897  0.00  0.00    -0.302 N 
ATOM     42  C   UNK A   1     147.020 166.318 188.624  0.00  0.00    +0.234 C 
ATOM     43  O   UNK A   1     145.820 166.514 188.423  0.00  0.00    -0.274 OA
ATOM     44  HA  ALA A   7     150.381 167.156 192.296  0.00  0.00    +0.059 HD
ATOM     45  H   UNK A   1     148.776 168.783 190.014  0.00  0.00    +0.150 HD
ATOM     46  H   UNK A   1     147.451 168.360 188.303  0.00  0.00    +0.060 HD
ATOM     47  H   UNK A   1     149.983 166.903 187.626  0.00  0.00    +0.034 HD
ATOM     48  H   UNK A   1     149.309 168.349 186.968  0.00  0.00    +0.034 HD
ATOM     49  H   UNK A   5     148.742 164.425 183.720  0.00  0.00    +0.166 HD
ATOM     50  H   UNK A   5     146.318 165.160 182.499  0.00  0.00    +0.064 HD
ATOM     51  H   UNK A   5     144.467 166.814 182.706  0.00  0.00    +0.062 HD
ATOM     52  H   UNK A   5     144.476 168.480 184.530  0.00  0.00    +0.062 HD
ATOM     53  H   UNK A   5     146.306 168.526 186.186  0.00  0.00    +0.062 HD
ATOM     54  H   UNK A   5     150.096 164.657 187.973  0.00  0.00    +0.040 HD
ATOM     55  H   UNK A   5     149.671 163.188 187.103  0.00  0.00    +0.040 HD
ATOM     56  H   UNK A   5     152.456 163.003 187.087  0.00  0.00    +0.060 HD
ATOM     57  HD1 HYP A   6     153.265 165.383 186.605  0.00  0.00    +0.049 HD
ATOM     58  HD2 HYP A   6     154.541 164.287 187.202  0.00  0.00    +0.049 HD
ATOM     59  HG  HYP A   6     155.856 166.266 187.065  0.00  0.00    +0.061 HD
ATOM     60  HB1 HYP A   6     155.391 167.442 189.490  0.00  0.00    +0.031 HD
ATOM     61  HB2 HYP A   6     155.962 165.761 189.381  0.00  0.00    +0.031 HD
ATOM     62  HA  HYP A   6     154.032 165.342 190.637  0.00  0.00    +0.060 HD
ATOM     63  H   ALA A   7     151.953 165.773 191.353  0.00  0.00    +0.149 HD
ATOM     64  H   UNK A   5     150.602 162.019 189.224  0.00  0.00    +0.150 HD
ATOM     65  HA  THR A   4     150.978 158.776 188.177  0.00  0.00    +0.062 HD
ATOM     66  H   THR A   4     150.146 160.038 190.660  0.00  0.00    +0.150 HD
ATOM     67  HA  ALA A   3     148.078 160.616 191.029  0.00  0.00    +0.059 HD
ATOM     68  H   ALA A   3     146.066 161.352 189.028  0.00  0.00    +0.149 HD
ATOM     69  H   UNK A   2     145.839 164.005 189.485  0.00  0.00    +0.060 HD
ATOM     70  H   UNK A   2     148.456 164.994 189.279  0.00  0.00    +0.150 HD
ENDROOT
BRANCH   1  71
ATOM     71  CB  ALA A   7     150.915 169.007 191.367  0.00  0.00    -0.038 C 
ATOM     72  HB1 ALA A   7     150.848 169.373 192.396  0.00  0.00    +0.025 HD
ATOM     73  HB2 ALA A   7     151.876 169.327 190.951  0.00  0.00    +0.025 HD
ATOM     74  HB3 ALA A   7     150.135 169.506 190.783  0.00  0.00    +0.025 HD
ENDBRANCH   1  71
BRANCH  36  75
ATOM     75  CB  ALA A   3     146.682 159.160 190.294  0.00  0.00    -0.038 C 
ATOM     76  HB1 ALA A   3     146.182 158.855 189.367  0.00  0.00    +0.025 HD
ATOM     77  HB2 ALA A   3     145.902 159.435 191.014  0.00  0.00    +0.025 HD
ATOM     78  HB3 ALA A   3     147.215 158.286 190.685  0.00  0.00    +0.025 HD
ENDBRANCH  36  75
BRANCH  40  79
ATOM     79  C   UNK A   2     146.340 163.498 187.396  0.00  0.00    +0.005 C 
ATOM     80  H   UNK A   2     146.876 162.585 187.097  0.00  0.00    +0.032 HD
ATOM     81  H   UNK A   2     146.681 164.275 186.706  0.00  0.00    +0.032 HD
BRANCH  79  82
ATOM     82  C   UNK A   2     144.833 163.296 187.162  0.00  0.00    +0.088 C 
BRANCH  82  83
ATOM     83  C   UNK A   2     144.311 164.365 186.191  0.00  0.00    -0.034 C 
ATOM     84  H   UNK A   2     144.571 164.125 185.155  0.00  0.00    +0.026 HD
ATOM     85  H   UNK A   2     144.773 165.337 186.400  0.00  0.00    +0.026 HD
ATOM     86  H   UNK A   2     143.223 164.472 186.264  0.00  0.00    +0.026 HD
ENDBRANCH  82  83
BRANCH  82  87
ATOM     87  C   UNK A   2     144.033 163.330 188.483  0.00  0.00    +0.073 C 
ATOM     88  H   UNK A   2     143.040 163.768 188.347  0.00  0.00    +0.059 HD
ATOM     89  H   UNK A   2     144.572 163.881 189.258  0.00  0.00    +0.059 HD
BRANCH  87  90
ATOM     90  O   UNK A   2     143.896 161.987 188.967  0.00  0.00    -0.392 OA
ATOM     91  H   UNK A   2     144.263 161.991 189.871  0.00  0.00    +0.210 HD
ENDBRANCH  87  90
ENDBRANCH  82  87
BRANCH  82  92
ATOM     92  O   UNK A   2     144.612 162.015 186.541  0.00  0.00    -0.387 OA
ATOM     93  H   UNK A   2     144.357 161.434 187.291  0.00  0.00    +0.210 HD
ENDBRANCH  82  92
ENDBRANCH  79  82
ENDBRANCH  40  79
BRANCH  23  94
ATOM     94  OD  HYP A   6     154.338 167.611 187.143  0.00  0.00    -0.390 OA
ATOM     95  HD  HYP A   6     154.274 168.246 187.890  0.00  0.00    +0.210 HD
ENDBRANCH  23  94
BRANCH  32  96
ATOM     96  CB  THR A   4     152.341 159.024 189.885  0.00  0.00    +0.079 C 
ATOM     97  HB  THR A   4     152.891 158.183 189.444  0.00  0.00    +0.061 HD
BRANCH  96  98
ATOM     98  CG2 THR A   4     151.756 158.578 191.220  0.00  0.00    -0.037 C 
ATOM     99 HG21 THR A   4     150.811 158.047 191.067  0.00  0.00    +0.026 HD
ATOM    100 HG22 THR A   4     151.571 159.436 191.874  0.00  0.00    +0.026 HD
ATOM    101 HG23 THR A   4     152.428 157.879 191.730  0.00  0.00    +0.026 HD
ENDBRANCH  96  98
BRANCH  96 102
ATOM    102  OG1 THR A   4     153.312 160.062 190.135  0.00  0.00    -0.390 OA
ATOM    103  HG1 THR A   4     153.337 160.200 191.099  0.00  0.00    +0.210 HD
ENDBRANCH  96 102
ENDBRANCH  32  96
TORSDOF 12
ENDMDL
MODEL 5
REMARK VINA RESULT:      -5.8      2.606      6.604
REMARK  Name = Phalloidin_conf2
REMARK  12 active torsions:
REMARK  status: ('A' for Active; 'I' for Inactive)
REMARK    1  A    between atoms: CB_1  and  CA_2
REMARK    2  A    between atoms: CG_24  and  OD_30
REMARK    3  A    between atoms: CA_34  and  CB_53
REMARK    4  A    between atoms: CA_38  and  CB_52
REMARK    5  A    between atoms: C_42  and  C_46
REMARK    6  A    between atoms: C_46  and  C_47
REMARK    7  A    between atoms: C_47  and  C_48
REMARK    8  A    between atoms: C_47  and  C_49
REMARK    9  A    between atoms: C_47  and  O_51
REMARK   10  A    between atoms: C_49  and  O_50
REMARK   11  A    between atoms: CB_53  and  CG2_54
REMARK   12  A    between atoms: CB_53  and  OG1_55
REMARK                            x       y       z     vdW  Elec       q    Type
REMARK                         _______ _______ _______ _____ _____    ______ ____
ROOT
ATOM      1  CA  ALA A   7     143.520 165.415 189.874  0.00  0.00    +0.097 C 
ATOM      2  C   ALA A   7     145.023 165.752 189.871  0.00  0.00    +0.234 C 
ATOM      3  O   ALA A   7     145.386 166.929 189.941  0.00  0.00    -0.274 OA
ATOM      4  N   UNK A   1     145.949 164.743 189.812  0.00  0.00    -0.302 N 
ATOM      5  C   UNK A   1     147.358 164.998 189.437  0.00  0.00    +0.103 C 
ATOM      6  C   UNK A   1     147.454 165.514 187.979  0.00  0.00    +0.002 C 
ATOM      7  C   UNK A   1     148.712 166.222 187.565  0.00  0.00    -0.006 A 
ATOM      8  C   UNK A   5     148.804 167.459 186.952  0.00  0.00    +0.078 A 
ATOM      9  N   UNK A   5     150.116 167.737 186.708  0.00  0.00    -0.349 N 
ATOM     10  C   UNK A   5     150.910 166.701 187.134  0.00  0.00    +0.048 A 
ATOM     11  C   UNK A   5     152.301 166.556 187.079  0.00  0.00    -0.038 A 
ATOM     12  C   UNK A   5     152.848 165.367 187.571  0.00  0.00    -0.060 A 
ATOM     13  C   UNK A   5     152.033 164.366 188.086  0.00  0.00    -0.061 A 
ATOM     14  C   UNK A   5     150.642 164.530 188.134  0.00  0.00    -0.052 A 
ATOM     15  C   UNK A   5     150.060 165.723 187.656  0.00  0.00    +0.004 A 
ATOM     16  S   UNK A   5     147.640 168.617 186.389  0.00  0.00    -0.105 S 
ATOM     17  C   UNK A   5     146.892 169.175 187.952  0.00  0.00    +0.027 C 
ATOM     18  C   UNK A   5     145.692 170.121 187.796  0.00  0.00    +0.109 C 
ATOM     19  C   UNK A   5     144.342 169.389 188.026  0.00  0.00    +0.237 C 
ATOM     20  O   UNK A   5     143.811 169.337 189.142  0.00  0.00    -0.274 OA
ATOM     21  N   HYP A   6     143.729 168.755 186.964  0.00  0.00    -0.286 N 
ATOM     22  CD  HYP A   6     144.042 168.896 185.547  0.00  0.00    +0.042 C 
ATOM     23  CG  HYP A   6     143.046 167.992 184.815  0.00  0.00    +0.073 C 
ATOM     24  CB  HYP A   6     141.875 167.858 185.785  0.00  0.00    +0.002 C 
ATOM     25  CA  HYP A   6     142.517 167.960 187.171  0.00  0.00    +0.105 C 
ATOM     26  C   HYP A   6     142.940 166.584 187.730  0.00  0.00    +0.234 C 
ATOM     27  O   HYP A   6     143.405 165.699 187.014  0.00  0.00    -0.274 OA
ATOM     28  N   ALA A   7     142.891 166.498 189.106  0.00  0.00    -0.303 N 
ATOM     29  N   UNK A   5     145.776 171.153 188.837  0.00  0.00    -0.302 N 
ATOM     30  C   THR A   4     145.788 172.500 188.586  0.00  0.00    +0.237 C 
ATOM     31  O   THR A   4     145.662 172.962 187.452  0.00  0.00    -0.274 OA
ATOM     32  CA  THR A   4     145.854 173.411 189.832  0.00  0.00    +0.125 C 
ATOM     33  N   THR A   4     146.212 172.683 191.051  0.00  0.00    -0.300 N 
ATOM     34  C   ALA A   3     147.506 172.378 191.400  0.00  0.00    +0.234 C 
ATOM     35  O   ALA A   3     148.474 172.694 190.711  0.00  0.00    -0.274 OA
ATOM     36  CA  ALA A   3     147.629 171.560 192.703  0.00  0.00    +0.097 C 
ATOM     37  N   ALA A   3     148.337 170.323 192.417  0.00  0.00    -0.303 N 
ATOM     38  C   UNK A   2     147.743 169.313 191.703  0.00  0.00    +0.234 C 
ATOM     39  O   UNK A   2     146.591 169.417 191.280  0.00  0.00    -0.274 OA
ATOM     40  C   UNK A   2     148.621 168.056 191.467  0.00  0.00    +0.102 C 
ATOM     41  N   UNK A   2     147.833 167.098 190.697  0.00  0.00    -0.302 N 
ATOM     42  C   UNK A   1     148.197 165.797 190.476  0.00  0.00    +0.234 C 
ATOM     43  O   UNK A   1     149.185 165.300 191.020  0.00  0.00    -0.274 OA
ATOM     44  HA  ALA A   7     143.174 165.546 190.906  0.00  0.00    +0.059 HD
ATOM     45  H   UNK A   1     145.636 163.782 189.789  0.00  0.00    +0.150 HD
ATOM     46  H   UNK A   1     147.805 163.995 189.448  0.00  0.00    +0.060 HD
ATOM     47  H   UNK A   1     146.596 166.153 187.751  0.00  0.00    +0.034 HD
ATOM     48  H   UNK A   1     147.324 164.651 187.309  0.00  0.00    +0.034 HD
ATOM     49  H   UNK A   5     150.447 168.576 186.256  0.00  0.00    +0.166 HD
ATOM     50  H   UNK A   5     152.935 167.331 186.662  0.00  0.00    +0.064 HD
ATOM     51  H   UNK A   5     153.926 165.221 187.538  0.00  0.00    +0.062 HD
ATOM     52  H   UNK A   5     152.476 163.445 188.458  0.00  0.00    +0.062 HD
ATOM     53  H   UNK A   5     150.026 163.736 188.543  0.00  0.00    +0.062 HD
ATOM     54  H   UNK A   5     146.600 168.296 188.515  0.00  0.00    +0.040 HD
ATOM     55  H   UNK A   5     147.696 169.671 188.509  0.00  0.00    +0.040 HD
ATOM     56  H   UNK A   5     145.684 170.615 186.821  0.00  0.00    +0.060 HD
ATOM     57  HD1 HYP A   6     145.072 168.611 185.351  0.00  0.00    +0.049 HD
ATOM     58  HD2 HYP A   6     143.893 169.949 185.285  0.00  0.00    +0.049 HD
ATOM     59  HG  HYP A   6     142.738 168.432 183.862  0.00  0.00    +0.061 HD
ATOM     60  HB1 HYP A   6     141.307 166.933 185.648  0.00  0.00    +0.031 HD
ATOM     61  HB2 HYP A   6     141.197 168.709 185.645  0.00  0.00    +0.031 HD
ATOM     62  HA  HYP A   6     141.843 168.452 187.880  0.00  0.00    +0.060 HD
ATOM     63  H   ALA A   7     142.837 167.396 189.588  0.00  0.00    +0.149 HD
ATOM     64  H   UNK A   5     145.771 170.831 189.806  0.00  0.00    +0.150 HD
ATOM     65  HA  THR A   4     146.647 174.141 189.628  0.00  0.00    +0.062 HD
ATOM     66  H   THR A   4     145.436 172.454 191.663  0.00  0.00    +0.150 HD
ATOM     67  HA  ALA A   3     146.630 171.296 193.069  0.00  0.00    +0.059 HD
ATOM     68  H   ALA A   3     149.332 170.242 192.641  0.00  0.00    +0.149 HD
ATOM     69  H   UNK A   2     148.821 167.597 192.440  0.00  0.00    +0.060 HD
ATOM     70  H   UNK A   2     146.893 167.391 190.413  0.00  0.00    +0.150 HD
ENDROOT
BRANCH   1  71
ATOM     71  CB  ALA A   7     143.135 164.018 189.412  0.00  0.00    -0.038 C 
ATOM     72  HB1 ALA A   7     142.314 164.056 188.689  0.00  0.00    +0.025 HD
ATOM     73  HB2 ALA A   7     143.971 163.482 188.951  0.00  0.00    +0.025 HD
ATOM     74  HB3 ALA A   7     142.803 163.414 190.263  0.00  0.00    +0.025 HD
ENDBRANCH   1  71
BRANCH  36  75
ATOM     75  CB  ALA A   3     148.350 172.379 193.762  0.00  0.00    -0.038 C 
ATOM     76  HB1 ALA A   3     147.651 172.948 194.388  0.00  0.00    +0.025 HD
ATOM     77  HB2 ALA A   3     149.035 173.097 193.298  0.00  0.00    +0.025 HD
ATOM     78  HB3 ALA A   3     148.932 171.728 194.423  0.00  0.00    +0.025 HD
ENDBRANCH  36  75
BRANCH  40  79
ATOM     79  C   UNK A   2     149.909 168.430 190.710  0.00  0.00    +0.005 C 
ATOM     80  H   UNK A   2     149.799 169.445 190.299  0.00  0.00    +0.032 HD
ATOM     81  H   UNK A   2     150.058 167.781 189.842  0.00  0.00    +0.032 HD
BRANCH  79  82
ATOM     82  C   UNK A   2     151.187 168.370 191.564  0.00  0.00    +0.088 C 
BRANCH  82  83
ATOM     83  C   UNK A   2     150.907 167.597 192.861  0.00  0.00    -0.034 C 
ATOM     84  H   UNK A   2     150.657 168.275 193.684  0.00  0.00    +0.026 HD
ATOM     85  H   UNK A   2     151.799 167.047 193.185  0.00  0.00    +0.026 HD
ATOM     86  H   UNK A   2     150.086 166.884 192.731  0.00  0.00    +0.026 HD
ENDBRANCH  82  83
BRANCH  82  87
ATOM     87  C   UNK A   2     151.736 169.778 191.883  0.00  0.00    +0.073 C 
ATOM     88  H   UNK A   2     152.781 169.887 191.577  0.00  0.00    +0.059 HD
ATOM     89  H   UNK A   2     151.641 170.007 192.948  0.00  0.00    +0.059 HD
BRANCH  87  90
ATOM     90  O   UNK A   2     150.936 170.747 191.191  0.00  0.00    -0.392 OA
ATOM     91  H   UNK A   2     150.695 171.418 191.858  0.00  0.00    +0.210 HD
ENDBRANCH  87  90
ENDBRANCH  82  87
BRANCH  82  92
ATOM     92  O   UNK A   2     152.207 167.646 190.850  0.00  0.00    -0.387 OA
ATOM     93  H   UNK A   2     152.681 168.346 190.348  0.00  0.00    +0.210 HD
ENDBRANCH  82  92
ENDBRANCH  79  82
ENDBRANCH  40  79
BRANCH  23  94
ATOM     94  OD  HYP A   6     143.612 166.720 184.515  0.00  0.00    -0.390 OA
ATOM     95  HD  HYP A   6     144.237 166.818 183.763  0.00  0.00    +0.210 HD
ENDBRANCH  23  94
BRANCH  32  96
ATOM     96  CB  THR A   4     144.477 174.105 189.988  0.00  0.00    +0.079 C 
ATOM     97  HB  THR A   4     144.506 175.134 189.610  0.00  0.00    +0.061 HD
BRANCH  96  98
ATOM     98  CG2 THR A   4     144.034 174.135 191.447  0.00  0.00    -0.037 C 
ATOM     99 HG21 THR A   4     143.354 174.976 191.624  0.00  0.00    +0.026 HD
ATOM    100 HG22 THR A   4     144.893 174.236 192.117  0.00  0.00    +0.026 HD
ATOM    101 HG23 THR A   4     143.481 173.226 191.709  0.00  0.00    +0.026 HD
ENDBRANCH  96  98
BRANCH  96 102
ATOM    102  OG1 THR A   4     143.470 173.413 189.220  0.00  0.00    -0.390 OA
ATOM    103  HG1 THR A   4     142.929 172.907 189.851  0.00  0.00    +0.210 HD
ENDBRANCH  96 102
ENDBRANCH  32  96
TORSDOF 12
ENDMDL
MODEL 6
REMARK VINA RESULT:      -5.8      3.180      7.744
REMARK  Name = Phalloidin_conf2
REMARK  12 active torsions:
REMARK  status: ('A' for Active; 'I' for Inactive)
REMARK    1  A    between atoms: CB_1  and  CA_2
REMARK    2  A    between atoms: CG_24  and  OD_30
REMARK    3  A    between atoms: CA_34  and  CB_53
REMARK    4  A    between atoms: CA_38  and  CB_52
REMARK    5  A    between atoms: C_42  and  C_46
REMARK    6  A    between atoms: C_46  and  C_47
REMARK    7  A    between atoms: C_47  and  C_48
REMARK    8  A    between atoms: C_47  and  C_49
REMARK    9  A    between atoms: C_47  and  O_51
REMARK   10  A    between atoms: C_49  and  O_50
REMARK   11  A    between atoms: CB_53  and  CG2_54
REMARK   12  A    between atoms: CB_53  and  OG1_55
REMARK                            x       y       z     vdW  Elec       q    Type
REMARK                         _______ _______ _______ _____ _____    ______ ____
ROOT
ATOM      1  CA  ALA A   7     147.664 165.893 194.153  0.00  0.00    +0.097 C 
ATOM      2  C   ALA A   7     147.128 165.828 192.710  0.00  0.00    +0.234 C 
ATOM      3  O   ALA A   7     147.590 164.998 191.923  0.00  0.00    -0.274 OA
ATOM      4  N   UNK A   1     146.128 166.677 192.314  0.00  0.00    -0.302 N 
ATOM      5  C   UNK A   1     145.832 166.922 190.885  0.00  0.00    +0.103 C 
ATOM      6  C   UNK A   1     147.034 167.605 190.184  0.00  0.00    +0.002 C 
ATOM      7  C   UNK A   1     147.101 167.544 188.685  0.00  0.00    -0.006 A 
ATOM      8  C   UNK A   5     148.175 167.125 187.919  0.00  0.00    +0.078 A 
ATOM      9  N   UNK A   5     147.854 167.250 186.600  0.00  0.00    -0.349 N 
ATOM     10  C   UNK A   5     146.588 167.760 186.463  0.00  0.00    +0.048 A 
ATOM     11  C   UNK A   5     145.859 168.055 185.304  0.00  0.00    -0.038 A 
ATOM     12  C   UNK A   5     144.581 168.597 185.463  0.00  0.00    -0.060 A 
ATOM     13  C   UNK A   5     144.062 168.841 186.729  0.00  0.00    -0.061 A 
ATOM     14  C   UNK A   5     144.805 168.537 187.878  0.00  0.00    -0.052 A 
ATOM     15  C   UNK A   5     146.094 167.978 187.752  0.00  0.00    +0.004 A 
ATOM     16  S   UNK A   5     149.783 166.586 188.287  0.00  0.00    -0.105 S 
ATOM     17  C   UNK A   5     149.456 165.006 189.132  0.00  0.00    +0.027 C 
ATOM     18  C   UNK A   5     150.693 164.323 189.733  0.00  0.00    +0.109 C 
ATOM     19  C   UNK A   5     150.777 164.521 191.271  0.00  0.00    +0.237 C 
ATOM     20  O   UNK A   5     150.280 163.708 192.060  0.00  0.00    -0.274 OA
ATOM     21  N   HYP A   6     151.399 165.646 191.774  0.00  0.00    -0.286 N 
ATOM     22  CD  HYP A   6     152.249 166.585 191.054  0.00  0.00    +0.042 C 
ATOM     23  CG  HYP A   6     152.685 167.622 192.092  0.00  0.00    +0.073 C 
ATOM     24  CB  HYP A   6     152.548 166.899 193.428  0.00  0.00    +0.002 C 
ATOM     25  CA  HYP A   6     151.393 165.919 193.212  0.00  0.00    +0.105 C 
ATOM     26  C   HYP A   6     150.022 166.530 193.576  0.00  0.00    +0.234 C 
ATOM     27  O   HYP A   6     149.745 167.706 193.346  0.00  0.00    -0.274 OA
ATOM     28  N   ALA A   7     149.100 165.611 194.033  0.00  0.00    -0.303 N 
ATOM     29  N   UNK A   5     150.576 162.876 189.516  0.00  0.00    -0.302 N 
ATOM     30  C   THR A   4     151.517 162.115 188.873  0.00  0.00    +0.237 C 
ATOM     31  O   THR A   4     152.585 162.581 188.477  0.00  0.00    -0.274 OA
ATOM     32  CA  THR A   4     151.204 160.605 188.778  0.00  0.00    +0.125 C 
ATOM     33  N   THR A   4     149.813 160.290 189.109  0.00  0.00    -0.300 N 
ATOM     34  C   ALA A   3     148.777 160.400 188.212  0.00  0.00    +0.234 C 
ATOM     35  O   ALA A   3     148.936 160.775 187.052  0.00  0.00    -0.274 OA
ATOM     36  CA  ALA A   3     147.393 160.063 188.807  0.00  0.00    +0.097 C 
ATOM     37  N   ALA A   3     146.514 161.207 188.632  0.00  0.00    -0.303 N 
ATOM     38  C   UNK A   2     146.680 162.351 189.372  0.00  0.00    +0.234 C 
ATOM     39  O   UNK A   2     147.579 162.449 190.209  0.00  0.00    -0.274 OA
ATOM     40  C   UNK A   2     145.674 163.493 189.072  0.00  0.00    +0.102 C 
ATOM     41  N   UNK A   2     146.002 164.618 189.943  0.00  0.00    -0.302 N 
ATOM     42  C   UNK A   1     145.211 165.723 190.111  0.00  0.00    +0.234 C 
ATOM     43  O   UNK A   1     144.086 165.795 189.613  0.00  0.00    -0.274 OA
ATOM     44  HA  ALA A   7     147.238 165.033 194.682  0.00  0.00    +0.059 HD
ATOM     45  H   UNK A   1     145.736 167.329 192.980  0.00  0.00    +0.150 HD
ATOM     46  H   UNK A   1     145.024 167.664 190.920  0.00  0.00    +0.060 HD
ATOM     47  H   UNK A   1     147.973 167.224 190.597  0.00  0.00    +0.034 HD
ATOM     48  H   UNK A   1     147.031 168.666 190.473  0.00  0.00    +0.034 HD
ATOM     49  H   UNK A   5     148.476 167.021 185.838  0.00  0.00    +0.166 HD
ATOM     50  H   UNK A   5     146.273 167.880 184.317  0.00  0.00    +0.064 HD
ATOM     51  H   UNK A   5     143.991 168.843 184.582  0.00  0.00    +0.062 HD
ATOM     52  H   UNK A   5     143.067 169.269 186.834  0.00  0.00    +0.062 HD
ATOM     53  H   UNK A   5     144.377 168.733 188.856  0.00  0.00    +0.062 HD
ATOM     54  H   UNK A   5     148.720 165.189 189.908  0.00  0.00    +0.040 HD
ATOM     55  H   UNK A   5     148.990 164.356 188.382  0.00  0.00    +0.040 HD
ATOM     56  H   UNK A   5     151.619 164.667 189.264  0.00  0.00    +0.060 HD
ATOM     57  HD1 HYP A   6     151.708 167.038 190.227  0.00  0.00    +0.049 HD
ATOM     58  HD2 HYP A   6     153.105 166.019 190.670  0.00  0.00    +0.049 HD
ATOM     59  HG  HYP A   6     153.712 167.956 191.912  0.00  0.00    +0.061 HD
ATOM     60  HB1 HYP A   6     152.376 167.578 194.269  0.00  0.00    +0.031 HD
ATOM     61  HB2 HYP A   6     153.466 166.329 193.622  0.00  0.00    +0.031 HD
ATOM     62  HA  HYP A   6     151.547 164.998 193.785  0.00  0.00    +0.060 HD
ATOM     63  H   ALA A   7     149.336 164.638 193.837  0.00  0.00    +0.149 HD
ATOM     64  H   UNK A   5     149.760 162.414 189.922  0.00  0.00    +0.150 HD
ATOM     65  HA  THR A   4     151.374 160.328 187.731  0.00  0.00    +0.062 HD
ATOM     66  H   THR A   4     149.661 159.930 190.045  0.00  0.00    +0.150 HD
ATOM     67  HA  ALA A   3     147.488 159.876 189.883  0.00  0.00    +0.059 HD
ATOM     68  H   ALA A   3     145.835 161.216 187.867  0.00  0.00    +0.149 HD
ATOM     69  H   UNK A   2     144.676 163.147 189.359  0.00  0.00    +0.060 HD
ATOM     70  H   UNK A   2     146.816 164.510 190.555  0.00  0.00    +0.150 HD
ENDROOT
BRANCH   1  71
ATOM     71  CB  ALA A   7     147.339 167.152 194.943  0.00  0.00    -0.038 C 
ATOM     72  HB1 ALA A   7     146.332 167.101 195.365  0.00  0.00    +0.025 HD
ATOM     73  HB2 ALA A   7     148.045 167.328 195.761  0.00  0.00    +0.025 HD
ATOM     74  HB3 ALA A   7     147.385 168.032 194.291  0.00  0.00    +0.025 HD
ENDBRANCH   1  71
BRANCH  36  75
ATOM     75  CB  ALA A   3     146.829 158.822 188.132  0.00  0.00    -0.038 C 
ATOM     76  HB1 ALA A   3     146.330 158.157 188.847  0.00  0.00    +0.025 HD
ATOM     77  HB2 ALA A   3     147.626 158.247 187.648  0.00  0.00    +0.025 HD
ATOM     78  HB3 ALA A   3     146.094 159.100 187.369  0.00  0.00    +0.025 HD
ENDBRANCH  36  75
BRANCH  40  79
ATOM     79  C   UNK A   2     145.756 163.911 187.592  0.00  0.00    +0.005 C 
ATOM     80  H   UNK A   2     146.611 163.402 187.125  0.00  0.00    +0.032 HD
ATOM     81  H   UNK A   2     145.967 164.980 187.497  0.00  0.00    +0.032 HD
BRANCH  79  82
ATOM     82  C   UNK A   2     144.486 163.612 186.777  0.00  0.00    +0.088 C 
BRANCH  82  83
ATOM     83  C   UNK A   2     143.916 164.918 186.207  0.00  0.00    -0.034 C 
ATOM     84  H   UNK A   2     142.887 164.785 185.854  0.00  0.00    +0.026 HD
ATOM     85  H   UNK A   2     144.493 165.245 185.333  0.00  0.00    +0.026 HD
ATOM     86  H   UNK A   2     143.930 165.719 186.954  0.00  0.00    +0.026 HD
ENDBRANCH  82  83
BRANCH  82  87
ATOM     87  C   UNK A   2     143.418 162.880 187.620  0.00  0.00    +0.073 C 
ATOM     88  H   UNK A   2     142.404 163.184 187.345  0.00  0.00    +0.059 HD
ATOM     89  H   UNK A   2     143.573 163.050 188.689  0.00  0.00    +0.059 HD
BRANCH  87  90
ATOM     90  O   UNK A   2     143.562 161.468 187.413  0.00  0.00    -0.392 OA
ATOM     91  H   UNK A   2     143.562 161.339 186.446  0.00  0.00    +0.210 HD
ENDBRANCH  87  90
ENDBRANCH  82  87
BRANCH  82  92
ATOM     92  O   UNK A   2     144.822 162.771 185.657  0.00  0.00    -0.387 OA
ATOM     93  H   UNK A   2     145.324 163.369 185.060  0.00  0.00    +0.210 HD
ENDBRANCH  82  92
ENDBRANCH  79  82
ENDBRANCH  40  79
BRANCH  23  94
ATOM     94  OD  HYP A   6     151.865 168.786 192.050  0.00  0.00    -0.390 OA
ATOM     95  HD  HYP A   6     152.439 169.581 192.003  0.00  0.00    +0.210 HD
ENDBRANCH  23  94
BRANCH  32  96
ATOM     96  CB  THR A   4     152.178 159.857 189.724  0.00  0.00    +0.079 C 
ATOM     97  HB  THR A   4     152.905 159.262 189.155  0.00  0.00    +0.061 HD
BRANCH  96  98
ATOM     98  CG2 THR A   4     151.427 158.929 190.673  0.00  0.00    -0.037 C 
ATOM     99 HG21 THR A   4     150.525 159.420 191.055  0.00  0.00    +0.026 HD
ATOM    100 HG22 THR A   4     152.054 158.645 191.523  0.00  0.00    +0.026 HD
ATOM    101 HG23 THR A   4     151.094 158.023 190.155  0.00  0.00    +0.026 HD
ENDBRANCH  96  98
BRANCH  96 102
ATOM    102  OG1 THR A   4     152.942 160.794 190.511  0.00  0.00    -0.390 OA
ATOM    103  HG1 THR A   4     152.376 161.573 190.653  0.00  0.00    +0.210 HD
ENDBRANCH  96 102
ENDBRANCH  32  96
TORSDOF 12
ENDMDL
MODEL 7
REMARK VINA RESULT:      -5.8      2.936      7.773
REMARK  Name = Phalloidin_conf2
REMARK  12 active torsions:
REMARK  status: ('A' for Active; 'I' for Inactive)
REMARK    1  A    between atoms: CB_1  and  CA_2
REMARK    2  A    between atoms: CG_24  and  OD_30
REMARK    3  A    between atoms: CA_34  and  CB_53
REMARK    4  A    between atoms: CA_38  and  CB_52
REMARK    5  A    between atoms: C_42  and  C_46
REMARK    6  A    between atoms: C_46  and  C_47
REMARK    7  A    between atoms: C_47  and  C_48
REMARK    8  A    between atoms: C_47  and  C_49
REMARK    9  A    between atoms: C_47  and  O_51
REMARK   10  A    between atoms: C_49  and  O_50
REMARK   11  A    between atoms: CB_53  and  CG2_54
REMARK   12  A    between atoms: CB_53  and  OG1_55
REMARK                            x       y       z     vdW  Elec       q    Type
REMARK                         _______ _______ _______ _____ _____    ______ ____
ROOT
ATOM      1  CA  ALA A   7     144.931 167.915 185.247  0.00  0.00    +0.097 C 
ATOM      2  C   ALA A   7     144.831 168.938 186.395  0.00  0.00    +0.234 C 
ATOM      3  O   ALA A   7     145.401 168.714 187.466  0.00  0.00    -0.274 OA
ATOM      4  N   UNK A   1     144.128 170.101 186.213  0.00  0.00    -0.302 N 
ATOM      5  C   UNK A   1     143.686 170.932 187.356  0.00  0.00    +0.103 C 
ATOM      6  C   UNK A   1     142.672 170.159 188.238  0.00  0.00    +0.002 C 
ATOM      7  C   UNK A   1     142.444 170.648 189.639  0.00  0.00    -0.006 A 
ATOM      8  C   UNK A   5     142.506 169.897 190.801  0.00  0.00    +0.078 A 
ATOM      9  N   UNK A   5     142.204 170.696 191.862  0.00  0.00    -0.349 N 
ATOM     10  C   UNK A   5     141.926 171.971 191.436  0.00  0.00    +0.048 A 
ATOM     11  C   UNK A   5     141.567 173.105 192.174  0.00  0.00    -0.038 A 
ATOM     12  C   UNK A   5     141.313 174.284 191.467  0.00  0.00    -0.060 A 
ATOM     13  C   UNK A   5     141.408 174.319 190.080  0.00  0.00    -0.061 A 
ATOM     14  C   UNK A   5     141.771 173.173 189.359  0.00  0.00    -0.052 A 
ATOM     15  C   UNK A   5     142.045 171.970 190.044  0.00  0.00    +0.004 A 
ATOM     16  S   UNK A   5     142.791 168.219 191.138  0.00  0.00    -0.105 S 
ATOM     17  C   UNK A   5     144.531 168.033 190.636  0.00  0.00    +0.027 C 
ATOM     18  C   UNK A   5     145.067 166.594 190.671  0.00  0.00    +0.109 C 
ATOM     19  C   UNK A   5     145.142 165.967 189.252  0.00  0.00    +0.237 C 
ATOM     20  O   UNK A   5     146.164 166.043 188.560  0.00  0.00    -0.274 OA
ATOM     21  N   HYP A   6     144.031 165.330 188.737  0.00  0.00    -0.286 N 
ATOM     22  CD  HYP A   6     142.833 164.916 189.456  0.00  0.00    +0.042 C 
ATOM     23  CG  HYP A   6     141.940 164.242 188.412  0.00  0.00    +0.073 C 
ATOM     24  CB  HYP A   6     142.908 163.792 187.322  0.00  0.00    +0.002 C 
ATOM     25  CA  HYP A   6     144.032 164.830 187.361  0.00  0.00    +0.105 C 
ATOM     26  C   HYP A   6     143.766 166.026 186.420  0.00  0.00    +0.234 C 
ATOM     27  O   HYP A   6     142.642 166.495 186.254  0.00  0.00    -0.274 OA
ATOM     28  N   ALA A   7     144.910 166.605 185.911  0.00  0.00    -0.303 N 
ATOM     29  N   UNK A   5     146.446 166.624 191.174  0.00  0.00    -0.302 N 
ATOM     30  C   THR A   4     146.885 165.913 192.260  0.00  0.00    +0.237 C 
ATOM     31  O   THR A   4     146.162 165.127 192.871  0.00  0.00    -0.274 OA
ATOM     32  CA  THR A   4     148.383 166.071 192.600  0.00  0.00    +0.125 C 
ATOM     33  N   THR A   4     149.010 167.196 191.903  0.00  0.00    -0.300 N 
ATOM     34  C   ALA A   3     148.935 168.496 192.342  0.00  0.00    +0.234 C 
ATOM     35  O   ALA A   3     148.331 168.822 193.363  0.00  0.00    -0.274 OA
ATOM     36  CA  ALA A   3     149.630 169.514 191.412  0.00  0.00    +0.097 C 
ATOM     37  N   ALA A   3     148.660 170.515 191.001  0.00  0.00    -0.303 N 
ATOM     38  C   UNK A   2     147.660 170.211 190.111  0.00  0.00    +0.234 C 
ATOM     39  O   UNK A   2     147.550 169.083 189.630  0.00  0.00    -0.274 OA
ATOM     40  C   UNK A   2     146.693 171.375 189.770  0.00  0.00    +0.102 C 
ATOM     41  N   UNK A   2     145.704 170.873 188.821  0.00  0.00    -0.302 N 
ATOM     42  C   UNK A   1     144.818 171.660 188.136  0.00  0.00    +0.234 C 
ATOM     43  O   UNK A   1     144.870 172.891 188.191  0.00  0.00    -0.274 OA
ATOM     44  HA  ALA A   7     145.938 168.017 184.827  0.00  0.00    +0.059 HD
ATOM     45  H   UNK A   1     143.694 170.286 185.319  0.00  0.00    +0.150 HD
ATOM     46  H   UNK A   1     143.129 171.745 186.873  0.00  0.00    +0.060 HD
ATOM     47  H   UNK A   1     142.938 169.098 188.271  0.00  0.00    +0.034 HD
ATOM     48  H   UNK A   1     141.702 170.171 187.721  0.00  0.00    +0.034 HD
ATOM     49  H   UNK A   5     142.169 170.382 192.821  0.00  0.00    +0.166 HD
ATOM     50  H   UNK A   5     141.477 173.073 193.254  0.00  0.00    +0.064 HD
ATOM     51  H   UNK A   5     141.026 175.182 192.010  0.00  0.00    +0.062 HD
ATOM     52  H   UNK A   5     141.201 175.243 189.546  0.00  0.00    +0.062 HD
ATOM     53  H   UNK A   5     141.841 173.225 188.278  0.00  0.00    +0.062 HD
ATOM     54  H   UNK A   5     144.635 168.442 189.637  0.00  0.00    +0.040 HD
ATOM     55  H   UNK A   5     145.110 168.670 191.315  0.00  0.00    +0.040 HD
ATOM     56  H   UNK A   5     144.475 165.952 191.329  0.00  0.00    +0.060 HD
ATOM     57  HD1 HYP A   6     142.347 165.772 189.918  0.00  0.00    +0.049 HD
ATOM     58  HD2 HYP A   6     143.148 164.208 190.230  0.00  0.00    +0.049 HD
ATOM     59  HG  HYP A   6     141.392 163.399 188.843  0.00  0.00    +0.061 HD
ATOM     60  HB1 HYP A   6     142.439 163.712 186.336  0.00  0.00    +0.031 HD
ATOM     61  HB2 HYP A   6     143.321 162.812 187.593  0.00  0.00    +0.031 HD
ATOM     62  HA  HYP A   6     144.996 164.374 187.111  0.00  0.00    +0.060 HD
ATOM     63  H   ALA A   7     145.770 166.354 186.401  0.00  0.00    +0.149 HD
ATOM     64  H   UNK A   5     147.119 167.175 190.639  0.00  0.00    +0.150 HD
ATOM     65  HA  THR A   4     148.427 166.273 193.677  0.00  0.00    +0.062 HD
ATOM     66  H   THR A   4     149.557 166.949 191.085  0.00  0.00    +0.150 HD
ATOM     67  HA  ALA A   3     149.989 169.006 190.510  0.00  0.00    +0.059 HD
ATOM     68  H   ALA A   3     148.639 171.426 191.465  0.00  0.00    +0.149 HD
ATOM     69  H   UNK A   2     147.267 172.151 189.254  0.00  0.00    +0.060 HD
ATOM     70  H   UNK A   2     145.768 169.883 188.564  0.00  0.00    +0.150 HD
ENDROOT
BRANCH   1  71
ATOM     71  CB  ALA A   7     143.922 168.058 184.118  0.00  0.00    -0.038 C 
ATOM     72  HB1 ALA A   7     142.910 168.190 184.512  0.00  0.00    +0.025 HD
ATOM     73  HB2 ALA A   7     144.145 168.904 183.459  0.00  0.00    +0.025 HD
ATOM     74  HB3 ALA A   7     143.923 167.160 183.491  0.00  0.00    +0.025 HD
ENDBRANCH   1  71
BRANCH  36  75
ATOM     75  CB  ALA A   3     150.810 170.149 192.131  0.00  0.00    -0.038 C 
ATOM     76  HB1 ALA A   3     150.689 170.122 193.221  0.00  0.00    +0.025 HD
ATOM     77  HB2 ALA A   3     150.925 171.199 191.839  0.00  0.00    +0.025 HD
ATOM     78  HB3 ALA A   3     151.739 169.622 191.888  0.00  0.00    +0.025 HD
ENDBRANCH  36  75
BRANCH  40  79
ATOM     79  C   UNK A   2     146.003 171.896 191.046  0.00  0.00    +0.005 C 
ATOM     80  H   UNK A   2     146.112 171.145 191.841  0.00  0.00    +0.032 HD
ATOM     81  H   UNK A   2     144.925 172.004 190.893  0.00  0.00    +0.032 HD
BRANCH  79  82
ATOM     82  C   UNK A   2     146.540 173.246 191.551  0.00  0.00    +0.088 C 
BRANCH  82  83
ATOM     83  C   UNK A   2     147.655 173.742 190.618  0.00  0.00    -0.034 C 
ATOM     84  H   UNK A   2     148.178 172.905 190.141  0.00  0.00    +0.026 HD
ATOM     85  H   UNK A   2     148.419 174.290 191.183  0.00  0.00    +0.026 HD
ATOM     86  H   UNK A   2     147.259 174.400 189.837  0.00  0.00    +0.026 HD
ENDBRANCH  82  83
BRANCH  82  87
ATOM     87  C   UNK A   2     147.053 173.156 193.004  0.00  0.00    +0.073 C 
ATOM     88  H   UNK A   2     148.137 173.301 193.064  0.00  0.00    +0.059 HD
ATOM     89  H   UNK A   2     146.787 172.199 193.460  0.00  0.00    +0.059 HD
BRANCH  87  90
ATOM     90  O   UNK A   2     146.398 174.167 193.783  0.00  0.00    -0.392 OA
ATOM     91  H   UNK A   2     146.534 173.915 194.716  0.00  0.00    +0.210 HD
ENDBRANCH  87  90
ENDBRANCH  82  87
BRANCH  82  92
ATOM     92  O   UNK A   2     145.487 174.227 191.510  0.00  0.00    -0.387 OA
ATOM     93  H   UNK A   2     145.211 174.312 192.450  0.00  0.00    +0.210 HD
ENDBRANCH  82  92
ENDBRANCH  79  82
ENDBRANCH  40  79
BRANCH  23  94
ATOM     94  OD  HYP A   6     140.964 165.141 187.894  0.00  0.00    -0.390 OA
ATOM     95  HD  HYP A   6     141.357 166.040 187.834  0.00  0.00    +0.210 HD
ENDBRANCH  23  94
BRANCH  32  96
ATOM     96  CB  THR A   4     149.095 164.740 192.248  0.00  0.00    +0.079 C 
ATOM     97  HB  THR A   4     149.052 164.033 193.087  0.00  0.00    +0.061 HD
BRANCH  96  98
ATOM     98  CG2 THR A   4     150.557 164.972 191.882  0.00  0.00    -0.037 C 
ATOM     99 HG21 THR A   4     150.828 164.386 190.997  0.00  0.00    +0.026 HD
ATOM    100 HG22 THR A   4     151.219 164.685 192.705  0.00  0.00    +0.026 HD
ATOM    101 HG23 THR A   4     150.736 166.022 191.628  0.00  0.00    +0.026 HD
ENDBRANCH  96  98
BRANCH  96 102
ATOM    102  OG1 THR A   4     148.443 164.094 191.135  0.00  0.00    -0.390 OA
ATOM    103  HG1 THR A   4     148.911 164.377 190.329  0.00  0.00    +0.210 HD
ENDBRANCH  96 102
ENDBRANCH  32  96
TORSDOF 12
ENDMDL
MODEL 8
REMARK VINA RESULT:      -5.8      3.458      8.154
REMARK  Name = Phalloidin_conf2
REMARK  12 active torsions:
REMARK  status: ('A' for Active; 'I' for Inactive)
REMARK    1  A    between atoms: CB_1  and  CA_2
REMARK    2  A    between atoms: CG_24  and  OD_30
REMARK    3  A    between atoms: CA_34  and  CB_53
REMARK    4  A    between atoms: CA_38  and  CB_52
REMARK    5  A    between atoms: C_42  and  C_46
REMARK    6  A    between atoms: C_46  and  C_47
REMARK    7  A    between atoms: C_47  and  C_48
REMARK    8  A    between atoms: C_47  and  C_49
REMARK    9  A    between atoms: C_47  and  O_51
REMARK   10  A    between atoms: C_49  and  O_50
REMARK   11  A    between atoms: CB_53  and  CG2_54
REMARK   12  A    between atoms: CB_53  and  OG1_55
REMARK                            x       y       z     vdW  Elec       q    Type
REMARK                         _______ _______ _______ _____ _____    ______ ____
ROOT
ATOM      1  CA  ALA A   7     148.048 166.110 193.046  0.00  0.00    +0.097 C 
ATOM      2  C   ALA A   7     147.366 165.665 191.738  0.00  0.00    +0.234 C 
ATOM      3  O   ALA A   7     147.778 164.667 191.142  0.00  0.00    -0.274 OA
ATOM      4  N   UNK A   1     146.293 166.369 191.255  0.00  0.00    -0.302 N 
ATOM      5  C   UNK A   1     145.838 166.231 189.853  0.00  0.00    +0.103 C 
ATOM      6  C   UNK A   1     146.927 166.726 188.869  0.00  0.00    +0.002 C 
ATOM      7  C   UNK A   1     146.838 166.281 187.439  0.00  0.00    -0.006 A 
ATOM      8  C   UNK A   5     147.841 165.694 186.688  0.00  0.00    +0.078 A 
ATOM      9  N   UNK A   5     147.378 165.469 185.426  0.00  0.00    -0.349 N 
ATOM     10  C   UNK A   5     146.083 165.908 185.309  0.00  0.00    +0.048 A 
ATOM     11  C   UNK A   5     145.223 165.882 184.203  0.00  0.00    -0.038 A 
ATOM     12  C   UNK A   5     143.947 166.428 184.362  0.00  0.00    -0.060 A 
ATOM     13  C   UNK A   5     143.554 166.983 185.575  0.00  0.00    -0.061 A 
ATOM     14  C   UNK A   5     144.428 166.997 186.671  0.00  0.00    -0.052 A 
ATOM     15  C   UNK A   5     145.720 166.444 186.546  0.00  0.00    +0.004 A 
ATOM     16  S   UNK A   5     149.501 165.292 186.996  0.00  0.00    -0.105 S 
ATOM     17  C   UNK A   5     149.335 163.981 188.248  0.00  0.00    +0.027 C 
ATOM     18  C   UNK A   5     150.658 163.494 188.859  0.00  0.00    +0.109 C 
ATOM     19  C   UNK A   5     150.895 164.085 190.276  0.00  0.00    +0.237 C 
ATOM     20  O   UNK A   5     150.521 163.496 191.298  0.00  0.00    -0.274 OA
ATOM     21  N   HYP A   6     151.517 165.310 190.400  0.00  0.00    -0.286 N 
ATOM     22  CD  HYP A   6     152.245 166.044 189.372  0.00  0.00    +0.042 C 
ATOM     23  CG  HYP A   6     152.743 167.321 190.055  0.00  0.00    +0.073 C 
ATOM     24  CB  HYP A   6     152.780 166.966 191.538  0.00  0.00    +0.002 C 
ATOM     25  CA  HYP A   6     151.652 165.946 191.713  0.00  0.00    +0.105 C 
ATOM     26  C   HYP A   6     150.302 166.611 192.061  0.00  0.00    +0.234 C 
ATOM     27  O   HYP A   6     149.952 167.683 191.571  0.00  0.00    -0.274 OA
ATOM     28  N   ALA A   7     149.475 165.828 192.839  0.00  0.00    -0.303 N 
ATOM     29  N   UNK A   5     150.581 162.039 189.034  0.00  0.00    -0.302 N 
ATOM     30  C   THR A   4     151.481 161.151 188.503  0.00  0.00    +0.237 C 
ATOM     31  O   THR A   4     152.480 161.515 187.883  0.00  0.00    -0.274 OA
ATOM     32  CA  THR A   4     151.226 159.664 188.834  0.00  0.00    +0.125 C 
ATOM     33  N   THR A   4     149.893 159.425 189.390  0.00  0.00    -0.300 N 
ATOM     34  C   ALA A   3     148.765 159.284 188.619  0.00  0.00    +0.234 C 
ATOM     35  O   ALA A   3     148.783 159.348 187.391  0.00  0.00    -0.274 OA
ATOM     36  CA  ALA A   3     147.467 159.091 189.434  0.00  0.00    +0.097 C 
ATOM     37  N   ALA A   3     146.525 160.138 189.073  0.00  0.00    -0.303 N 
ATOM     38  C   UNK A   2     146.719 161.437 189.473  0.00  0.00    +0.234 C 
ATOM     39  O   UNK A   2     147.696 161.761 190.149  0.00  0.00    -0.274 OA
ATOM     40  C   UNK A   2     145.638 162.447 189.007  0.00  0.00    +0.102 C 
ATOM     41  N   UNK A   2     146.007 163.764 189.518  0.00  0.00    -0.302 N 
ATOM     42  C   UNK A   1     145.191 164.863 189.487  0.00  0.00    +0.234 C 
ATOM     43  O   UNK A   1     144.017 164.787 189.119  0.00  0.00    -0.274 OA
ATOM     44  HA  ALA A   7     147.719 165.409 193.822  0.00  0.00    +0.059 HD
ATOM     45  H   UNK A   1     145.946 167.165 191.773  0.00  0.00    +0.150 HD
ATOM     46  H   UNK A   1     145.006 166.944 189.790  0.00  0.00    +0.060 HD
ATOM     47  H   UNK A   1     147.920 166.480 189.257  0.00  0.00    +0.034 HD
ATOM     48  H   UNK A   1     146.908 167.826 188.876  0.00  0.00    +0.034 HD
ATOM     49  H   UNK A   5     147.924 165.060 184.683  0.00  0.00    +0.166 HD
ATOM     50  H   UNK A   5     145.537 165.464 183.253  0.00  0.00    +0.064 HD
ATOM     51  H   UNK A   5     143.257 166.429 183.521  0.00  0.00    +0.062 HD
ATOM     52  H   UNK A   5     142.559 167.409 185.679  0.00  0.00    +0.062 HD
ATOM     53  H   UNK A   5     144.098 167.433 187.608  0.00  0.00    +0.062 HD
ATOM     54  H   UNK A   5     148.679 164.347 189.030  0.00  0.00    +0.040 HD
ATOM     55  H   UNK A   5     148.821 163.151 187.748  0.00  0.00    +0.040 HD
ATOM     56  H   UNK A   5     151.513 163.720 188.216  0.00  0.00    +0.060 HD
ATOM     57  HD1 HYP A   6     151.600 166.259 188.524  0.00  0.00    +0.049 HD
ATOM     58  HD2 HYP A   6     153.079 165.411 189.051  0.00  0.00    +0.049 HD
ATOM     59  HG  HYP A   6     153.729 167.612 189.680  0.00  0.00    +0.061 HD
ATOM     60  HB1 HYP A   6     152.669 167.837 192.192  0.00  0.00    +0.031 HD
ATOM     61  HB2 HYP A   6     153.737 166.479 191.765  0.00  0.00    +0.031 HD
ATOM     62  HA  HYP A   6     151.906 165.208 192.480  0.00  0.00    +0.060 HD
ATOM     63  H   ALA A   7     149.731 164.840 192.873  0.00  0.00    +0.149 HD
ATOM     64  H   UNK A   5     149.834 161.686 189.634  0.00  0.00    +0.150 HD
ATOM     65  HA  THR A   4     151.296 159.129 187.880  0.00  0.00    +0.062 HD
ATOM     66  H   THR A   4     149.857 159.317 190.398  0.00  0.00    +0.150 HD
ATOM     67  HA  ALA A   3     147.684 159.191 190.503  0.00  0.00    +0.059 HD
ATOM     68  H   ALA A   3     145.770 159.939 188.413  0.00  0.00    +0.149 HD
ATOM     69  H   UNK A   2     144.692 162.173 189.484  0.00  0.00    +0.060 HD
ATOM     70  H   UNK A   2     146.885 163.830 190.042  0.00  0.00    +0.150 HD
ENDROOT
BRANCH   1  71
ATOM     71  CB  ALA A   7     147.755 167.525 193.520  0.00  0.00    -0.038 C 
ATOM     72  HB1 ALA A   7     147.109 168.050 192.810  0.00  0.00    +0.025 HD
ATOM     73  HB2 ALA A   7     147.273 167.548 194.503  0.00  0.00    +0.025 HD
ATOM     74  HB3 ALA A   7     148.686 168.096 193.610  0.00  0.00    +0.025 HD
ENDBRANCH   1  71
BRANCH  36  75
ATOM     75  CB  ALA A   3     146.889 157.710 189.167  0.00  0.00    -0.038 C 
ATOM     76  HB1 ALA A   3     146.822 157.109 190.082  0.00  0.00    +0.025 HD
ATOM     77  HB2 ALA A   3     147.514 157.158 188.456  0.00  0.00    +0.025 HD
ATOM     78  HB3 ALA A   3     145.880 157.789 188.747  0.00  0.00    +0.025 HD
ENDBRANCH  36  75
BRANCH  40  79
ATOM     79  C   UNK A   2     145.544 162.470 187.470  0.00  0.00    +0.005 C 
ATOM     80  H   UNK A   2     146.308 161.795 187.057  0.00  0.00    +0.032 HD
ATOM     81  H   UNK A   2     145.787 163.461 187.075  0.00  0.00    +0.032 HD
BRANCH  79  82
ATOM     82  C   UNK A   2     144.167 162.070 186.913  0.00  0.00    +0.088 C 
BRANCH  82  83
ATOM     83  C   UNK A   2     144.252 160.678 186.270  0.00  0.00    -0.034 C 
ATOM     84  H   UNK A   2     143.556 159.976 186.744  0.00  0.00    +0.026 HD
ATOM     85  H   UNK A   2     145.252 160.248 186.406  0.00  0.00    +0.026 HD
ATOM     86  H   UNK A   2     144.033 160.720 185.198  0.00  0.00    +0.026 HD
ENDBRANCH  82  83
BRANCH  82  87
ATOM     87  C   UNK A   2     143.633 163.102 185.896  0.00  0.00    +0.073 C 
ATOM     88  H   UNK A   2     143.198 162.619 185.015  0.00  0.00    +0.059 HD
ATOM     89  H   UNK A   2     144.420 163.793 185.582  0.00  0.00    +0.059 HD
BRANCH  87  90
ATOM     90  O   UNK A   2     142.632 163.902 186.540  0.00  0.00    -0.392 OA
ATOM     91  H   UNK A   2     142.490 163.496 187.416  0.00  0.00    +0.210 HD
ENDBRANCH  87  90
ENDBRANCH  82  87
BRANCH  82  92
ATOM     92  O   UNK A   2     143.220 161.981 187.994  0.00  0.00    -0.387 OA
ATOM     93  H   UNK A   2     143.339 161.065 188.332  0.00  0.00    +0.210 HD
ENDBRANCH  82  92
ENDBRANCH  79  82
ENDBRANCH  40  79
BRANCH  23  94
ATOM     94  OD  HYP A   6     151.873 168.422 189.811  0.00  0.00    -0.390 OA
ATOM     95  HD  HYP A   6     152.319 169.251 190.090  0.00  0.00    +0.210 HD
ENDBRANCH  23  94
BRANCH  32  96
ATOM     96  CB  THR A   4     152.327 159.200 189.822  0.00  0.00    +0.079 C 
ATOM     97  HB  THR A   4     153.110 158.631 189.305  0.00  0.00    +0.061 HD
BRANCH  96  98
ATOM     98  CG2 THR A   4     151.745 158.332 190.932  0.00  0.00    -0.037 C 
ATOM     99 HG21 THR A   4     152.506 157.645 191.320  0.00  0.00    +0.026 HD
ATOM    100 HG22 THR A   4     150.899 157.742 190.567  0.00  0.00    +0.026 HD
ATOM    101 HG23 THR A   4     151.416 158.944 191.779  0.00  0.00    +0.026 HD
ENDBRANCH  96  98
BRANCH  96 102
ATOM    102  OG1 THR A   4     152.979 160.337 190.426  0.00  0.00    -0.390 OA
ATOM    103  HG1 THR A   4     153.010 160.170 191.385  0.00  0.00    +0.210 HD
ENDBRANCH  96 102
ENDBRANCH  32  96
TORSDOF 12
ENDMDL
MODEL 9
REMARK VINA RESULT:      -5.7      3.896      9.125
REMARK  Name = Phalloidin_conf2
REMARK  12 active torsions:
REMARK  status: ('A' for Active; 'I' for Inactive)
REMARK    1  A    between atoms: CB_1  and  CA_2
REMARK    2  A    between atoms: CG_24  and  OD_30
REMARK    3  A    between atoms: CA_34  and  CB_53
REMARK    4  A    between atoms: CA_38  and  CB_52
REMARK    5  A    between atoms: C_42  and  C_46
REMARK    6  A    between atoms: C_46  and  C_47
REMARK    7  A    between atoms: C_47  and  C_48
REMARK    8  A    between atoms: C_47  and  C_49
REMARK    9  A    between atoms: C_47  and  O_51
REMARK   10  A    between atoms: C_49  and  O_50
REMARK   11  A    between atoms: CB_53  and  CG2_54
REMARK   12  A    between atoms: CB_53  and  OG1_55
REMARK                            x       y       z     vdW  Elec       q    Type
REMARK                         _______ _______ _______ _____ _____    ______ ____
ROOT
ATOM      1  CA  ALA A   7     152.294 164.997 184.365  0.00  0.00    +0.097 C 
ATOM      2  C   ALA A   7     151.686 164.045 185.413  0.00  0.00    +0.234 C 
ATOM      3  O   ALA A   7     151.389 164.475 186.530  0.00  0.00    -0.274 OA
ATOM      4  N   UNK A   1     151.461 162.731 185.092  0.00  0.00    -0.302 N 
ATOM      5  C   UNK A   1     151.238 161.702 186.132  0.00  0.00    +0.103 C 
ATOM      6  C   UNK A   1     152.499 161.532 187.017  0.00  0.00    +0.002 C 
ATOM      7  C   UNK A   1     152.335 160.873 188.356  0.00  0.00    -0.006 A 
ATOM      8  C   UNK A   5     152.764 161.358 189.579  0.00  0.00    +0.078 A 
ATOM      9  N   UNK A   5     152.457 160.452 190.549  0.00  0.00    -0.349 N 
ATOM     10  C   UNK A   5     151.840 159.356 189.999  0.00  0.00    +0.048 A 
ATOM     11  C   UNK A   5     151.361 158.193 190.616  0.00  0.00    -0.038 A 
ATOM     12  C   UNK A   5     150.791 157.215 189.797  0.00  0.00    -0.060 A 
ATOM     13  C   UNK A   5     150.713 157.392 188.420  0.00  0.00    -0.061 A 
ATOM     14  C   UNK A   5     151.196 158.564 187.822  0.00  0.00    -0.052 A 
ATOM     15  C   UNK A   5     151.767 159.576 188.622  0.00  0.00    +0.004 A 
ATOM     16  S   UNK A   5     153.642 162.771 190.075  0.00  0.00    -0.105 S 
ATOM     17  C   UNK A   5     152.453 164.096 189.691  0.00  0.00    +0.027 C 
ATOM     18  C   UNK A   5     152.988 165.523 189.880  0.00  0.00    +0.109 C 
ATOM     19  C   UNK A   5     153.359 166.188 188.527  0.00  0.00    +0.237 C 
ATOM     20  O   UNK A   5     152.544 166.868 187.891  0.00  0.00    -0.274 OA
ATOM     21  N   HYP A   6     154.622 165.997 188.005  0.00  0.00    -0.286 N 
ATOM     22  CD  HYP A   6     155.790 165.454 188.686  0.00  0.00    +0.042 C 
ATOM     23  CG  HYP A   6     156.920 165.486 187.653  0.00  0.00    +0.073 C 
ATOM     24  CB  HYP A   6     156.495 166.566 186.664  0.00  0.00    +0.002 C 
ATOM     25  CA  HYP A   6     154.965 166.514 186.679  0.00  0.00    +0.105 C 
ATOM     26  C   HYP A   6     154.396 165.539 185.625  0.00  0.00    +0.234 C 
ATOM     27  O   HYP A   6     154.942 164.470 185.355  0.00  0.00    -0.274 OA
ATOM     28  N   ALA A   7     153.158 165.900 185.136  0.00  0.00    -0.303 N 
ATOM     29  N   UNK A   5     151.919 166.347 190.458  0.00  0.00    -0.302 N 
ATOM     30  C   THR A   4     152.038 167.057 191.624  0.00  0.00    +0.237 C 
ATOM     31  O   THR A   4     153.092 167.113 192.257  0.00  0.00    -0.274 OA
ATOM     32  CA  THR A   4     150.797 167.878 192.035  0.00  0.00    +0.125 C 
ATOM     33  N   THR A   4     149.596 167.512 191.282  0.00  0.00    -0.300 N 
ATOM     34  C   ALA A   3     148.798 166.441 191.603  0.00  0.00    +0.234 C 
ATOM     35  O   ALA A   3     149.029 165.698 192.555  0.00  0.00    -0.274 OA
ATOM     36  CA  ALA A   3     147.617 166.224 190.631  0.00  0.00    +0.097 C 
ATOM     37  N   ALA A   3     147.703 164.882 190.081  0.00  0.00    -0.303 N 
ATOM     38  C   UNK A   2     148.668 164.550 189.163  0.00  0.00    +0.234 C 
ATOM     39  O   UNK A   2     149.495 165.375 188.775  0.00  0.00    -0.274 OA
ATOM     40  C   UNK A   2     148.643 163.080 188.669  0.00  0.00    +0.102 C 
ATOM     41  N   UNK A   2     149.731 162.911 187.710  0.00  0.00    -0.302 N 
ATOM     42  C   UNK A   1     149.895 161.812 186.911  0.00  0.00    +0.234 C 
ATOM     43  O   UNK A   1     149.051 160.915 186.863  0.00  0.00    -0.274 OA
ATOM     44  HA  ALA A   7     151.470 165.619 183.996  0.00  0.00    +0.059 HD
ATOM     45  H   UNK A   1     151.679 162.402 184.161  0.00  0.00    +0.150 HD
ATOM     46  H   UNK A   1     151.134 160.777 185.550  0.00  0.00    +0.060 HD
ATOM     47  H   UNK A   1     152.991 162.499 187.156  0.00  0.00    +0.034 HD
ATOM     48  H   UNK A   1     153.232 160.944 186.445  0.00  0.00    +0.034 HD
ATOM     49  H   UNK A   5     152.678 160.567 191.527  0.00  0.00    +0.166 HD
ATOM     50  H   UNK A   5     151.437 158.049 191.688  0.00  0.00    +0.064 HD
ATOM     51  H   UNK A   5     150.414 156.297 190.244  0.00  0.00    +0.062 HD
ATOM     52  H   UNK A   5     150.272 156.617 187.798  0.00  0.00    +0.062 HD
ATOM     53  H   UNK A   5     151.122 158.681 186.746  0.00  0.00    +0.062 HD
ATOM     54  H   UNK A   5     152.119 163.958 188.668  0.00  0.00    +0.040 HD
ATOM     55  H   UNK A   5     151.591 163.924 190.346  0.00  0.00    +0.040 HD
ATOM     56  H   UNK A   5     153.848 165.552 190.555  0.00  0.00    +0.060 HD
ATOM     57  HD1 HYP A   6     155.593 164.446 189.044  0.00  0.00    +0.049 HD
ATOM     58  HD2 HYP A   6     156.006 166.111 189.535  0.00  0.00    +0.049 HD
ATOM     59  HG  HYP A   6     157.880 165.718 188.123  0.00  0.00    +0.061 HD
ATOM     60  HB1 HYP A   6     156.914 166.422 185.663  0.00  0.00    +0.031 HD
ATOM     61  HB2 HYP A   6     156.820 167.544 187.041  0.00  0.00    +0.031 HD
ATOM     62  HA  HYP A   6     154.537 167.510 186.525  0.00  0.00    +0.060 HD
ATOM     63  H   ALA A   7     152.666 166.598 185.694  0.00  0.00    +0.149 HD
ATOM     64  H   UNK A   5     151.056 166.426 189.917  0.00  0.00    +0.150 HD
ATOM     65  HA  THR A   4     150.619 167.645 193.091  0.00  0.00    +0.062 HD
ATOM     66  H   THR A   4     149.354 168.138 190.521  0.00  0.00    +0.150 HD
ATOM     67  HA  ALA A   3     147.690 166.932 189.798  0.00  0.00    +0.059 HD
ATOM     68  H   ALA A   3     147.117 164.135 190.463  0.00  0.00    +0.149 HD
ATOM     69  H   UNK A   2     147.708 162.923 188.123  0.00  0.00    +0.060 HD
ATOM     70  H   UNK A   2     150.333 163.722 187.544  0.00  0.00    +0.150 HD
ENDROOT
BRANCH   1  71
ATOM     71  CB  ALA A   7     152.978 164.347 183.171  0.00  0.00    -0.038 C 
ATOM     72  HB1 ALA A   7     153.753 165.001 182.760  0.00  0.00    +0.025 HD
ATOM     73  HB2 ALA A   7     153.437 163.386 183.422  0.00  0.00    +0.025 HD
ATOM     74  HB3 ALA A   7     152.250 164.152 182.376  0.00  0.00    +0.025 HD
ENDBRANCH   1  71
BRANCH  36  75
ATOM     75  CB  ALA A   3     146.301 166.441 191.361  0.00  0.00    -0.038 C 
ATOM     76  HB1 ALA A   3     145.628 167.105 190.804  0.00  0.00    +0.025 HD
ATOM     77  HB2 ALA A   3     146.471 166.895 192.343  0.00  0.00    +0.025 HD
ATOM     78  HB3 ALA A   3     145.780 165.489 191.508  0.00  0.00    +0.025 HD
ENDBRANCH  36  75
BRANCH  40  79
ATOM     79  C   UNK A   2     148.809 162.108 189.853  0.00  0.00    +0.005 C 
ATOM     80  H   UNK A   2     148.814 162.685 190.789  0.00  0.00    +0.032 HD
ATOM     81  H   UNK A   2     149.780 161.605 189.816  0.00  0.00    +0.032 HD
BRANCH  79  82
ATOM     82  C   UNK A   2     147.723 161.021 189.938  0.00  0.00    +0.088 C 
BRANCH  82  83
ATOM     83  C   UNK A   2     146.422 161.539 189.308  0.00  0.00    -0.034 C 
ATOM     84  H   UNK A   2     146.624 162.181 188.444  0.00  0.00    +0.026 HD
ATOM     85  H   UNK A   2     145.866 162.160 190.021  0.00  0.00    +0.026 HD
ATOM     86  H   UNK A   2     145.778 160.713 188.988  0.00  0.00    +0.026 HD
ENDBRANCH  82  83
BRANCH  82  87
ATOM     87  C   UNK A   2     147.474 160.566 191.393  0.00  0.00    +0.073 C 
ATOM     88  H   UNK A   2     147.107 159.536 191.440  0.00  0.00    +0.059 HD
ATOM     89  H   UNK A   2     146.768 161.229 191.900  0.00  0.00    +0.059 HD
BRANCH  87  90
ATOM     90  O   UNK A   2     148.707 160.663 192.119  0.00  0.00    -0.392 OA
ATOM     91  H   UNK A   2     149.075 159.760 192.140  0.00  0.00    +0.210 HD
ENDBRANCH  87  90
ENDBRANCH  82  87
BRANCH  82  92
ATOM     92  O   UNK A   2     148.135 159.871 189.176  0.00  0.00    -0.387 OA
ATOM     93  H   UNK A   2     147.302 159.560 188.757  0.00  0.00    +0.210 HD
ENDBRANCH  82  92
ENDBRANCH  79  82
ENDBRANCH  40  79
BRANCH  23  94
ATOM     94  OD  HYP A   6     157.076 164.227 187.005  0.00  0.00    -0.390 OA
ATOM     95  HD  HYP A   6     156.951 164.347 186.038  0.00  0.00    +0.210 HD
ENDBRANCH  23  94
BRANCH  32  96
ATOM     96  CB  THR A   4     151.134 169.379 191.840  0.00  0.00    +0.079 C 
ATOM     97  HB  THR A   4     151.753 169.757 192.664  0.00  0.00    +0.061 HD
BRANCH  96  98
ATOM     98  CG2 THR A   4     149.868 170.225 191.756  0.00  0.00    -0.037 C 
ATOM     99 HG21 THR A   4     149.191 169.987 192.584  0.00  0.00    +0.026 HD
ATOM    100 HG22 THR A   4     149.339 170.048 190.814  0.00  0.00    +0.026 HD
ATOM    101 HG23 THR A   4     150.101 171.292 191.839  0.00  0.00    +0.026 HD
ENDBRANCH  96  98
BRANCH  96 102
ATOM    102  OG1 THR A   4     151.896 169.575 190.630  0.00  0.00    -0.390 OA
ATOM    103  HG1 THR A   4     151.265 169.842 189.938  0.00  0.00    +0.210 HD
ENDBRANCH  96 102
ENDBRANCH  32  96
TORSDOF 12
ENDMDL
MODEL 10
REMARK VINA RESULT:      -5.6      2.784      8.582
REMARK  Name = Phalloidin_conf2
REMARK  12 active torsions:
REMARK  status: ('A' for Active; 'I' for Inactive)
REMARK    1  A    between atoms: CB_1  and  CA_2
REMARK    2  A    between atoms: CG_24  and  OD_30
REMARK    3  A    between atoms: CA_34  and  CB_53
REMARK    4  A    between atoms: CA_38  and  CB_52
REMARK    5  A    between atoms: C_42  and  C_46
REMARK    6  A    between atoms: C_46  and  C_47
REMARK    7  A    between atoms: C_47  and  C_48
REMARK    8  A    between atoms: C_47  and  C_49
REMARK    9  A    between atoms: C_47  and  O_51
REMARK   10  A    between atoms: C_49  and  O_50
REMARK   11  A    between atoms: CB_53  and  CG2_54
REMARK   12  A    between atoms: CB_53  and  OG1_55
REMARK                            x       y       z     vdW  Elec       q    Type
REMARK                         _______ _______ _______ _____ _____    ______ ____
ROOT
ATOM      1  CA  ALA A   7     151.650 165.329 184.687  0.00  0.00    +0.097 C 
ATOM      2  C   ALA A   7     150.428 164.836 185.485  0.00  0.00    +0.234 C 
ATOM      3  O   ALA A   7     150.072 165.444 186.497  0.00  0.00    -0.274 OA
ATOM      4  N   UNK A   1     149.730 163.737 185.055  0.00  0.00    -0.302 N 
ATOM      5  C   UNK A   1     148.804 163.003 185.947  0.00  0.00    +0.103 C 
ATOM      6  C   UNK A   1     149.571 162.366 187.133  0.00  0.00    +0.002 C 
ATOM      7  C   UNK A   1     148.782 161.962 188.345  0.00  0.00    -0.006 A 
ATOM      8  C   UNK A   5     149.045 162.307 189.660  0.00  0.00    +0.078 A 
ATOM      9  N   UNK A   5     148.120 161.715 190.467  0.00  0.00    -0.349 N 
ATOM     10  C   UNK A   5     147.246 160.965 189.720  0.00  0.00    +0.048 A 
ATOM     11  C   UNK A   5     146.153 160.191 190.129  0.00  0.00    -0.038 A 
ATOM     12  C   UNK A   5     145.442 159.502 189.142  0.00  0.00    -0.060 A 
ATOM     13  C   UNK A   5     145.819 159.580 187.806  0.00  0.00    -0.061 A 
ATOM     14  C   UNK A   5     146.915 160.362 187.416  0.00  0.00    -0.052 A 
ATOM     15  C   UNK A   5     147.645 161.079 188.387  0.00  0.00    +0.004 A 
ATOM     16  S   UNK A   5     150.298 163.220 190.440  0.00  0.00    -0.105 S 
ATOM     17  C   UNK A   5     149.978 164.897 189.808  0.00  0.00    +0.027 C 
ATOM     18  C   UNK A   5     151.025 165.950 190.201  0.00  0.00    +0.109 C 
ATOM     19  C   UNK A   5     151.998 166.266 189.032  0.00  0.00    +0.237 C 
ATOM     20  O   UNK A   5     151.775 167.181 188.230  0.00  0.00    -0.274 OA
ATOM     21  N   HYP A   6     153.128 165.492 188.866  0.00  0.00    -0.286 N 
ATOM     22  CD  HYP A   6     153.702 164.546 189.814  0.00  0.00    +0.042 C 
ATOM     23  CG  HYP A   6     154.953 163.988 189.131  0.00  0.00    +0.073 C 
ATOM     24  CB  HYP A   6     155.335 165.058 188.113  0.00  0.00    +0.002 C 
ATOM     25  CA  HYP A   6     154.002 165.691 187.708  0.00  0.00    +0.105 C 
ATOM     26  C   HYP A   6     153.356 164.985 186.496  0.00  0.00    +0.234 C 
ATOM     27  O   HYP A   6     153.414 163.767 186.337  0.00  0.00    -0.274 OA
ATOM     28  N   ALA A   7     152.590 165.816 185.705  0.00  0.00    -0.303 N 
ATOM     29  N   UNK A   5     150.330 167.207 190.502  0.00  0.00    -0.302 N 
ATOM     30  C   THR A   4     150.443 167.884 191.688  0.00  0.00    +0.237 C 
ATOM     31  O   THR A   4     151.202 167.521 192.586  0.00  0.00    -0.274 OA
ATOM     32  CA  THR A   4     149.644 169.203 191.783  0.00  0.00    +0.125 C 
ATOM     33  N   THR A   4     148.653 169.345 190.714  0.00  0.00    -0.300 N 
ATOM     34  C   ALA A   3     147.405 168.770 190.757  0.00  0.00    +0.234 C 
ATOM     35  O   ALA A   3     147.019 168.084 191.701  0.00  0.00    -0.274 OA
ATOM     36  CA  ALA A   3     146.556 169.019 189.491  0.00  0.00    +0.097 C 
ATOM     37  N   ALA A   3     146.172 167.737 188.924  0.00  0.00    -0.303 N 
ATOM     38  C   UNK A   2     147.089 166.937 188.290  0.00  0.00    +0.234 C 
ATOM     39  O   UNK A   2     148.268 167.274 188.180  0.00  0.00    -0.274 OA
ATOM     40  C   UNK A   2     146.538 165.595 187.741  0.00  0.00    +0.102 C 
ATOM     41  N   UNK A   2     147.643 164.882 187.108  0.00  0.00    -0.302 N 
ATOM     42  C   UNK A   1     147.501 163.762 186.335  0.00  0.00    +0.234 C 
ATOM     43  O   UNK A   1     146.391 163.331 186.018  0.00  0.00    -0.274 OA
ATOM     44  HA  ALA A   7     151.323 166.219 184.137  0.00  0.00    +0.059 HD
ATOM     45  H   UNK A   1     150.014 163.268 184.205  0.00  0.00    +0.150 HD
ATOM     46  H   UNK A   1     148.453 162.176 185.317  0.00  0.00    +0.060 HD
ATOM     47  H   UNK A   1     150.389 163.023 187.445  0.00  0.00    +0.034 HD
ATOM     48  H   UNK A   1     150.084 161.469 186.757  0.00  0.00    +0.034 HD
ATOM     49  H   UNK A   5     148.102 161.801 191.472  0.00  0.00    +0.166 HD
ATOM     50  H   UNK A   5     145.870 160.118 191.174  0.00  0.00    +0.064 HD
ATOM     51  H   UNK A   5     144.591 158.887 189.427  0.00  0.00    +0.062 HD
ATOM     52  H   UNK A   5     145.258 159.033 187.052  0.00  0.00    +0.062 HD
ATOM     53  H   UNK A   5     147.188 160.410 186.367  0.00  0.00    +0.062 HD
ATOM     54  H   UNK A   5     149.900 164.838 188.728  0.00  0.00    +0.040 HD
ATOM     55  H   UNK A   5     148.992 165.181 190.194  0.00  0.00    +0.040 HD
ATOM     56  H   UNK A   5     151.595 165.650 191.085  0.00  0.00    +0.060 HD
ATOM     57  HD1 HYP A   6     152.986 163.764 190.058  0.00  0.00    +0.049 HD
ATOM     58  HD2 HYP A   6     153.957 165.108 190.719  0.00  0.00    +0.049 HD
ATOM     59  HG  HYP A   6     155.754 163.808 189.854  0.00  0.00    +0.061 HD
ATOM     60  HB1 HYP A   6     155.892 164.660 187.259  0.00  0.00    +0.031 HD
ATOM     61  HB2 HYP A   6     155.953 165.818 188.609  0.00  0.00    +0.031 HD
ATOM     62  HA  HYP A   6     154.124 166.757 187.489  0.00  0.00    +0.060 HD
ATOM     63  H   ALA A   7     152.336 166.704 186.139  0.00  0.00    +0.149 HD
ATOM     64  H   UNK A   5     149.771 167.615 189.751  0.00  0.00    +0.150 HD
ATOM     65  HA  THR A   4     149.108 169.161 192.738  0.00  0.00    +0.062 HD
ATOM     66  H   THR A   4     148.927 169.949 189.946  0.00  0.00    +0.150 HD
ATOM     67  HA  ALA A   3     147.155 169.550 188.743  0.00  0.00    +0.059 HD
ATOM     68  H   ALA A   3     145.236 167.363 189.098  0.00  0.00    +0.149 HD
ATOM     69  H   UNK A   2     145.813 165.824 186.954  0.00  0.00    +0.060 HD
ATOM     70  H   UNK A   2     148.566 165.325 187.150  0.00  0.00    +0.150 HD
ENDROOT
BRANCH   1  71
ATOM     71  CB  ALA A   7     152.257 164.346 183.696  0.00  0.00    -0.038 C 
ATOM     72  HB1 ALA A   7     151.876 163.335 183.864  0.00  0.00    +0.025 HD
ATOM     73  HB2 ALA A   7     152.056 164.621 182.656  0.00  0.00    +0.025 HD
ATOM     74  HB3 ALA A   7     153.346 164.316 183.810  0.00  0.00    +0.025 HD
ENDBRANCH   1  71
BRANCH  36  75
ATOM     75  CB  ALA A   3     145.337 169.857 189.843  0.00  0.00    -0.038 C 
ATOM     76  HB1 ALA A   3     145.278 170.064 190.919  0.00  0.00    +0.025 HD
ATOM     77  HB2 ALA A   3     144.414 169.342 189.556  0.00  0.00    +0.025 HD
ATOM     78  HB3 ALA A   3     145.369 170.820 189.322  0.00  0.00    +0.025 HD
ENDBRANCH  36  75
BRANCH  40  79
ATOM     79  C   UNK A   2     145.931 164.752 188.880  0.00  0.00    +0.005 C 
ATOM     80  H   UNK A   2     146.131 165.254 189.838  0.00  0.00    +0.032 HD
ATOM     81  H   UNK A   2     146.423 163.778 188.953  0.00  0.00    +0.032 HD
BRANCH  79  82
ATOM     82  C   UNK A   2     144.419 164.503 188.748  0.00  0.00    +0.088 C 
BRANCH  82  83
ATOM     83  C   UNK A   2     144.140 162.993 188.756  0.00  0.00    -0.034 C 
ATOM     84  H   UNK A   2     143.851 162.646 189.754  0.00  0.00    +0.026 HD
ATOM     85  H   UNK A   2     145.043 162.430 188.491  0.00  0.00    +0.026 HD
ATOM     86  H   UNK A   2     143.345 162.731 188.049  0.00  0.00    +0.026 HD
ENDBRANCH  82  83
BRANCH  82  87
ATOM     87  C   UNK A   2     143.836 165.153 187.474  0.00  0.00    +0.073 C 
ATOM     88  H   UNK A   2     144.521 165.889 187.041  0.00  0.00    +0.059 HD
ATOM     89  H   UNK A   2     142.872 165.627 187.677  0.00  0.00    +0.059 HD
BRANCH  87  90
ATOM     90  O   UNK A   2     143.580 164.121 186.511  0.00  0.00    -0.392 OA
ATOM     91  H   UNK A   2     142.727 163.723 186.767  0.00  0.00    +0.210 HD
ENDBRANCH  87  90
ENDBRANCH  82  87
BRANCH  82  92
ATOM     92  O   UNK A   2     143.739 165.066 189.886  0.00  0.00    -0.387 OA
ATOM     93  H   UNK A   2     144.430 165.083 190.584  0.00  0.00    +0.210 HD
ENDBRANCH  82  92
ENDBRANCH  79  82
ENDBRANCH  40  79
BRANCH  23  94
ATOM     94  OD  HYP A   6     154.692 162.741 188.493  0.00  0.00    -0.390 OA
ATOM     95  HD  HYP A   6     153.900 162.331 188.903  0.00  0.00    +0.210 HD
ENDBRANCH  23  94
BRANCH  32  96
ATOM     96  CB  THR A   4     150.656 170.377 191.756  0.00  0.00    +0.079 C 
ATOM     97  HB  THR A   4     151.145 170.502 192.731  0.00  0.00    +0.061 HD
BRANCH  96  98
ATOM     98  CG2 THR A   4     149.975 171.688 191.381  0.00  0.00    -0.037 C 
ATOM     99 HG21 THR A   4     149.542 171.621 190.376  0.00  0.00    +0.026 HD
ATOM    100 HG22 THR A   4     150.686 172.519 191.398  0.00  0.00    +0.026 HD
ATOM    101 HG23 THR A   4     149.148 171.910 192.063  0.00  0.00    +0.026 HD
ENDBRANCH  96  98
BRANCH  96 102
ATOM    102  OG1 THR A   4     151.707 170.119 190.800  0.00  0.00    -0.390 OA
ATOM    103  HG1 THR A   4     151.723 170.874 190.186  0.00  0.00    +0.210 HD
ENDBRANCH  96 102
ENDBRANCH  32  96
TORSDOF 12
ENDMDL
