MODEL 1
REMARK VINA RESULT:      -6.3      0.000      0.000
REMARK  Name = Phalloidin_conf1
REMARK  12 active torsions:
REMARK  status: ('A' for Active; 'I' for Inactive)
REMARK    1  A    between atoms: CB_1  and  CA_2
REMARK    2  A    between atoms: CG_24  and  OD_30
REMARK    3  A    between atoms: CA_34  and  CB_53
REMARK    4  A    between atoms: CA_38  and  CB_52
REMARK    5  A    between atoms: C_42  and  C_46
REMARK    6  A    between atoms: C_46  and  C_47
REMARK    7  A    between atoms: C_47  and  C_48
REMARK    8  A    between atoms: C_47  and  C_49
REMARK    9  A    between atoms: C_47  and  O_51
REMARK   10  A    between atoms: C_49  and  O_50
REMARK   11  A    between atoms: CB_53  and  CG2_54
REMARK   12  A    between atoms: CB_53  and  OG1_55
REMARK                            x       y       z     vdW  Elec       q    Type
REMARK                         _______ _______ _______ _____ _____    ______ ____
ROOT
ATOM      1  CA  ALA A   7     151.012 163.485 186.558  0.00  0.00    +0.097 C 
ATOM      2  C   ALA A   7     149.469 163.461 186.533  0.00  0.00    +0.234 C 
ATOM      3  O   ALA A   7     148.837 162.850 185.670  0.00  0.00    -0.274 OA
ATOM      4  N   UNK A   1     148.859 164.065 187.608  0.00  0.00    -0.302 N 
ATOM      5  C   UNK A   1     147.424 163.958 187.875  0.00  0.00    +0.103 C 
ATOM      6  C   UNK A   1     147.127 163.760 189.372  0.00  0.00    +0.002 C 
ATOM      7  C   UNK A   1     148.098 162.877 190.111  0.00  0.00    -0.006 A 
ATOM      8  C   UNK A   5     148.811 163.210 191.246  0.00  0.00    +0.078 A 
ATOM      9  N   UNK A   5     149.537 162.125 191.645  0.00  0.00    -0.349 N 
ATOM     10  C   UNK A   5     149.383 161.095 190.751  0.00  0.00    +0.048 A 
ATOM     11  C   UNK A   5     149.965 159.822 190.734  0.00  0.00    -0.038 A 
ATOM     12  C   UNK A   5     149.608 158.959 189.694  0.00  0.00    -0.060 A 
ATOM     13  C   UNK A   5     148.696 159.353 188.721  0.00  0.00    -0.061 A 
ATOM     14  C   UNK A   5     148.113 160.626 188.760  0.00  0.00    -0.052 A 
ATOM     15  C   UNK A   5     148.466 161.525 189.788  0.00  0.00    +0.004 A 
ATOM     16  S   UNK A   5     148.842 164.652 192.205  0.00  0.00    -0.105 S 
ATOM     17  C   UNK A   5     150.598 165.146 192.129  0.00  0.00    +0.027 C 
ATOM     18  C   UNK A   5     150.867 166.518 191.503  0.00  0.00    +0.109 C 
ATOM     19  C   UNK A   5     150.781 166.476 189.959  0.00  0.00    +0.237 C 
ATOM     20  O   UNK A   5     149.700 166.405 189.363  0.00  0.00    -0.274 OA
ATOM     21  N   HYP A   6     151.962 166.578 189.254  0.00  0.00    -0.286 N 
ATOM     22  CD  HYP A   6     153.318 166.592 189.792  0.00  0.00    +0.042 C 
ATOM     23  CG  HYP A   6     154.209 166.522 188.554  0.00  0.00    +0.073 C 
ATOM     24  CB  HYP A   6     153.418 167.319 187.522  0.00  0.00    +0.002 C 
ATOM     25  CA  HYP A   6     151.957 166.975 187.840  0.00  0.00    +0.105 C 
ATOM     26  C   HYP A   6     151.434 165.901 186.878  0.00  0.00    +0.234 C 
ATOM     27  O   HYP A   6     151.052 166.177 185.744  0.00  0.00    -0.274 OA
ATOM     28  N   ALA A   7     151.505 164.611 187.343  0.00  0.00    -0.303 N 
ATOM     29  N   UNK A   5     149.972 167.582 191.935  0.00  0.00    -0.302 N 
ATOM     30  C   THR A   4     150.324 168.905 191.758  0.00  0.00    +0.237 C 
ATOM     31  O   THR A   4     151.481 169.233 191.496  0.00  0.00    -0.274 OA
ATOM     32  CA  THR A   4     149.169 169.915 191.935  0.00  0.00    +0.125 C 
ATOM     33  N   THR A   4     148.114 169.607 190.959  0.00  0.00    -0.300 N 
ATOM     34  C   ALA A   3     147.164 168.634 191.166  0.00  0.00    +0.234 C 
ATOM     35  O   ALA A   3     147.188 167.926 192.170  0.00  0.00    -0.274 OA
ATOM     36  CA  ALA A   3     146.125 168.515 190.042  0.00  0.00    +0.097 C 
ATOM     37  N   ALA A   3     146.775 168.032 188.828  0.00  0.00    -0.303 N 
ATOM     38  C   UNK A   2     146.230 168.283 187.582  0.00  0.00    +0.234 C 
ATOM     39  O   UNK A   2     145.386 169.164 187.418  0.00  0.00    -0.274 OA
ATOM     40  C   UNK A   2     146.874 167.489 186.409  0.00  0.00    +0.102 C 
ATOM     41  N   UNK A   2     147.409 166.215 186.881  0.00  0.00    -0.302 N 
ATOM     42  C   UNK A   1     146.640 165.198 187.399  0.00  0.00    +0.234 C 
ATOM     43  O   UNK A   1     145.421 165.283 187.535  0.00  0.00    -0.274 OA
ATOM     44  HA  ALA A   7     151.359 163.603 185.525  0.00  0.00    +0.059 HD
ATOM     45  H   UNK A   1     149.414 164.650 188.229  0.00  0.00    +0.150 HD
ATOM     46  H   UNK A   1     147.030 163.109 187.306  0.00  0.00    +0.060 HD
ATOM     47  H   UNK A   1     147.092 164.743 189.860  0.00  0.00    +0.034 HD
ATOM     48  H   UNK A   1     146.117 163.341 189.489  0.00  0.00    +0.034 HD
ATOM     49  H   UNK A   5     150.092 162.080 192.487  0.00  0.00    +0.166 HD
ATOM     50  H   UNK A   5     150.667 159.506 191.498  0.00  0.00    +0.064 HD
ATOM     51  H   UNK A   5     150.044 157.963 189.651  0.00  0.00    +0.062 HD
ATOM     52  H   UNK A   5     148.427 158.667 187.921  0.00  0.00    +0.062 HD
ATOM     53  H   UNK A   5     147.402 160.908 187.990  0.00  0.00    +0.062 HD
ATOM     54  H   UNK A   5     150.936 165.170 193.172  0.00  0.00    +0.040 HD
ATOM     55  H   UNK A   5     151.195 164.381 191.621  0.00  0.00    +0.040 HD
ATOM     56  H   UNK A   5     151.874 166.815 191.806  0.00  0.00    +0.060 HD
ATOM     57  HD1 HYP A   6     153.452 165.750 190.478  0.00  0.00    +0.049 HD
ATOM     58  HD2 HYP A   6     153.458 167.537 190.324  0.00  0.00    +0.049 HD
ATOM     59  HG  HYP A   6     155.211 166.923 188.738  0.00  0.00    +0.061 HD
ATOM     60  HB1 HYP A   6     153.582 168.391 187.687  0.00  0.00    +0.031 HD
ATOM     61  HB2 HYP A   6     153.699 167.078 186.492  0.00  0.00    +0.031 HD
ATOM     62  HA  HYP A   6     151.305 167.851 187.724  0.00  0.00    +0.060 HD
ATOM     63  H   ALA A   7     151.990 164.444 188.221  0.00  0.00    +0.149 HD
ATOM     64  H   UNK A   5     148.992 167.354 192.126  0.00  0.00    +0.150 HD
ATOM     65  HA  THR A   4     148.745 169.788 192.939  0.00  0.00    +0.062 HD
ATOM     66  H   THR A   4     148.070 170.159 190.106  0.00  0.00    +0.150 HD
ATOM     67  HA  ALA A   3     145.718 169.516 189.855  0.00  0.00    +0.059 HD
ATOM     68  H   ALA A   3     147.526 167.350 188.893  0.00  0.00    +0.149 HD
ATOM     69  H   UNK A   2     147.749 168.081 186.114  0.00  0.00    +0.060 HD
ATOM     70  H   UNK A   2     148.341 165.960 186.561  0.00  0.00    +0.150 HD
ENDROOT
BRANCH   1  71
ATOM     71  CB  ALA A   7     151.519 162.175 187.147  0.00  0.00    -0.038 C 
ATOM     72  HB1 ALA A   7     151.383 162.149 188.233  0.00  0.00    +0.025 HD
ATOM     73  HB2 ALA A   7     150.991 161.322 186.711  0.00  0.00    +0.025 HD
ATOM     74  HB3 ALA A   7     152.586 162.044 186.937  0.00  0.00    +0.025 HD
ENDBRANCH   1  71
BRANCH  36  75
ATOM     75  CB  ALA A   3     144.986 167.585 190.444  0.00  0.00    -0.038 C 
ATOM     76  HB1 ALA A   3     145.370 166.613 190.771  0.00  0.00    +0.025 HD
ATOM     77  HB2 ALA A   3     144.403 168.006 191.271  0.00  0.00    +0.025 HD
ATOM     78  HB3 ALA A   3     144.302 167.417 189.606  0.00  0.00    +0.025 HD
ENDBRANCH  36  75
BRANCH  40  79
ATOM     79  C   UNK A   2     145.903 167.383 185.222  0.00  0.00    +0.005 C 
ATOM     80  H   UNK A   2     145.474 168.385 185.074  0.00  0.00    +0.032 HD
ATOM     81  H   UNK A   2     145.053 166.739 185.480  0.00  0.00    +0.032 HD
BRANCH  79  82
ATOM     82  C   UNK A   2     146.488 166.945 183.862  0.00  0.00    +0.088 C 
BRANCH  82  83
ATOM     83  C   UNK A   2     145.918 167.857 182.766  0.00  0.00    -0.034 C 
ATOM     84  H   UNK A   2     144.845 168.031 182.917  0.00  0.00    +0.026 HD
ATOM     85  H   UNK A   2     146.392 168.844 182.794  0.00  0.00    +0.026 HD
ATOM     86  H   UNK A   2     146.065 167.428 181.769  0.00  0.00    +0.026 HD
ENDBRANCH  82  83
BRANCH  82  87
ATOM     87  C   UNK A   2     146.189 165.478 183.488  0.00  0.00    +0.073 C 
ATOM     88  H   UNK A   2     145.187 165.174 183.809  0.00  0.00    +0.059 HD
ATOM     89  H   UNK A   2     146.268 165.328 182.405  0.00  0.00    +0.059 HD
BRANCH  87  90
ATOM     90  O   UNK A   2     147.165 164.623 184.080  0.00  0.00    -0.392 OA
ATOM     91  H   UNK A   2     146.861 163.707 183.910  0.00  0.00    +0.210 HD
ENDBRANCH  87  90
ENDBRANCH  82  87
BRANCH  82  92
ATOM     92  O   UNK A   2     147.911 167.137 183.875  0.00  0.00    -0.387 OA
ATOM     93  H   UNK A   2     148.090 167.776 183.149  0.00  0.00    +0.210 HD
ENDBRANCH  82  92
ENDBRANCH  79  82
ENDBRANCH  40  79
BRANCH  23  94
ATOM     94  OD  HYP A   6     154.337 165.160 188.144  0.00  0.00    -0.390 OA
ATOM     95  HD  HYP A   6     155.246 165.040 187.807  0.00  0.00    +0.210 HD
ENDBRANCH  23  94
BRANCH  32  96
ATOM     96  CB  THR A   4     149.664 171.366 191.748  0.00  0.00    +0.079 C 
ATOM     97  HB  THR A   4     150.665 171.373 191.296  0.00  0.00    +0.061 HD
BRANCH  96  98
ATOM     98  CG2 THR A   4     149.696 172.147 193.058  0.00  0.00    -0.037 C 
ATOM     99 HG21 THR A   4     150.703 172.538 193.239  0.00  0.00    +0.026 HD
ATOM    100 HG22 THR A   4     149.406 171.527 193.910  0.00  0.00    +0.026 HD
ATOM    101 HG23 THR A   4     149.028 173.014 193.013  0.00  0.00    +0.026 HD
ENDBRANCH  96  98
BRANCH  96 102
ATOM    102  OG1 THR A   4     148.811 172.070 190.830  0.00  0.00    -0.390 OA
ATOM    103  HG1 THR A   4     147.891 171.966 191.134  0.00  0.00    +0.210 HD
ENDBRANCH  96 102
ENDBRANCH  32  96
TORSDOF 12
ENDMDL
MODEL 2
REMARK VINA RESULT:      -6.2      2.874      7.459
REMARK  Name = Phalloidin_conf1
REMARK  12 active torsions:
REMARK  status: ('A' for Active; 'I' for Inactive)
REMARK    1  A    between atoms: CB_1  and  CA_2
REMARK    2  A    between atoms: CG_24  and  OD_30
REMARK    3  A    between atoms: CA_34  and  CB_53
REMARK    4  A    between atoms: CA_38  and  CB_52
REMARK    5  A    between atoms: C_42  and  C_46
REMARK    6  A    between atoms: C_46  and  C_47
REMARK    7  A    between atoms: C_47  and  C_48
REMARK    8  A    between atoms: C_47  and  C_49
REMARK    9  A    between atoms: C_47  and  O_51
REMARK   10  A    between atoms: C_49  and  O_50
REMARK   11  A    between atoms: CB_53  and  CG2_54
REMARK   12  A    between atoms: CB_53  and  OG1_55
REMARK                            x       y       z     vdW  Elec       q    Type
REMARK                         _______ _______ _______ _____ _____    ______ ____
ROOT
ATOM      1  CA  ALA A   7     151.357 162.704 189.707  0.00  0.00    +0.097 C 
ATOM      2  C   ALA A   7     151.240 164.197 190.075  0.00  0.00    +0.234 C 
ATOM      3  O   ALA A   7     152.069 164.763 190.790  0.00  0.00    -0.274 OA
ATOM      4  N   UNK A   1     150.218 164.874 189.450  0.00  0.00    -0.302 N 
ATOM      5  C   UNK A   1     150.078 166.329 189.500  0.00  0.00    +0.103 C 
ATOM      6  C   UNK A   1     149.664 166.917 188.139  0.00  0.00    +0.002 C 
ATOM      7  C   UNK A   1     150.289 166.261 186.935  0.00  0.00    -0.006 A 
ATOM      8  C   UNK A   5     149.621 165.714 185.858  0.00  0.00    +0.078 A 
ATOM      9  N   UNK A   5     150.538 165.271 184.949  0.00  0.00    -0.349 N 
ATOM     10  C   UNK A   5     151.810 165.441 185.436  0.00  0.00    +0.048 A 
ATOM     11  C   UNK A   5     153.043 165.096 184.872  0.00  0.00    -0.038 A 
ATOM     12  C   UNK A   5     154.198 165.407 185.596  0.00  0.00    -0.060 A 
ATOM     13  C   UNK A   5     154.117 166.050 186.827  0.00  0.00    -0.061 A 
ATOM     14  C   UNK A   5     152.875 166.399 187.371  0.00  0.00    -0.052 A 
ATOM     15  C   UNK A   5     151.691 166.083 186.672  0.00  0.00    +0.004 A 
ATOM     16  S   UNK A   5     147.933 165.603 185.485  0.00  0.00    -0.105 S 
ATOM     17  C   UNK A   5     147.675 163.803 185.325  0.00  0.00    +0.027 C 
ATOM     18  C   UNK A   5     146.676 163.193 186.313  0.00  0.00    +0.109 C 
ATOM     19  C   UNK A   5     147.292 163.009 187.719  0.00  0.00    +0.237 C 
ATOM     20  O   UNK A   5     147.480 163.963 188.484  0.00  0.00    -0.274 OA
ATOM     21  N   HYP A   6     147.578 161.722 188.125  0.00  0.00    -0.286 N 
ATOM     22  CD  HYP A   6     147.492 160.502 187.331  0.00  0.00    +0.042 C 
ATOM     23  CG  HYP A   6     148.112 159.432 188.226  0.00  0.00    +0.073 C 
ATOM     24  CB  HYP A   6     147.694 159.876 189.624  0.00  0.00    +0.002 C 
ATOM     25  CA  HYP A   6     147.749 161.408 189.550  0.00  0.00    +0.105 C 
ATOM     26  C   HYP A   6     149.052 161.931 190.166  0.00  0.00    +0.234 C 
ATOM     27  O   HYP A   6     149.191 162.051 191.380  0.00  0.00    -0.274 OA
ATOM     28  N   ALA A   7     150.070 162.168 189.276  0.00  0.00    -0.303 N 
ATOM     29  N   UNK A   5     145.447 163.951 186.498  0.00  0.00    -0.302 N 
ATOM     30  C   THR A   4     144.331 163.349 187.042  0.00  0.00    +0.237 C 
ATOM     31  O   THR A   4     144.239 162.124 187.129  0.00  0.00    -0.274 OA
ATOM     32  CA  THR A   4     143.223 164.322 187.500  0.00  0.00    +0.125 C 
ATOM     33  N   THR A   4     143.775 165.225 188.520  0.00  0.00    -0.300 N 
ATOM     34  C   ALA A   3     144.501 166.351 188.209  0.00  0.00    +0.234 C 
ATOM     35  O   ALA A   3     144.774 166.630 187.043  0.00  0.00    -0.274 OA
ATOM     36  CA  ALA A   3     144.938 167.179 189.426  0.00  0.00    +0.097 C 
ATOM     37  N   ALA A   3     145.905 166.419 190.210  0.00  0.00    -0.303 N 
ATOM     38  C   UNK A   2     146.094 166.681 191.555  0.00  0.00    +0.234 C 
ATOM     39  O   UNK A   2     145.264 167.316 192.206  0.00  0.00    -0.274 OA
ATOM     40  C   UNK A   2     147.331 165.988 192.194  0.00  0.00    +0.102 C 
ATOM     41  N   UNK A   2     148.376 165.775 191.197  0.00  0.00    -0.302 N 
ATOM     42  C   UNK A   1     149.042 166.789 190.546  0.00  0.00    +0.234 C 
ATOM     43  O   UNK A   1     148.794 167.979 190.732  0.00  0.00    -0.274 OA
ATOM     44  HA  ALA A   7     151.673 162.163 190.608  0.00  0.00    +0.059 HD
ATOM     45  H   UNK A   1     149.498 164.344 188.965  0.00  0.00    +0.150 HD
ATOM     46  H   UNK A   1     151.036 166.758 189.810  0.00  0.00    +0.060 HD
ATOM     47  H   UNK A   1     148.571 166.867 188.048  0.00  0.00    +0.034 HD
ATOM     48  H   UNK A   1     149.908 167.989 188.117  0.00  0.00    +0.034 HD
ATOM     49  H   UNK A   5     150.312 164.891 184.042  0.00  0.00    +0.166 HD
ATOM     50  H   UNK A   5     153.112 164.606 183.907  0.00  0.00    +0.064 HD
ATOM     51  H   UNK A   5     155.172 165.151 185.186  0.00  0.00    +0.062 HD
ATOM     52  H   UNK A   5     155.026 166.288 187.375  0.00  0.00    +0.062 HD
ATOM     53  H   UNK A   5     152.839 166.903 188.332  0.00  0.00    +0.062 HD
ATOM     54  H   UNK A   5     147.290 163.657 184.309  0.00  0.00    +0.040 HD
ATOM     55  H   UNK A   5     148.630 163.268 185.382  0.00  0.00    +0.040 HD
ATOM     56  H   UNK A   5     146.384 162.219 185.911  0.00  0.00    +0.060 HD
ATOM     57  HD1 HYP A   6     148.020 160.640 186.382  0.00  0.00    +0.049 HD
ATOM     58  HD2 HYP A   6     146.434 160.297 187.146  0.00  0.00    +0.049 HD
ATOM     59  HG  HYP A   6     147.769 158.424 187.969  0.00  0.00    +0.061 HD
ATOM     60  HB1 HYP A   6     146.659 159.560 189.812  0.00  0.00    +0.031 HD
ATOM     61  HB2 HYP A   6     148.333 159.463 190.410  0.00  0.00    +0.031 HD
ATOM     62  HA  HYP A   6     146.924 161.866 190.111  0.00  0.00    +0.060 HD
ATOM     63  H   ALA A   7     149.937 161.884 188.309  0.00  0.00    +0.149 HD
ATOM     64  H   UNK A   5     145.490 164.974 186.469  0.00  0.00    +0.150 HD
ATOM     65  HA  THR A   4     142.918 164.934 186.641  0.00  0.00    +0.062 HD
ATOM     66  H   THR A   4     143.586 165.020 189.498  0.00  0.00    +0.150 HD
ATOM     67  HA  ALA A   3     144.048 167.366 190.040  0.00  0.00    +0.059 HD
ATOM     68  H   ALA A   3     146.580 165.821 189.740  0.00  0.00    +0.149 HD
ATOM     69  H   UNK A   2     146.982 164.985 192.469  0.00  0.00    +0.060 HD
ATOM     70  H   UNK A   2     148.822 164.860 191.184  0.00  0.00    +0.150 HD
ENDROOT
BRANCH   1  71
ATOM     71  CB  ALA A   7     152.388 162.544 188.597  0.00  0.00    -0.038 C 
ATOM     72  HB1 ALA A   7     153.187 161.857 188.895  0.00  0.00    +0.025 HD
ATOM     73  HB2 ALA A   7     151.921 162.160 187.685  0.00  0.00    +0.025 HD
ATOM     74  HB3 ALA A   7     152.846 163.509 188.353  0.00  0.00    +0.025 HD
ENDBRANCH   1  71
BRANCH  36  75
ATOM     75  CB  ALA A   3     145.531 168.515 188.997  0.00  0.00    -0.038 C 
ATOM     76  HB1 ALA A   3     146.022 169.015 189.838  0.00  0.00    +0.025 HD
ATOM     77  HB2 ALA A   3     146.281 168.382 188.208  0.00  0.00    +0.025 HD
ATOM     78  HB3 ALA A   3     144.755 169.184 188.610  0.00  0.00    +0.025 HD
ENDBRANCH  36  75
BRANCH  40  79
ATOM     79  C   UNK A   2     147.786 166.736 193.458  0.00  0.00    +0.005 C 
ATOM     80  H   UNK A   2     146.910 166.797 194.121  0.00  0.00    +0.032 HD
ATOM     81  H   UNK A   2     148.039 167.775 193.216  0.00  0.00    +0.032 HD
BRANCH  79  82
ATOM     82  C   UNK A   2     148.927 166.106 194.285  0.00  0.00    +0.088 C 
BRANCH  82  83
ATOM     83  C   UNK A   2     148.558 166.191 195.773  0.00  0.00    -0.034 C 
ATOM     84  H   UNK A   2     147.889 167.038 195.966  0.00  0.00    +0.026 HD
ATOM     85  H   UNK A   2     148.013 165.296 196.091  0.00  0.00    +0.026 HD
ATOM     86  H   UNK A   2     149.448 166.298 196.403  0.00  0.00    +0.026 HD
ENDBRANCH  82  83
BRANCH  82  87
ATOM     87  C   UNK A   2     150.302 166.776 194.079  0.00  0.00    +0.073 C 
ATOM     88  H   UNK A   2     150.200 167.813 193.742  0.00  0.00    +0.059 HD
ATOM     89  H   UNK A   2     150.883 166.767 195.008  0.00  0.00    +0.059 HD
BRANCH  87  90
ATOM     90  O   UNK A   2     151.060 166.033 193.127  0.00  0.00    -0.392 OA
ATOM     91  H   UNK A   2     151.184 166.626 192.357  0.00  0.00    +0.210 HD
ENDBRANCH  87  90
ENDBRANCH  82  87
BRANCH  82  92
ATOM     92  O   UNK A   2     149.037 164.713 193.955  0.00  0.00    -0.387 OA
ATOM     93  H   UNK A   2     149.229 164.262 194.807  0.00  0.00    +0.210 HD
ENDBRANCH  82  92
ENDBRANCH  79  82
ENDBRANCH  40  79
BRANCH  23  94
ATOM     94  OD  HYP A   6     149.532 159.472 188.092  0.00  0.00    -0.390 OA
ATOM     95  HD  HYP A   6     149.750 160.219 187.503  0.00  0.00    +0.210 HD
ENDBRANCH  23  94
BRANCH  32  96
ATOM     96  CB  THR A   4     142.005 163.557 188.064  0.00  0.00    +0.079 C 
ATOM     97  HB  THR A   4     141.862 162.614 187.520  0.00  0.00    +0.061 HD
BRANCH  96  98
ATOM     98  CG2 THR A   4     140.721 164.376 188.005  0.00  0.00    -0.037 C 
ATOM     99 HG21 THR A   4     139.916 163.783 187.556  0.00  0.00    +0.026 HD
ATOM    100 HG22 THR A   4     140.846 165.290 187.419  0.00  0.00    +0.026 HD
ATOM    101 HG23 THR A   4     140.383 164.649 189.011  0.00  0.00    +0.026 HD
ENDBRANCH  96  98
BRANCH  96 102
ATOM    102  OG1 THR A   4     142.238 163.191 189.435  0.00  0.00    -0.390 OA
ATOM    103  HG1 THR A   4     141.374 163.015 189.849  0.00  0.00    +0.210 HD
ENDBRANCH  96 102
ENDBRANCH  32  96
TORSDOF 12
ENDMDL
MODEL 3
REMARK VINA RESULT:      -6.2      2.693      7.339
REMARK  Name = Phalloidin_conf1
REMARK  12 active torsions:
REMARK  status: ('A' for Active; 'I' for Inactive)
REMARK    1  A    between atoms: CB_1  and  CA_2
REMARK    2  A    between atoms: CG_24  and  OD_30
REMARK    3  A    between atoms: CA_34  and  CB_53
REMARK    4  A    between atoms: CA_38  and  CB_52
REMARK    5  A    between atoms: C_42  and  C_46
REMARK    6  A    between atoms: C_46  and  C_47
REMARK    7  A    between atoms: C_47  and  C_48
REMARK    8  A    between atoms: C_47  and  C_49
REMARK    9  A    between atoms: C_47  and  O_51
REMARK   10  A    between atoms: C_49  and  O_50
REMARK   11  A    between atoms: CB_53  and  CG2_54
REMARK   12  A    between atoms: CB_53  and  OG1_55
REMARK                            x       y       z     vdW  Elec       q    Type
REMARK                         _______ _______ _______ _____ _____    ______ ____
ROOT
ATOM      1  CA  ALA A   7     150.854 162.244 188.992  0.00  0.00    +0.097 C 
ATOM      2  C   ALA A   7     151.395 163.611 189.461  0.00  0.00    +0.234 C 
ATOM      3  O   ALA A   7     152.532 163.744 189.916  0.00  0.00    -0.274 OA
ATOM      4  N   UNK A   1     150.564 164.680 189.221  0.00  0.00    -0.302 N 
ATOM      5  C   UNK A   1     150.984 166.071 189.393  0.00  0.00    +0.103 C 
ATOM      6  C   UNK A   1     150.466 166.977 188.261  0.00  0.00    +0.002 C 
ATOM      7  C   UNK A   1     150.462 166.355 186.888  0.00  0.00    -0.006 A 
ATOM      8  C   UNK A   5     149.378 166.244 186.040  0.00  0.00    +0.078 A 
ATOM      9  N   UNK A   5     149.790 165.676 184.870  0.00  0.00    -0.349 N 
ATOM     10  C   UNK A   5     151.116 165.332 184.950  0.00  0.00    +0.048 A 
ATOM     11  C   UNK A   5     151.939 164.693 184.015  0.00  0.00    -0.038 A 
ATOM     12  C   UNK A   5     153.276 164.481 184.364  0.00  0.00    -0.060 A 
ATOM     13  C   UNK A   5     153.768 164.905 185.594  0.00  0.00    -0.061 A 
ATOM     14  C   UNK A   5     152.934 165.553 186.513  0.00  0.00    -0.052 A 
ATOM     15  C   UNK A   5     151.576 165.767 186.196  0.00  0.00    +0.004 A 
ATOM     16  S   UNK A   5     147.733 166.763 186.200  0.00  0.00    -0.105 S 
ATOM     17  C   UNK A   5     146.802 165.202 186.025  0.00  0.00    +0.027 C 
ATOM     18  C   UNK A   5     145.952 164.806 187.237  0.00  0.00    +0.109 C 
ATOM     19  C   UNK A   5     146.811 164.202 188.373  0.00  0.00    +0.237 C 
ATOM     20  O   UNK A   5     147.531 164.902 189.095  0.00  0.00    -0.274 OA
ATOM     21  N   HYP A   6     146.704 162.845 188.598  0.00  0.00    -0.286 N 
ATOM     22  CD  HYP A   6     145.969 161.869 187.801  0.00  0.00    +0.042 C 
ATOM     23  CG  HYP A   6     146.369 160.523 188.400  0.00  0.00    +0.073 C 
ATOM     24  CB  HYP A   6     146.532 160.848 189.882  0.00  0.00    +0.002 C 
ATOM     25  CA  HYP A   6     147.122 162.264 189.881  0.00  0.00    +0.105 C 
ATOM     26  C   HYP A   6     148.640 162.217 190.094  0.00  0.00    +0.234 C 
ATOM     27  O   HYP A   6     149.132 162.085 191.211  0.00  0.00    -0.274 OA
ATOM     28  N   ALA A   7     149.396 162.245 188.948  0.00  0.00    -0.303 N 
ATOM     29  N   UNK A   5     145.183 165.888 187.835  0.00  0.00    -0.302 N 
ATOM     30  C   THR A   4     144.113 165.611 188.661  0.00  0.00    +0.237 C 
ATOM     31  O   THR A   4     143.607 164.490 188.704  0.00  0.00    -0.274 OA
ATOM     32  CA  THR A   4     143.605 166.809 189.492  0.00  0.00    +0.125 C 
ATOM     33  N   THR A   4     144.700 167.298 190.341  0.00  0.00    -0.300 N 
ATOM     34  C   ALA A   3     145.675 168.154 189.886  0.00  0.00    +0.234 C 
ATOM     35  O   ALA A   3     145.709 168.512 188.710  0.00  0.00    -0.274 OA
ATOM     36  CA  ALA A   3     146.693 168.580 190.954  0.00  0.00    +0.097 C 
ATOM     37  N   ALA A   3     147.486 167.425 191.358  0.00  0.00    -0.303 N 
ATOM     38  C   UNK A   2     148.111 167.387 192.591  0.00  0.00    +0.234 C 
ATOM     39  O   UNK A   2     147.777 168.147 193.501  0.00  0.00    -0.274 OA
ATOM     40  C   UNK A   2     149.131 166.228 192.779  0.00  0.00    +0.102 C 
ATOM     41  N   UNK A   2     149.718 165.845 191.497  0.00  0.00    -0.302 N 
ATOM     42  C   UNK A   1     150.508 166.672 190.731  0.00  0.00    +0.234 C 
ATOM     43  O   UNK A   1     150.773 167.829 191.051  0.00  0.00    -0.274 OA
ATOM     44  HA  ALA A   7     151.179 161.490 189.719  0.00  0.00    +0.059 HD
ATOM     45  H   UNK A   1     149.598 164.507 188.952  0.00  0.00    +0.150 HD
ATOM     46  H   UNK A   1     152.079 166.101 189.416  0.00  0.00    +0.060 HD
ATOM     47  H   UNK A   1     149.449 167.308 188.508  0.00  0.00    +0.034 HD
ATOM     48  H   UNK A   1     151.070 167.895 188.226  0.00  0.00    +0.034 HD
ATOM     49  H   UNK A   5     149.208 165.545 184.056  0.00  0.00    +0.166 HD
ATOM     50  H   UNK A   5     151.563 164.373 183.050  0.00  0.00    +0.064 HD
ATOM     51  H   UNK A   5     153.941 163.986 183.660  0.00  0.00    +0.062 HD
ATOM     52  H   UNK A   5     154.812 164.735 185.848  0.00  0.00    +0.062 HD
ATOM     53  H   UNK A   5     153.343 165.877 187.466  0.00  0.00    +0.062 HD
ATOM     54  H   UNK A   5     146.133 165.359 185.171  0.00  0.00    +0.040 HD
ATOM     55  H   UNK A   5     147.472 164.378 185.756  0.00  0.00    +0.040 HD
ATOM     56  H   UNK A   5     145.228 164.064 186.890  0.00  0.00    +0.060 HD
ATOM     57  HD1 HYP A   6     146.235 161.977 186.746  0.00  0.00    +0.049 HD
ATOM     58  HD2 HYP A   6     144.900 162.060 187.941  0.00  0.00    +0.049 HD
ATOM     59  HG  HYP A   6     145.626 159.743 188.205  0.00  0.00    +0.061 HD
ATOM     60  HB1 HYP A   6     145.545 160.867 190.361  0.00  0.00    +0.031 HD
ATOM     61  HB2 HYP A   6     147.161 160.124 190.408  0.00  0.00    +0.031 HD
ATOM     62  HA  HYP A   6     146.705 162.873 190.693  0.00  0.00    +0.060 HD
ATOM     63  H   ALA A   7     148.915 162.182 188.055  0.00  0.00    +0.149 HD
ATOM     64  H   UNK A   5     145.588 166.829 187.852  0.00  0.00    +0.150 HD
ATOM     65  HA  THR A   4     143.327 167.618 188.804  0.00  0.00    +0.062 HD
ATOM     66  H   THR A   4     144.718 167.011 191.317  0.00  0.00    +0.150 HD
ATOM     67  HA  ALA A   3     146.132 168.949 191.821  0.00  0.00    +0.059 HD
ATOM     68  H   ALA A   3     147.744 166.722 190.669  0.00  0.00    +0.149 HD
ATOM     69  H   UNK A   2     148.527 165.368 193.090  0.00  0.00    +0.060 HD
ATOM     70  H   UNK A   2     149.778 164.849 191.297  0.00  0.00    +0.150 HD
ENDROOT
BRANCH   1  71
ATOM     71  CB  ALA A   7     151.418 161.934 187.611  0.00  0.00    -0.038 C 
ATOM     72  HB1 ALA A   7     152.171 162.673 187.316  0.00  0.00    +0.025 HD
ATOM     73  HB2 ALA A   7     151.880 160.942 187.593  0.00  0.00    +0.025 HD
ATOM     74  HB3 ALA A   7     150.624 161.942 186.858  0.00  0.00    +0.025 HD
ENDBRANCH   1  71
BRANCH  36  75
ATOM     75  CB  ALA A   3     147.596 169.694 190.438  0.00  0.00    -0.038 C 
ATOM     76  HB1 ALA A   3     148.652 169.437 190.571  0.00  0.00    +0.025 HD
ATOM     77  HB2 ALA A   3     147.432 169.877 189.370  0.00  0.00    +0.025 HD
ATOM     78  HB3 ALA A   3     147.405 170.632 190.970  0.00  0.00    +0.025 HD
ENDBRANCH  36  75
BRANCH  40  79
ATOM     79  C   UNK A   2     150.148 166.566 193.881  0.00  0.00    +0.005 C 
ATOM     80  H   UNK A   2     149.870 167.554 194.275  0.00  0.00    +0.032 HD
ATOM     81  H   UNK A   2     151.149 166.696 193.450  0.00  0.00    +0.032 HD
BRANCH  79  82
ATOM     82  C   UNK A   2     150.229 165.612 195.092  0.00  0.00    +0.088 C 
BRANCH  82  83
ATOM     83  C   UNK A   2     150.957 166.331 196.235  0.00  0.00    -0.034 C 
ATOM     84  H   UNK A   2     150.296 167.051 196.733  0.00  0.00    +0.026 HD
ATOM     85  H   UNK A   2     151.267 165.621 197.009  0.00  0.00    +0.026 HD
ATOM     86  H   UNK A   2     151.844 166.863 195.876  0.00  0.00    +0.026 HD
ENDBRANCH  82  83
BRANCH  82  87
ATOM     87  C   UNK A   2     150.957 164.282 194.802  0.00  0.00    +0.073 C 
ATOM     88  H   UNK A   2     150.492 163.738 193.974  0.00  0.00    +0.059 HD
ATOM     89  H   UNK A   2     152.009 164.461 194.554  0.00  0.00    +0.059 HD
BRANCH  87  90
ATOM     90  O   UNK A   2     150.957 163.470 195.974  0.00  0.00    -0.392 OA
ATOM     91  H   UNK A   2     150.074 163.045 196.008  0.00  0.00    +0.210 HD
ENDBRANCH  87  90
ENDBRANCH  82  87
BRANCH  82  92
ATOM     92  O   UNK A   2     148.900 165.320 195.552  0.00  0.00    -0.387 OA
ATOM     93  H   UNK A   2     148.525 166.188 195.819  0.00  0.00    +0.210 HD
ENDBRANCH  82  92
ENDBRANCH  79  82
ENDBRANCH  40  79
BRANCH  23  94
ATOM     94  OD  HYP A   6     147.614 160.110 187.838  0.00  0.00    -0.390 OA
ATOM     95  HD  HYP A   6     147.467 159.251 187.399  0.00  0.00    +0.210 HD
ENDBRANCH  23  94
BRANCH  32  96
ATOM     96  CB  THR A   4     142.390 166.411 190.360  0.00  0.00    +0.079 C 
ATOM     97  HB  THR A   4     141.741 167.280 190.529  0.00  0.00    +0.061 HD
BRANCH  96  98
ATOM     98  CG2 THR A   4     142.800 165.816 191.703  0.00  0.00    -0.037 C 
ATOM     99 HG21 THR A   4     141.913 165.628 192.318  0.00  0.00    +0.026 HD
ATOM    100 HG22 THR A   4     143.470 166.480 192.256  0.00  0.00    +0.026 HD
ATOM    101 HG23 THR A   4     143.298 164.850 191.568  0.00  0.00    +0.026 HD
ENDBRANCH  96  98
BRANCH  96 102
ATOM    102  OG1 THR A   4     141.582 165.441 189.672  0.00  0.00    -0.390 OA
ATOM    103  HG1 THR A   4     142.025 165.223 188.832  0.00  0.00    +0.210 HD
ENDBRANCH  96 102
ENDBRANCH  32  96
TORSDOF 12
ENDMDL
MODEL 4
REMARK VINA RESULT:      -6.1      3.291      5.140
REMARK  Name = Phalloidin_conf1
REMARK  12 active torsions:
REMARK  status: ('A' for Active; 'I' for Inactive)
REMARK    1  A    between atoms: CB_1  and  CA_2
REMARK    2  A    between atoms: CG_24  and  OD_30
REMARK    3  A    between atoms: CA_34  and  CB_53
REMARK    4  A    between atoms: CA_38  and  CB_52
REMARK    5  A    between atoms: C_42  and  C_46
REMARK    6  A    between atoms: C_46  and  C_47
REMARK    7  A    between atoms: C_47  and  C_48
REMARK    8  A    between atoms: C_47  and  C_49
REMARK    9  A    between atoms: C_47  and  O_51
REMARK   10  A    between atoms: C_49  and  O_50
REMARK   11  A    between atoms: CB_53  and  CG2_54
REMARK   12  A    between atoms: CB_53  and  OG1_55
REMARK                            x       y       z     vdW  Elec       q    Type
REMARK                         _______ _______ _______ _____ _____    ______ ____
ROOT
ATOM      1  CA  ALA A   7     146.516 165.648 185.690  0.00  0.00    +0.097 C 
ATOM      2  C   ALA A   7     145.411 166.667 185.339  0.00  0.00    +0.234 C 
ATOM      3  O   ALA A   7     144.817 166.645 184.260  0.00  0.00    -0.274 OA
ATOM      4  N   UNK A   1     145.056 167.517 186.361  0.00  0.00    -0.302 N 
ATOM      5  C   UNK A   1     143.891 168.399 186.296  0.00  0.00    +0.103 C 
ATOM      6  C   UNK A   1     143.122 168.442 187.630  0.00  0.00    +0.002 C 
ATOM      7  C   UNK A   1     143.034 167.130 188.365  0.00  0.00    -0.006 A 
ATOM      8  C   UNK A   5     143.428 166.890 189.667  0.00  0.00    +0.078 A 
ATOM      9  N   UNK A   5     143.133 165.596 189.986  0.00  0.00    -0.349 N 
ATOM     10  C   UNK A   5     142.619 164.943 188.893  0.00  0.00    +0.048 A 
ATOM     11  C   UNK A   5     142.221 163.609 188.746  0.00  0.00    -0.038 A 
ATOM     12  C   UNK A   5     141.712 163.217 187.505  0.00  0.00    -0.060 A 
ATOM     13  C   UNK A   5     141.596 164.128 186.460  0.00  0.00    -0.061 A 
ATOM     14  C   UNK A   5     141.988 165.462 186.628  0.00  0.00    -0.052 A 
ATOM     15  C   UNK A   5     142.521 165.884 187.864  0.00  0.00    +0.004 A 
ATOM     16  S   UNK A   5     144.100 167.931 190.877  0.00  0.00    -0.105 S 
ATOM     17  C   UNK A   5     145.687 167.118 191.268  0.00  0.00    +0.027 C 
ATOM     18  C   UNK A   5     146.939 167.959 190.996  0.00  0.00    +0.109 C 
ATOM     19  C   UNK A   5     147.295 167.996 189.491  0.00  0.00    +0.237 C 
ATOM     20  O   UNK A   5     146.652 168.674 188.680  0.00  0.00    -0.274 OA
ATOM     21  N   HYP A   6     148.403 167.283 189.082  0.00  0.00    -0.286 N 
ATOM     22  CD  HYP A   6     149.221 166.379 189.882  0.00  0.00    +0.042 C 
ATOM     23  CG  HYP A   6     150.165 165.737 188.869  0.00  0.00    +0.073 C 
ATOM     24  CB  HYP A   6     150.411 166.866 187.873  0.00  0.00    +0.002 C 
ATOM     25  CA  HYP A   6     149.060 167.591 187.805  0.00  0.00    +0.105 C 
ATOM     26  C   HYP A   6     148.275 167.152 186.562  0.00  0.00    +0.234 C 
ATOM     27  O   HYP A   6     148.507 167.621 185.451  0.00  0.00    -0.274 OA
ATOM     28  N   ALA A   7     147.364 166.145 186.767  0.00  0.00    -0.303 N 
ATOM     29  N   UNK A   5     146.862 169.345 191.433  0.00  0.00    -0.302 N 
ATOM     30  C   THR A   4     148.012 170.090 191.599  0.00  0.00    +0.237 C 
ATOM     31  O   THR A   4     149.121 169.558 191.654  0.00  0.00    -0.274 OA
ATOM     32  CA  THR A   4     147.789 171.612 191.728  0.00  0.00    +0.125 C 
ATOM     33  N   THR A   4     147.121 172.100 190.512  0.00  0.00    -0.300 N 
ATOM     34  C   ALA A   3     145.762 172.016 190.320  0.00  0.00    +0.234 C 
ATOM     35  O   ALA A   3     145.036 171.468 191.146  0.00  0.00    -0.274 OA
ATOM     36  CA  ALA A   3     145.270 172.633 189.003  0.00  0.00    +0.097 C 
ATOM     37  N   ALA A   3     145.770 171.847 187.880  0.00  0.00    -0.303 N 
ATOM     38  C   UNK A   2     145.902 172.408 186.623  0.00  0.00    +0.234 C 
ATOM     39  O   UNK A   2     145.916 173.628 186.465  0.00  0.00    -0.274 OA
ATOM     40  C   UNK A   2     146.188 171.395 185.477  0.00  0.00    +0.102 C 
ATOM     41  N   UNK A   2     145.615 170.088 185.788  0.00  0.00    -0.302 N 
ATOM     42  C   UNK A   1     144.266 169.848 185.923  0.00  0.00    +0.234 C 
ATOM     43  O   UNK A   1     143.416 170.729 185.816  0.00  0.00    -0.274 OA
ATOM     44  HA  ALA A   7     147.136 165.510 184.796  0.00  0.00    +0.059 HD
ATOM     45  H   UNK A   1     145.648 167.573 187.187  0.00  0.00    +0.150 HD
ATOM     46  H   UNK A   1     143.229 168.040 185.501  0.00  0.00    +0.060 HD
ATOM     47  H   UNK A   1     143.588 169.190 188.284  0.00  0.00    +0.034 HD
ATOM     48  H   UNK A   1     142.102 168.809 187.448  0.00  0.00    +0.034 HD
ATOM     49  H   UNK A   5     143.257 165.185 190.898  0.00  0.00    +0.166 HD
ATOM     50  H   UNK A   5     142.298 162.899 189.562  0.00  0.00    +0.064 HD
ATOM     51  H   UNK A   5     141.395 162.187 187.358  0.00  0.00    +0.062 HD
ATOM     52  H   UNK A   5     141.194 163.806 185.502  0.00  0.00    +0.062 HD
ATOM     53  H   UNK A   5     141.884 166.155 185.798  0.00  0.00    +0.062 HD
ATOM     54  H   UNK A   5     145.643 166.903 192.342  0.00  0.00    +0.040 HD
ATOM     55  H   UNK A   5     145.767 166.154 190.754  0.00  0.00    +0.040 HD
ATOM     56  H   UNK A   5     147.759 167.500 191.555  0.00  0.00    +0.060 HD
ATOM     57  HD1 HYP A   6     148.579 165.660 190.401  0.00  0.00    +0.049 HD
ATOM     58  HD2 HYP A   6     149.774 166.981 190.608  0.00  0.00    +0.049 HD
ATOM     59  HG  HYP A   6     151.082 165.359 189.333  0.00  0.00    +0.061 HD
ATOM     60  HB1 HYP A   6     151.168 167.549 188.278  0.00  0.00    +0.031 HD
ATOM     61  HB2 HYP A   6     150.752 166.505 186.898  0.00  0.00    +0.031 HD
ATOM     62  HA  HYP A   6     149.192 168.678 187.732  0.00  0.00    +0.060 HD
ATOM     63  H   ALA A   7     147.349 165.691 187.676  0.00  0.00    +0.149 HD
ATOM     64  H   UNK A   5     145.964 169.833 191.367  0.00  0.00    +0.150 HD
ATOM     65  HA  THR A   4     147.117 171.797 192.576  0.00  0.00    +0.062 HD
ATOM     66  H   THR A   4     147.690 172.544 189.796  0.00  0.00    +0.150 HD
ATOM     67  HA  ALA A   3     145.677 173.649 188.938  0.00  0.00    +0.059 HD
ATOM     68  H   ALA A   3     145.848 170.836 187.965  0.00  0.00    +0.149 HD
ATOM     69  H   UNK A   2     147.274 171.248 185.494  0.00  0.00    +0.060 HD
ATOM     70  H   UNK A   2     146.206 169.275 185.625  0.00  0.00    +0.150 HD
ENDROOT
BRANCH   1  71
ATOM     71  CB  ALA A   7     145.867 164.333 186.100  0.00  0.00    -0.038 C 
ATOM     72  HB1 ALA A   7     145.722 164.284 187.184  0.00  0.00    +0.025 HD
ATOM     73  HB2 ALA A   7     144.894 164.211 185.614  0.00  0.00    +0.025 HD
ATOM     74  HB3 ALA A   7     146.492 163.484 185.805  0.00  0.00    +0.025 HD
ENDBRANCH   1  71
BRANCH  36  75
ATOM     75  CB  ALA A   3     143.748 172.707 188.966  0.00  0.00    -0.038 C 
ATOM     76  HB1 ALA A   3     143.395 173.039 187.985  0.00  0.00    +0.025 HD
ATOM     77  HB2 ALA A   3     143.297 171.727 189.165  0.00  0.00    +0.025 HD
ATOM     78  HB3 ALA A   3     143.371 173.406 189.719  0.00  0.00    +0.025 HD
ENDBRANCH  36  75
BRANCH  40  79
ATOM     79  C   UNK A   2     145.771 171.977 184.116  0.00  0.00    +0.005 C 
ATOM     80  H   UNK A   2     146.307 172.930 184.003  0.00  0.00    +0.032 HD
ATOM     81  H   UNK A   2     144.706 172.241 184.124  0.00  0.00    +0.032 HD
BRANCH  79  82
ATOM     82  C   UNK A   2     146.084 171.139 182.858  0.00  0.00    +0.088 C 
BRANCH  82  83
ATOM     83  C   UNK A   2     146.751 172.048 181.816  0.00  0.00    -0.034 C 
ATOM     84  H   UNK A   2     147.149 171.463 180.979  0.00  0.00    +0.026 HD
ATOM     85  H   UNK A   2     146.023 172.742 181.382  0.00  0.00    +0.026 HD
ATOM     86  H   UNK A   2     147.567 172.631 182.255  0.00  0.00    +0.026 HD
ENDBRANCH  82  83
BRANCH  82  87
ATOM     87  C   UNK A   2     144.847 170.476 182.215  0.00  0.00    +0.073 C 
ATOM     88  H   UNK A   2     143.936 171.055 182.399  0.00  0.00    +0.059 HD
ATOM     89  H   UNK A   2     144.980 170.370 181.133  0.00  0.00    +0.059 HD
BRANCH  87  90
ATOM     90  O   UNK A   2     144.690 169.155 182.728  0.00  0.00    -0.392 OA
ATOM     91  H   UNK A   2     143.738 169.059 182.943  0.00  0.00    +0.210 HD
ENDBRANCH  87  90
ENDBRANCH  82  87
BRANCH  82  92
ATOM     92  O   UNK A   2     147.033 170.115 183.196  0.00  0.00    -0.387 OA
ATOM     93  H   UNK A   2     146.664 169.287 182.814  0.00  0.00    +0.210 HD
ENDBRANCH  82  92
ENDBRANCH  79  82
ENDBRANCH  40  79
BRANCH  23  94
ATOM     94  OD  HYP A   6     149.500 164.645 188.233  0.00  0.00    -0.390 OA
ATOM     95  HD  HYP A   6     150.005 163.835 188.438  0.00  0.00    +0.210 HD
ENDBRANCH  23  94
BRANCH  32  96
ATOM     96  CB  THR A   4     149.126 172.356 191.939  0.00  0.00    +0.079 C 
ATOM     97  HB  THR A   4     149.965 171.741 191.587  0.00  0.00    +0.061 HD
BRANCH  96  98
ATOM     98  CG2 THR A   4     149.358 172.741 193.397  0.00  0.00    -0.037 C 
ATOM     99 HG21 THR A   4     149.051 171.921 194.056  0.00  0.00    +0.026 HD
ATOM    100 HG22 THR A   4     148.798 173.638 193.677  0.00  0.00    +0.026 HD
ATOM    101 HG23 THR A   4     150.421 172.917 193.592  0.00  0.00    +0.026 HD
ENDBRANCH  96  98
BRANCH  96 102
ATOM    102  OG1 THR A   4     149.158 173.558 191.152  0.00  0.00    -0.390 OA
ATOM    103  HG1 THR A   4     150.002 174.012 191.330  0.00  0.00    +0.210 HD
ENDBRANCH  96 102
ENDBRANCH  32  96
TORSDOF 12
ENDMDL
MODEL 5
REMARK VINA RESULT:      -6.0      3.039      7.537
REMARK  Name = Phalloidin_conf1
REMARK  12 active torsions:
REMARK  status: ('A' for Active; 'I' for Inactive)
REMARK    1  A    between atoms: CB_1  and  CA_2
REMARK    2  A    between atoms: CG_24  and  OD_30
REMARK    3  A    between atoms: CA_34  and  CB_53
REMARK    4  A    between atoms: CA_38  and  CB_52
REMARK    5  A    between atoms: C_42  and  C_46
REMARK    6  A    between atoms: C_46  and  C_47
REMARK    7  A    between atoms: C_47  and  C_48
REMARK    8  A    between atoms: C_47  and  C_49
REMARK    9  A    between atoms: C_47  and  O_51
REMARK   10  A    between atoms: C_49  and  O_50
REMARK   11  A    between atoms: CB_53  and  CG2_54
REMARK   12  A    between atoms: CB_53  and  OG1_55
REMARK                            x       y       z     vdW  Elec       q    Type
REMARK                         _______ _______ _______ _____ _____    ______ ____
ROOT
ATOM      1  CA  ALA A   7     143.700 164.284 186.432  0.00  0.00    +0.097 C 
ATOM      2  C   ALA A   7     144.912 163.363 186.187  0.00  0.00    +0.234 C 
ATOM      3  O   ALA A   7     144.859 162.399 185.421  0.00  0.00    -0.274 OA
ATOM      4  N   UNK A   1     146.083 163.767 186.786  0.00  0.00    -0.302 N 
ATOM      5  C   UNK A   1     147.379 163.153 186.499  0.00  0.00    +0.103 C 
ATOM      6  C   UNK A   1     148.503 164.199 186.388  0.00  0.00    +0.002 C 
ATOM      7  C   UNK A   1     148.117 165.492 185.718  0.00  0.00    -0.006 A 
ATOM      8  C   UNK A   5     148.252 166.762 186.244  0.00  0.00    +0.078 A 
ATOM      9  N   UNK A   5     147.844 167.671 185.311  0.00  0.00    -0.349 N 
ATOM     10  C   UNK A   5     147.364 167.027 184.198  0.00  0.00    +0.048 A 
ATOM     11  C   UNK A   5     146.810 167.550 183.025  0.00  0.00    -0.038 A 
ATOM     12  C   UNK A   5     146.414 166.646 182.034  0.00  0.00    -0.060 A 
ATOM     13  C   UNK A   5     146.582 165.276 182.210  0.00  0.00    -0.061 A 
ATOM     14  C   UNK A   5     147.150 164.770 183.386  0.00  0.00    -0.052 A 
ATOM     15  C   UNK A   5     147.544 165.657 184.411  0.00  0.00    +0.004 A 
ATOM     16  S   UNK A   5     148.895 167.321 187.752  0.00  0.00    -0.105 S 
ATOM     17  C   UNK A   5     147.482 168.216 188.483  0.00  0.00    +0.027 C 
ATOM     18  C   UNK A   5     146.978 167.666 189.822  0.00  0.00    +0.109 C 
ATOM     19  C   UNK A   5     146.117 166.395 189.637  0.00  0.00    +0.237 C 
ATOM     20  O   UNK A   5     146.616 165.297 189.362  0.00  0.00    -0.274 OA
ATOM     21  N   HYP A   6     144.758 166.512 189.847  0.00  0.00    -0.286 N 
ATOM     22  CD  HYP A   6     144.001 167.733 190.098  0.00  0.00    +0.042 C 
ATOM     23  CG  HYP A   6     142.543 167.283 190.052  0.00  0.00    +0.073 C 
ATOM     24  CB  HYP A   6     142.605 165.876 190.638  0.00  0.00    +0.002 C 
ATOM     25  CA  HYP A   6     143.938 165.324 190.118  0.00  0.00    +0.105 C 
ATOM     26  C   HYP A   6     143.709 164.417 188.902  0.00  0.00    +0.234 C 
ATOM     27  O   HYP A   6     143.349 163.249 189.025  0.00  0.00    -0.274 OA
ATOM     28  N   ALA A   7     143.849 165.026 187.679  0.00  0.00    -0.303 N 
ATOM     29  N   UNK A   5     148.018 167.321 190.780  0.00  0.00    -0.302 N 
ATOM     30  C   THR A   4     147.716 167.185 192.119  0.00  0.00    +0.237 C 
ATOM     31  O   THR A   4     146.657 167.605 192.586  0.00  0.00    -0.274 OA
ATOM     32  CA  THR A   4     148.806 166.493 192.966  0.00  0.00    +0.125 C 
ATOM     33  N   THR A   4     149.042 165.145 192.429  0.00  0.00    -0.300 N 
ATOM     34  C   ALA A   3     149.861 164.901 191.352  0.00  0.00    +0.234 C 
ATOM     35  O   ALA A   3     150.401 165.821 190.742  0.00  0.00    -0.274 OA
ATOM     36  CA  ALA A   3     150.006 163.416 190.991  0.00  0.00    +0.097 C 
ATOM     37  N   ALA A   3     148.729 162.906 190.505  0.00  0.00    -0.303 N 
ATOM     38  C   UNK A   2     148.430 161.557 190.569  0.00  0.00    +0.234 C 
ATOM     39  O   UNK A   2     149.060 160.797 191.305  0.00  0.00    -0.274 OA
ATOM     40  C   UNK A   2     147.162 161.124 189.779  0.00  0.00    +0.102 C 
ATOM     41  N   UNK A   2     146.938 162.008 188.639  0.00  0.00    -0.302 N 
ATOM     42  C   UNK A   1     147.797 162.124 187.570  0.00  0.00    +0.234 C 
ATOM     43  O   UNK A   1     148.856 161.504 187.492  0.00  0.00    -0.274 OA
ATOM     44  HA  ALA A   7     142.810 163.649 186.511  0.00  0.00    +0.059 HD
ATOM     45  H   UNK A   1     146.050 164.496 187.495  0.00  0.00    +0.150 HD
ATOM     46  H   UNK A   1     147.298 162.598 185.558  0.00  0.00    +0.060 HD
ATOM     47  H   UNK A   1     148.887 164.416 187.394  0.00  0.00    +0.034 HD
ATOM     48  H   UNK A   1     149.352 163.763 185.841  0.00  0.00    +0.034 HD
ATOM     49  H   UNK A   5     147.905 168.672 185.418  0.00  0.00    +0.166 HD
ATOM     50  H   UNK A   5     146.689 168.618 182.878  0.00  0.00    +0.064 HD
ATOM     51  H   UNK A   5     145.978 167.020 181.111  0.00  0.00    +0.062 HD
ATOM     52  H   UNK A   5     146.272 164.588 181.428  0.00  0.00    +0.062 HD
ATOM     53  H   UNK A   5     147.273 163.697 183.498  0.00  0.00    +0.062 HD
ATOM     54  H   UNK A   5     147.840 169.240 188.643  0.00  0.00    +0.040 HD
ATOM     55  H   UNK A   5     146.651 168.279 187.771  0.00  0.00    +0.040 HD
ATOM     56  H   UNK A   5     146.376 168.453 190.284  0.00  0.00    +0.060 HD
ATOM     57  HD1 HYP A   6     144.253 168.486 189.346  0.00  0.00    +0.049 HD
ATOM     58  HD2 HYP A   6     144.270 168.094 191.096  0.00  0.00    +0.049 HD
ATOM     59  HG  HYP A   6     141.881 167.957 190.605  0.00  0.00    +0.061 HD
ATOM     60  HB1 HYP A   6     142.642 165.940 191.733  0.00  0.00    +0.031 HD
ATOM     61  HB2 HYP A   6     141.747 165.260 190.353  0.00  0.00    +0.031 HD
ATOM     62  HA  HYP A   6     144.444 164.715 190.878  0.00  0.00    +0.060 HD
ATOM     63  H   ALA A   7     143.980 166.034 187.658  0.00  0.00    +0.149 HD
ATOM     64  H   UNK A   5     148.900 166.933 190.432  0.00  0.00    +0.150 HD
ATOM     65  HA  THR A   4     149.740 167.061 192.866  0.00  0.00    +0.062 HD
ATOM     66  H   THR A   4     148.599 164.357 192.896  0.00  0.00    +0.150 HD
ATOM     67  HA  ALA A   3     150.282 162.875 191.905  0.00  0.00    +0.059 HD
ATOM     68  H   ALA A   3     148.126 163.503 189.945  0.00  0.00    +0.149 HD
ATOM     69  H   UNK A   2     146.326 161.313 190.463  0.00  0.00    +0.060 HD
ATOM     70  H   UNK A   2     145.987 162.340 188.493  0.00  0.00    +0.150 HD
ENDROOT
BRANCH   1  71
ATOM     71  CB  ALA A   7     143.565 165.251 185.262  0.00  0.00    -0.038 C 
ATOM     72  HB1 ALA A   7     144.483 165.281 184.666  0.00  0.00    +0.025 HD
ATOM     73  HB2 ALA A   7     142.737 164.959 184.610  0.00  0.00    +0.025 HD
ATOM     74  HB3 ALA A   7     143.363 166.266 185.620  0.00  0.00    +0.025 HD
ENDBRANCH   1  71
BRANCH  36  75
ATOM     75  CB  ALA A   3     151.096 163.209 189.946  0.00  0.00    -0.038 C 
ATOM     76  HB1 ALA A   3     151.286 164.132 189.389  0.00  0.00    +0.025 HD
ATOM     77  HB2 ALA A   3     152.041 162.905 190.412  0.00  0.00    +0.025 HD
ATOM     78  HB3 ALA A   3     150.812 162.431 189.231  0.00  0.00    +0.025 HD
ENDBRANCH  36  75
BRANCH  40  79
ATOM     79  C   UNK A   2     147.216 159.627 189.436  0.00  0.00    +0.005 C 
ATOM     80  H   UNK A   2     148.269 159.321 189.517  0.00  0.00    +0.032 HD
ATOM     81  H   UNK A   2     146.947 159.466 188.384  0.00  0.00    +0.032 HD
BRANCH  79  82
ATOM     82  C   UNK A   2     146.404 158.663 190.328  0.00  0.00    +0.088 C 
BRANCH  82  83
ATOM     83  C   UNK A   2     147.073 157.281 190.292  0.00  0.00    -0.034 C 
ATOM     84  H   UNK A   2     147.477 157.013 191.275  0.00  0.00    +0.026 HD
ATOM     85  H   UNK A   2     146.345 156.502 190.042  0.00  0.00    +0.026 HD
ATOM     86  H   UNK A   2     147.885 157.247 189.559  0.00  0.00    +0.026 HD
ENDBRANCH  82  83
BRANCH  82  87
ATOM     87  C   UNK A   2     144.927 158.507 189.910  0.00  0.00    +0.073 C 
ATOM     88  H   UNK A   2     144.464 159.474 189.689  0.00  0.00    +0.059 HD
ATOM     89  H   UNK A   2     144.838 157.868 189.024  0.00  0.00    +0.059 HD
BRANCH  87  90
ATOM     90  O   UNK A   2     144.200 157.851 190.947  0.00  0.00    -0.392 OA
ATOM     91  H   UNK A   2     143.252 158.014 190.758  0.00  0.00    +0.210 HD
ENDBRANCH  87  90
ENDBRANCH  82  87
BRANCH  82  92
ATOM     92  O   UNK A   2     146.453 159.122 191.687  0.00  0.00    -0.387 OA
ATOM     93  H   UNK A   2     146.098 158.378 192.223  0.00  0.00    +0.210 HD
ENDBRANCH  82  92
ENDBRANCH  79  82
ENDBRANCH  40  79
BRANCH  23  94
ATOM     94  OD  HYP A   6     142.108 167.241 188.693  0.00  0.00    -0.390 OA
ATOM     95  HD  HYP A   6     141.975 166.303 188.457  0.00  0.00    +0.210 HD
ENDBRANCH  23  94
BRANCH  32  96
ATOM     96  CB  THR A   4     148.392 166.413 194.452  0.00  0.00    +0.079 C 
ATOM     97  HB  THR A   4     147.996 167.380 194.790  0.00  0.00    +0.061 HD
BRANCH  96  98
ATOM     98  CG2 THR A   4     149.543 165.993 195.359  0.00  0.00    -0.037 C 
ATOM     99 HG21 THR A   4     149.417 166.431 196.356  0.00  0.00    +0.026 HD
ATOM    100 HG22 THR A   4     150.512 166.310 194.963  0.00  0.00    +0.026 HD
ATOM    101 HG23 THR A   4     149.559 164.907 195.495  0.00  0.00    +0.026 HD
ENDBRANCH  96  98
BRANCH  96 102
ATOM    102  OG1 THR A   4     147.323 165.467 194.622  0.00  0.00    -0.390 OA
ATOM    103  HG1 THR A   4     146.578 165.928 195.048  0.00  0.00    +0.210 HD
ENDBRANCH  96 102
ENDBRANCH  32  96
TORSDOF 12
ENDMDL
MODEL 6
REMARK VINA RESULT:      -5.8      2.613      7.901
REMARK  Name = Phalloidin_conf1
REMARK  12 active torsions:
REMARK  status: ('A' for Active; 'I' for Inactive)
REMARK    1  A    between atoms: CB_1  and  CA_2
REMARK    2  A    between atoms: CG_24  and  OD_30
REMARK    3  A    between atoms: CA_34  and  CB_53
REMARK    4  A    between atoms: CA_38  and  CB_52
REMARK    5  A    between atoms: C_42  and  C_46
REMARK    6  A    between atoms: C_46  and  C_47
REMARK    7  A    between atoms: C_47  and  C_48
REMARK    8  A    between atoms: C_47  and  C_49
REMARK    9  A    between atoms: C_47  and  O_51
REMARK   10  A    between atoms: C_49  and  O_50
REMARK   11  A    between atoms: CB_53  and  CG2_54
REMARK   12  A    between atoms: CB_53  and  OG1_55
REMARK                            x       y       z     vdW  Elec       q    Type
REMARK                         _______ _______ _______ _____ _____    ______ ____
ROOT
ATOM      1  CA  ALA A   7     151.319 167.933 190.023  0.00  0.00    +0.097 C 
ATOM      2  C   ALA A   7     152.317 166.805 190.357  0.00  0.00    +0.234 C 
ATOM      3  O   ALA A   7     153.404 167.029 190.893  0.00  0.00    -0.274 OA
ATOM      4  N   UNK A   1     151.854 165.530 190.128  0.00  0.00    -0.302 N 
ATOM      5  C   UNK A   1     152.561 164.332 190.581  0.00  0.00    +0.103 C 
ATOM      6  C   UNK A   1     151.599 163.269 191.142  0.00  0.00    +0.002 C 
ATOM      7  C   UNK A   1     150.440 163.806 191.940  0.00  0.00    -0.006 A 
ATOM      8  C   UNK A   5     149.100 163.560 191.711  0.00  0.00    +0.078 A 
ATOM      9  N   UNK A   5     148.366 164.177 192.682  0.00  0.00    -0.349 N 
ATOM     10  C   UNK A   5     149.187 164.897 193.513  0.00  0.00    +0.048 A 
ATOM     11  C   UNK A   5     148.870 165.711 194.607  0.00  0.00    -0.038 A 
ATOM     12  C   UNK A   5     149.927 166.319 195.290  0.00  0.00    -0.060 A 
ATOM     13  C   UNK A   5     151.246 166.109 194.899  0.00  0.00    -0.061 A 
ATOM     14  C   UNK A   5     151.545 165.282 193.809  0.00  0.00    -0.052 A 
ATOM     15  C   UNK A   5     150.499 164.667 193.090  0.00  0.00    +0.004 A 
ATOM     16  S   UNK A   5     148.295 162.589 190.524  0.00  0.00    -0.105 S 
ATOM     17  C   UNK A   5     147.225 163.800 189.675  0.00  0.00    +0.027 C 
ATOM     18  C   UNK A   5     147.495 163.978 188.177  0.00  0.00    +0.109 C 
ATOM     19  C   UNK A   5     148.743 164.852 187.915  0.00  0.00    +0.237 C 
ATOM     20  O   UNK A   5     149.892 164.424 188.081  0.00  0.00    -0.274 OA
ATOM     21  N   HYP A   6     148.537 166.126 187.427  0.00  0.00    -0.286 N 
ATOM     22  CD  HYP A   6     147.261 166.810 187.248  0.00  0.00    +0.042 C 
ATOM     23  CG  HYP A   6     147.654 168.237 186.875  0.00  0.00    +0.073 C 
ATOM     24  CB  HYP A   6     148.928 168.035 186.061  0.00  0.00    +0.002 C 
ATOM     25  CA  HYP A   6     149.620 166.855 186.756  0.00  0.00    +0.105 C 
ATOM     26  C   HYP A   6     150.728 167.354 187.691  0.00  0.00    +0.234 C 
ATOM     27  O   HYP A   6     151.837 167.670 187.270  0.00  0.00    -0.274 OA
ATOM     28  N   ALA A   7     150.364 167.503 189.007  0.00  0.00    -0.303 N 
ATOM     29  N   UNK A   5     147.695 162.742 187.433  0.00  0.00    -0.302 N 
ATOM     30  C   THR A   4     147.567 162.726 186.059  0.00  0.00    +0.237 C 
ATOM     31  O   THR A   4     147.026 163.651 185.453  0.00  0.00    -0.274 OA
ATOM     32  CA  THR A   4     148.131 161.467 185.367  0.00  0.00    +0.125 C 
ATOM     33  N   THR A   4     149.564 161.355 185.676  0.00  0.00    -0.300 N 
ATOM     34  C   ALA A   3     150.037 160.805 186.845  0.00  0.00    +0.234 C 
ATOM     35  O   ALA A   3     149.268 160.426 187.726  0.00  0.00    -0.274 OA
ATOM     36  CA  ALA A   3     151.568 160.740 186.939  0.00  0.00    +0.097 C 
ATOM     37  N   ALA A   3     152.109 162.092 187.016  0.00  0.00    -0.303 N 
ATOM     38  C   UNK A   2     153.410 162.361 186.629  0.00  0.00    +0.234 C 
ATOM     39  O   UNK A   2     154.043 161.574 185.926  0.00  0.00    -0.274 OA
ATOM     40  C   UNK A   2     153.932 163.775 187.012  0.00  0.00    +0.102 C 
ATOM     41  N   UNK A   2     153.268 164.261 188.219  0.00  0.00    -0.302 N 
ATOM     42  C   UNK A   1     153.387 163.672 189.457  0.00  0.00    +0.234 C 
ATOM     43  O   UNK A   1     154.052 162.657 189.654  0.00  0.00    -0.274 OA
ATOM     44  HA  ALA A   7     151.893 168.777 189.623  0.00  0.00    +0.059 HD
ATOM     45  H   UNK A   1     151.005 165.402 189.583  0.00  0.00    +0.150 HD
ATOM     46  H   UNK A   1     153.278 164.625 191.355  0.00  0.00    +0.060 HD
ATOM     47  H   UNK A   1     151.213 162.665 190.311  0.00  0.00    +0.034 HD
ATOM     48  H   UNK A   1     152.162 162.568 191.774  0.00  0.00    +0.034 HD
ATOM     49  H   UNK A   5     147.365 164.098 192.785  0.00  0.00    +0.166 HD
ATOM     50  H   UNK A   5     147.845 165.868 194.923  0.00  0.00    +0.064 HD
ATOM     51  H   UNK A   5     149.716 166.959 196.144  0.00  0.00    +0.062 HD
ATOM     52  H   UNK A   5     152.056 166.588 195.445  0.00  0.00    +0.062 HD
ATOM     53  H   UNK A   5     152.582 165.131 193.526  0.00  0.00    +0.062 HD
ATOM     54  H   UNK A   5     146.204 163.419 189.798  0.00  0.00    +0.040 HD
ATOM     55  H   UNK A   5     147.263 164.772 190.178  0.00  0.00    +0.040 HD
ATOM     56  H   UNK A   5     146.613 164.460 187.749  0.00  0.00    +0.060 HD
ATOM     57  HD1 HYP A   6     146.672 166.743 188.168  0.00  0.00    +0.049 HD
ATOM     58  HD2 HYP A   6     146.731 166.320 186.425  0.00  0.00    +0.049 HD
ATOM     59  HG  HYP A   6     146.864 168.757 186.324  0.00  0.00    +0.061 HD
ATOM     60  HB1 HYP A   6     148.663 167.746 185.036  0.00  0.00    +0.031 HD
ATOM     61  HB2 HYP A   6     149.553 168.932 186.020  0.00  0.00    +0.031 HD
ATOM     62  HA  HYP A   6     150.095 166.184 186.029  0.00  0.00    +0.060 HD
ATOM     63  H   ALA A   7     149.384 167.386 189.249  0.00  0.00    +0.149 HD
ATOM     64  H   UNK A   5     148.176 161.963 187.892  0.00  0.00    +0.150 HD
ATOM     65  HA  THR A   4     147.629 160.584 185.784  0.00  0.00    +0.062 HD
ATOM     66  H   THR A   4     150.233 161.673 184.980  0.00  0.00    +0.150 HD
ATOM     67  HA  ALA A   3     151.939 160.257 186.027  0.00  0.00    +0.059 HD
ATOM     68  H   ALA A   3     151.603 162.811 187.527  0.00  0.00    +0.149 HD
ATOM     69  H   UNK A   2     153.587 164.432 186.205  0.00  0.00    +0.060 HD
ATOM     70  H   UNK A   2     152.933 165.222 188.205  0.00  0.00    +0.150 HD
ENDROOT
BRANCH   1  71
ATOM     71  CB  ALA A   7     150.583 168.339 191.293  0.00  0.00    -0.038 C 
ATOM     72  HB1 ALA A   7     151.119 169.131 191.826  0.00  0.00    +0.025 HD
ATOM     73  HB2 ALA A   7     149.575 168.696 191.062  0.00  0.00    +0.025 HD
ATOM     74  HB3 ALA A   7     150.483 167.485 191.972  0.00  0.00    +0.025 HD
ENDBRANCH   1  71
BRANCH  36  75
ATOM     75  CB  ALA A   3     152.009 159.919 188.146  0.00  0.00    -0.038 C 
ATOM     76  HB1 ALA A   3     151.184 159.788 188.854  0.00  0.00    +0.025 HD
ATOM     77  HB2 ALA A   3     152.348 158.921 187.845  0.00  0.00    +0.025 HD
ATOM     78  HB3 ALA A   3     152.835 160.408 188.673  0.00  0.00    +0.025 HD
ENDBRANCH  36  75
BRANCH  40  79
ATOM     79  C   UNK A   2     155.468 163.795 187.067  0.00  0.00    +0.005 C 
ATOM     80  H   UNK A   2     155.823 163.373 186.115  0.00  0.00    +0.032 HD
ATOM     81  H   UNK A   2     155.832 163.108 187.842  0.00  0.00    +0.032 HD
BRANCH  79  82
ATOM     82  C   UNK A   2     156.157 165.167 187.230  0.00  0.00    +0.088 C 
BRANCH  82  83
ATOM     83  C   UNK A   2     156.582 165.331 188.697  0.00  0.00    -0.034 C 
ATOM     84  H   UNK A   2     156.759 164.356 189.167  0.00  0.00    +0.026 HD
ATOM     85  H   UNK A   2     157.527 165.879 188.770  0.00  0.00    +0.026 HD
ATOM     86  H   UNK A   2     155.823 165.866 189.278  0.00  0.00    +0.026 HD
ENDBRANCH  82  83
BRANCH  82  87
ATOM     87  C   UNK A   2     155.274 166.369 186.835  0.00  0.00    +0.073 C 
ATOM     88  H   UNK A   2     155.819 167.083 186.208  0.00  0.00    +0.059 HD
ATOM     89  H   UNK A   2     154.383 166.036 186.290  0.00  0.00    +0.059 HD
BRANCH  87  90
ATOM     90  O   UNK A   2     154.800 167.024 188.010  0.00  0.00    -0.392 OA
ATOM     91  H   UNK A   2     154.327 167.825 187.701  0.00  0.00    +0.210 HD
ENDBRANCH  87  90
ENDBRANCH  82  87
BRANCH  82  92
ATOM     92  O   UNK A   2     157.354 165.192 186.437  0.00  0.00    -0.387 OA
ATOM     93  H   UNK A   2     157.465 164.271 186.112  0.00  0.00    +0.210 HD
ENDBRANCH  82  92
ENDBRANCH  79  82
ENDBRANCH  40  79
BRANCH  23  94
ATOM     94  OD  HYP A   6     147.933 168.974 188.065  0.00  0.00    -0.390 OA
ATOM     95  HD  HYP A   6     148.903 169.033 188.153  0.00  0.00    +0.210 HD
ENDBRANCH  23  94
BRANCH  32  96
ATOM     96  CB  THR A   4     147.916 161.526 183.838  0.00  0.00    +0.079 C 
ATOM     97  HB  THR A   4     146.862 161.730 183.610  0.00  0.00    +0.061 HD
BRANCH  96  98
ATOM     98  CG2 THR A   4     148.347 160.243 183.136  0.00  0.00    -0.037 C 
ATOM     99 HG21 THR A   4     148.149 160.317 182.061  0.00  0.00    +0.026 HD
ATOM    100 HG22 THR A   4     147.820 159.367 183.525  0.00  0.00    +0.026 HD
ATOM    101 HG23 THR A   4     149.424 160.079 183.244  0.00  0.00    +0.026 HD
ENDBRANCH  96  98
BRANCH  96 102
ATOM    102  OG1 THR A   4     148.663 162.616 183.272  0.00  0.00    -0.390 OA
ATOM    103  HG1 THR A   4     148.027 163.279 182.947  0.00  0.00    +0.210 HD
ENDBRANCH  96 102
ENDBRANCH  32  96
TORSDOF 12
ENDMDL
MODEL 7
REMARK VINA RESULT:      -5.6      3.030      7.821
REMARK  Name = Phalloidin_conf1
REMARK  12 active torsions:
REMARK  status: ('A' for Active; 'I' for Inactive)
REMARK    1  A    between atoms: CB_1  and  CA_2
REMARK    2  A    between atoms: CG_24  and  OD_30
REMARK    3  A    between atoms: CA_34  and  CB_53
REMARK    4  A    between atoms: CA_38  and  CB_52
REMARK    5  A    between atoms: C_42  and  C_46
REMARK    6  A    between atoms: C_46  and  C_47
REMARK    7  A    between atoms: C_47  and  C_48
REMARK    8  A    between atoms: C_47  and  C_49
REMARK    9  A    between atoms: C_47  and  O_51
REMARK   10  A    between atoms: C_49  and  O_50
REMARK   11  A    between atoms: CB_53  and  CG2_54
REMARK   12  A    between atoms: CB_53  and  OG1_55
REMARK                            x       y       z     vdW  Elec       q    Type
REMARK                         _______ _______ _______ _____ _____    ______ ____
ROOT
ATOM      1  CA  ALA A   7     153.540 163.743 189.922  0.00  0.00    +0.097 C 
ATOM      2  C   ALA A   7     152.695 165.025 189.770  0.00  0.00    +0.234 C 
ATOM      3  O   ALA A   7     153.040 166.100 190.261  0.00  0.00    -0.274 OA
ATOM      4  N   UNK A   1     151.599 164.905 188.947  0.00  0.00    -0.302 N 
ATOM      5  C   UNK A   1     150.803 166.052 188.507  0.00  0.00    +0.103 C 
ATOM      6  C   UNK A   1     150.403 165.943 187.024  0.00  0.00    +0.002 C 
ATOM      7  C   UNK A   1     151.452 165.360 186.114  0.00  0.00    -0.006 A 
ATOM      8  C   UNK A   5     151.300 164.274 185.276  0.00  0.00    +0.078 A 
ATOM      9  N   UNK A   5     152.457 164.092 184.574  0.00  0.00    -0.349 N 
ATOM     10  C   UNK A   5     153.408 164.992 184.986  0.00  0.00    +0.048 A 
ATOM     11  C   UNK A   5     154.738 165.145 184.579  0.00  0.00    -0.038 A 
ATOM     12  C   UNK A   5     155.483 166.172 185.167  0.00  0.00    -0.060 A 
ATOM     13  C   UNK A   5     154.911 167.017 186.113  0.00  0.00    -0.061 A 
ATOM     14  C   UNK A   5     153.575 166.857 186.499  0.00  0.00    -0.052 A 
ATOM     15  C   UNK A   5     152.803 165.819 185.936  0.00  0.00    +0.004 A 
ATOM     16  S   UNK A   5     149.939 163.254 184.948  0.00  0.00    -0.105 S 
ATOM     17  C   UNK A   5     150.562 161.597 185.395  0.00  0.00    +0.027 C 
ATOM     18  C   UNK A   5     149.801 160.892 186.522  0.00  0.00    +0.109 C 
ATOM     19  C   UNK A   5     150.185 161.445 187.914  0.00  0.00    +0.237 C 
ATOM     20  O   UNK A   5     149.785 162.544 188.318  0.00  0.00    -0.274 OA
ATOM     21  N   HYP A   6     150.954 160.640 188.729  0.00  0.00    -0.286 N 
ATOM     22  CD  HYP A   6     151.570 159.363 188.386  0.00  0.00    +0.042 C 
ATOM     23  CG  HYP A   6     152.449 159.039 189.592  0.00  0.00    +0.073 C 
ATOM     24  CB  HYP A   6     151.645 159.605 190.758  0.00  0.00    +0.002 C 
ATOM     25  CA  HYP A   6     151.006 160.873 190.178  0.00  0.00    +0.105 C 
ATOM     26  C   HYP A   6     151.802 162.117 190.595  0.00  0.00    +0.234 C 
ATOM     27  O   HYP A   6     151.664 162.633 191.700  0.00  0.00    -0.274 OA
ATOM     28  N   ALA A   7     152.733 162.551 189.684  0.00  0.00    -0.303 N 
ATOM     29  N   UNK A   5     148.350 160.973 186.435  0.00  0.00    -0.302 N 
ATOM     30  C   THR A   4     147.558 160.089 187.139  0.00  0.00    +0.237 C 
ATOM     31  O   THR A   4     148.022 159.060 187.630  0.00  0.00    -0.274 OA
ATOM     32  CA  THR A   4     146.069 160.486 187.237  0.00  0.00    +0.125 C 
ATOM     33  N   THR A   4     145.967 161.792 187.902  0.00  0.00    -0.300 N 
ATOM     34  C   ALA A   3     146.139 162.985 187.239  0.00  0.00    +0.234 C 
ATOM     35  O   ALA A   3     146.448 163.012 186.049  0.00  0.00    -0.274 OA
ATOM     36  CA  ALA A   3     145.938 164.230 188.114  0.00  0.00    +0.097 C 
ATOM     37  N   ALA A   3     146.997 164.300 189.114  0.00  0.00    -0.303 N 
ATOM     38  C   UNK A   2     146.815 164.996 190.295  0.00  0.00    +0.234 C 
ATOM     39  O   UNK A   2     145.690 165.303 190.690  0.00  0.00    -0.274 OA
ATOM     40  C   UNK A   2     148.104 165.210 191.139  0.00  0.00    +0.102 C 
ATOM     41  N   UNK A   2     149.283 165.255 190.278  0.00  0.00    -0.302 N 
ATOM     42  C   UNK A   1     149.512 166.228 189.332  0.00  0.00    +0.234 C 
ATOM     43  O   UNK A   1     148.722 167.143 189.108  0.00  0.00    -0.274 OA
ATOM     44  HA  ALA A   7     153.911 163.710 190.954  0.00  0.00    +0.059 HD
ATOM     45  H   UNK A   1     151.293 163.978 188.660  0.00  0.00    +0.150 HD
ATOM     46  H   UNK A   1     151.393 166.962 188.664  0.00  0.00    +0.060 HD
ATOM     47  H   UNK A   1     149.486 165.344 186.947  0.00  0.00    +0.034 HD
ATOM     48  H   UNK A   1     150.131 166.940 186.649  0.00  0.00    +0.034 HD
ATOM     49  H   UNK A   5     152.587 163.408 183.844  0.00  0.00    +0.166 HD
ATOM     50  H   UNK A   5     155.185 164.496 183.834  0.00  0.00    +0.064 HD
ATOM     51  H   UNK A   5     156.520 166.316 184.874  0.00  0.00    +0.062 HD
ATOM     52  H   UNK A   5     155.504 167.813 186.556  0.00  0.00    +0.062 HD
ATOM     53  H   UNK A   5     153.151 167.532 187.237  0.00  0.00    +0.062 HD
ATOM     54  H   UNK A   5     150.464 160.997 184.484  0.00  0.00    +0.040 HD
ATOM     55  H   UNK A   5     151.631 161.636 185.635  0.00  0.00    +0.040 HD
ATOM     56  H   UNK A   5     150.059 159.831 186.466  0.00  0.00    +0.060 HD
ATOM     57  HD1 HYP A   6     152.128 159.460 187.450  0.00  0.00    +0.049 HD
ATOM     58  HD2 HYP A   6     150.770 158.625 188.273  0.00  0.00    +0.049 HD
ATOM     59  HG  HYP A   6     152.653 157.967 189.684  0.00  0.00    +0.061 HD
ATOM     60  HB1 HYP A   6     150.853 158.895 191.032  0.00  0.00    +0.031 HD
ATOM     61  HB2 HYP A   6     152.259 159.801 191.642  0.00  0.00    +0.031 HD
ATOM     62  HA  HYP A   6     149.982 161.012 190.547  0.00  0.00    +0.060 HD
ATOM     63  H   ALA A   7     152.910 161.974 188.866  0.00  0.00    +0.149 HD
ATOM     64  H   UNK A   5     147.926 161.829 186.066  0.00  0.00    +0.150 HD
ATOM     65  HA  THR A   4     145.668 160.594 186.221  0.00  0.00    +0.062 HD
ATOM     66  H   THR A   4     145.730 161.813 188.891  0.00  0.00    +0.150 HD
ATOM     67  HA  ALA A   3     144.971 164.129 188.622  0.00  0.00    +0.059 HD
ATOM     68  H   ALA A   3     147.939 164.000 188.875  0.00  0.00    +0.149 HD
ATOM     69  H   UNK A   2     148.211 164.292 191.730  0.00  0.00    +0.060 HD
ATOM     70  H   UNK A   2     150.092 164.713 190.575  0.00  0.00    +0.150 HD
ENDROOT
BRANCH   1  71
ATOM     71  CB  ALA A   7     154.701 163.794 188.938  0.00  0.00    -0.038 C 
ATOM     72  HB1 ALA A   7     154.844 164.806 188.545  0.00  0.00    +0.025 HD
ATOM     73  HB2 ALA A   7     155.631 163.473 189.416  0.00  0.00    +0.025 HD
ATOM     74  HB3 ALA A   7     154.518 163.126 188.089  0.00  0.00    +0.025 HD
ENDBRANCH   1  71
BRANCH  36  75
ATOM     75  CB  ALA A   3     145.919 165.498 187.267  0.00  0.00    -0.038 C 
ATOM     76  HB1 ALA A   3     145.148 165.441 186.492  0.00  0.00    +0.025 HD
ATOM     77  HB2 ALA A   3     145.706 166.382 187.880  0.00  0.00    +0.025 HD
ATOM     78  HB3 ALA A   3     146.884 165.657 186.777  0.00  0.00    +0.025 HD
ENDBRANCH  36  75
BRANCH  40  79
ATOM     79  C   UNK A   2     147.947 166.411 192.084  0.00  0.00    +0.005 C 
ATOM     80  H   UNK A   2     146.898 166.419 192.414  0.00  0.00    +0.032 HD
ATOM     81  H   UNK A   2     148.085 167.351 191.534  0.00  0.00    +0.032 HD
BRANCH  79  82
ATOM     82  C   UNK A   2     148.814 166.431 193.362  0.00  0.00    +0.088 C 
BRANCH  82  83
ATOM     83  C   UNK A   2     147.957 166.942 194.528  0.00  0.00    -0.034 C 
ATOM     84  H   UNK A   2     148.573 167.138 195.414  0.00  0.00    +0.026 HD
ATOM     85  H   UNK A   2     147.481 167.896 194.274  0.00  0.00    +0.026 HD
ATOM     86  H   UNK A   2     147.175 166.225 194.798  0.00  0.00    +0.026 HD
ENDBRANCH  82  83
BRANCH  82  87
ATOM     87  C   UNK A   2     150.078 167.310 193.255  0.00  0.00    +0.073 C 
ATOM     88  H   UNK A   2     149.852 168.294 192.833  0.00  0.00    +0.059 HD
ATOM     89  H   UNK A   2     150.539 167.450 194.239  0.00  0.00    +0.059 HD
BRANCH  87  90
ATOM     90  O   UNK A   2     151.054 166.652 192.450  0.00  0.00    -0.392 OA
ATOM     91  H   UNK A   2     150.716 165.743 192.304  0.00  0.00    +0.210 HD
ENDBRANCH  87  90
ENDBRANCH  82  87
BRANCH  82  92
ATOM     92  O   UNK A   2     149.210 165.089 193.684  0.00  0.00    -0.387 OA
ATOM     93  H   UNK A   2     148.898 164.541 192.929  0.00  0.00    +0.210 HD
ENDBRANCH  82  92
ENDBRANCH  79  82
ENDBRANCH  40  79
BRANCH  23  94
ATOM     94  OD  HYP A   6     153.694 159.725 189.464  0.00  0.00    -0.390 OA
ATOM     95  HD  HYP A   6     154.335 159.099 189.076  0.00  0.00    +0.210 HD
ENDBRANCH  23  94
BRANCH  32  96
ATOM     96  CB  THR A   4     145.259 159.424 188.015  0.00  0.00    +0.079 C 
ATOM     97  HB  THR A   4     145.932 158.670 188.444  0.00  0.00    +0.061 HD
BRANCH  96  98
ATOM     98  CG2 THR A   4     144.213 158.733 187.146  0.00  0.00    -0.037 C 
ATOM     99 HG21 THR A   4     144.696 158.010 186.480  0.00  0.00    +0.026 HD
ATOM    100 HG22 THR A   4     143.653 159.447 186.536  0.00  0.00    +0.026 HD
ATOM    101 HG23 THR A   4     143.505 158.167 187.761  0.00  0.00    +0.026 HD
ENDBRANCH  96  98
BRANCH  96 102
ATOM    102  OG1 THR A   4     144.582 160.031 189.129  0.00  0.00    -0.390 OA
ATOM    103  HG1 THR A   4     145.242 160.523 189.649  0.00  0.00    +0.210 HD
ENDBRANCH  96 102
ENDBRANCH  32  96
TORSDOF 12
ENDMDL
MODEL 8
REMARK VINA RESULT:      -5.5      3.574      7.143
REMARK  Name = Phalloidin_conf1
REMARK  12 active torsions:
REMARK  status: ('A' for Active; 'I' for Inactive)
REMARK    1  A    between atoms: CB_1  and  CA_2
REMARK    2  A    between atoms: CG_24  and  OD_30
REMARK    3  A    between atoms: CA_34  and  CB_53
REMARK    4  A    between atoms: CA_38  and  CB_52
REMARK    5  A    between atoms: C_42  and  C_46
REMARK    6  A    between atoms: C_46  and  C_47
REMARK    7  A    between atoms: C_47  and  C_48
REMARK    8  A    between atoms: C_47  and  C_49
REMARK    9  A    between atoms: C_47  and  O_51
REMARK   10  A    between atoms: C_49  and  O_50
REMARK   11  A    between atoms: CB_53  and  CG2_54
REMARK   12  A    between atoms: CB_53  and  OG1_55
REMARK                            x       y       z     vdW  Elec       q    Type
REMARK                         _______ _______ _______ _____ _____    ______ ____
ROOT
ATOM      1  CA  ALA A   7     148.323 169.214 189.776  0.00  0.00    +0.097 C 
ATOM      2  C   ALA A   7     148.332 167.735 189.339  0.00  0.00    +0.234 C 
ATOM      3  O   ALA A   7     149.377 167.128 189.098  0.00  0.00    -0.274 OA
ATOM      4  N   UNK A   1     147.104 167.114 189.357  0.00  0.00    -0.302 N 
ATOM      5  C   UNK A   1     146.937 165.670 189.187  0.00  0.00    +0.103 C 
ATOM      6  C   UNK A   1     145.882 165.093 190.149  0.00  0.00    +0.002 C 
ATOM      7  C   UNK A   1     145.869 165.695 191.529  0.00  0.00    -0.006 A 
ATOM      8  C   UNK A   5     144.785 166.269 192.164  0.00  0.00    +0.078 A 
ATOM      9  N   UNK A   5     145.159 166.645 193.422  0.00  0.00    -0.349 N 
ATOM     10  C   UNK A   5     146.497 166.404 193.611  0.00  0.00    +0.048 A 
ATOM     11  C   UNK A   5     147.311 166.667 194.720  0.00  0.00    -0.038 A 
ATOM     12  C   UNK A   5     148.656 166.295 194.640  0.00  0.00    -0.060 A 
ATOM     13  C   UNK A   5     149.158 165.673 193.501  0.00  0.00    -0.061 A 
ATOM     14  C   UNK A   5     148.326 165.406 192.406  0.00  0.00    -0.052 A 
ATOM     15  C   UNK A   5     146.968 165.785 192.451  0.00  0.00    +0.004 A 
ATOM     16  S   UNK A   5     143.138 166.478 191.669  0.00  0.00    -0.105 S 
ATOM     17  C   UNK A   5     142.920 168.288 191.755  0.00  0.00    +0.027 C 
ATOM     18  C   UNK A   5     142.563 168.970 190.430  0.00  0.00    +0.109 C 
ATOM     19  C   UNK A   5     143.797 169.132 189.512  0.00  0.00    +0.237 C 
ATOM     20  O   UNK A   5     144.290 168.177 188.899  0.00  0.00    -0.274 OA
ATOM     21  N   HYP A   6     144.306 170.404 189.350  0.00  0.00    -0.286 N 
ATOM     22  CD  HYP A   6     143.899 171.618 190.049  0.00  0.00    +0.042 C 
ATOM     23  CG  HYP A   6     144.927 172.659 189.614  0.00  0.00    +0.073 C 
ATOM     24  CB  HYP A   6     145.227 172.257 188.173  0.00  0.00    +0.002 C 
ATOM     25  CA  HYP A   6     145.166 170.724 188.204  0.00  0.00    +0.105 C 
ATOM     26  C   HYP A   6     146.578 170.131 188.282  0.00  0.00    +0.234 C 
ATOM     27  O   HYP A   6     147.288 170.017 187.286  0.00  0.00    -0.274 OA
ATOM     28  N   ALA A   7     147.017 169.821 189.546  0.00  0.00    -0.303 N 
ATOM     29  N   UNK A   5     141.548 168.290 189.638  0.00  0.00    -0.302 N 
ATOM     30  C   THR A   4     140.870 168.965 188.644  0.00  0.00    +0.237 C 
ATOM     31  O   THR A   4     140.892 170.194 188.571  0.00  0.00    -0.274 OA
ATOM     32  CA  THR A   4     140.085 168.066 187.665  0.00  0.00    +0.125 C 
ATOM     33  N   THR A   4     141.023 167.144 187.009  0.00  0.00    -0.300 N 
ATOM     34  C   ALA A   3     141.449 165.972 187.589  0.00  0.00    +0.234 C 
ATOM     35  O   ALA A   3     141.103 165.663 188.728  0.00  0.00    -0.274 OA
ATOM     36  CA  ALA A   3     142.386 165.134 186.708  0.00  0.00    +0.097 C 
ATOM     37  N   ALA A   3     143.648 165.843 186.527  0.00  0.00    -0.303 N 
ATOM     38  C   UNK A   2     144.459 165.585 185.437  0.00  0.00    +0.234 C 
ATOM     39  O   UNK A   2     144.025 165.010 184.439  0.00  0.00    -0.274 OA
ATOM     40  C   UNK A   2     145.882 166.210 185.511  0.00  0.00    +0.102 C 
ATOM     41  N   UNK A   2     146.313 166.347 186.900  0.00  0.00    -0.302 N 
ATOM     42  C   UNK A   1     146.526 165.287 187.751  0.00  0.00    +0.234 C 
ATOM     43  O   UNK A   1     146.346 164.117 187.421  0.00  0.00    -0.274 OA
ATOM     44  HA  ALA A   7     149.065 169.745 189.167  0.00  0.00    +0.059 HD
ATOM     45  H   UNK A   1     146.264 167.681 189.450  0.00  0.00    +0.150 HD
ATOM     46  H   UNK A   1     147.904 165.188 189.368  0.00  0.00    +0.060 HD
ATOM     47  H   UNK A   1     144.889 165.208 189.696  0.00  0.00    +0.034 HD
ATOM     48  H   UNK A   1     146.034 164.008 190.243  0.00  0.00    +0.034 HD
ATOM     49  H   UNK A   5     144.537 167.028 194.118  0.00  0.00    +0.166 HD
ATOM     50  H   UNK A   5     146.921 167.140 195.614  0.00  0.00    +0.064 HD
ATOM     51  H   UNK A   5     149.316 166.487 195.483  0.00  0.00    +0.062 HD
ATOM     52  H   UNK A   5     150.206 165.387 193.458  0.00  0.00    +0.062 HD
ATOM     53  H   UNK A   5     148.742 164.917 191.531  0.00  0.00    +0.062 HD
ATOM     54  H   UNK A   5     142.094 168.446 192.459  0.00  0.00    +0.040 HD
ATOM     55  H   UNK A   5     143.804 168.766 192.193  0.00  0.00    +0.040 HD
ATOM     56  H   UNK A   5     142.158 169.955 190.678  0.00  0.00    +0.060 HD
ATOM     57  HD1 HYP A   6     143.887 171.437 191.128  0.00  0.00    +0.049 HD
ATOM     58  HD2 HYP A   6     142.897 171.885 189.701  0.00  0.00    +0.049 HD
ATOM     59  HG  HYP A   6     144.550 173.683 189.711  0.00  0.00    +0.061 HD
ATOM     60  HB1 HYP A   6     144.433 172.638 187.517  0.00  0.00    +0.031 HD
ATOM     61  HB2 HYP A   6     146.187 172.640 187.817  0.00  0.00    +0.031 HD
ATOM     62  HA  HYP A   6     144.702 170.323 187.294  0.00  0.00    +0.060 HD
ATOM     63  H   ALA A   7     146.441 170.101 190.335  0.00  0.00    +0.149 HD
ATOM     64  H   UNK A   5     141.523 167.266 189.644  0.00  0.00    +0.150 HD
ATOM     65  HA  THR A   4     139.370 167.464 188.240  0.00  0.00    +0.062 HD
ATOM     66  H   THR A   4     141.347 167.371 186.072  0.00  0.00    +0.150 HD
ATOM     67  HA  ALA A   3     141.903 165.008 185.732  0.00  0.00    +0.059 HD
ATOM     68  H   ALA A   3     144.033 166.393 187.291  0.00  0.00    +0.149 HD
ATOM     69  H   UNK A   2     145.759 167.235 185.141  0.00  0.00    +0.060 HD
ATOM     70  H   UNK A   2     146.738 167.233 187.164  0.00  0.00    +0.150 HD
ENDROOT
BRANCH   1  71
ATOM     71  CB  ALA A   7     148.685 169.297 191.253  0.00  0.00    -0.038 C 
ATOM     72  HB1 ALA A   7     149.770 169.257 191.399  0.00  0.00    +0.025 HD
ATOM     73  HB2 ALA A   7     148.310 170.226 191.694  0.00  0.00    +0.025 HD
ATOM     74  HB3 ALA A   7     148.239 168.465 191.809  0.00  0.00    +0.025 HD
ENDBRANCH   1  71
BRANCH  36  75
ATOM     75  CB  ALA A   3     142.630 163.758 187.319  0.00  0.00    -0.038 C 
ATOM     76  HB1 ALA A   3     143.280 163.154 186.678  0.00  0.00    +0.025 HD
ATOM     77  HB2 ALA A   3     143.114 163.839 188.299  0.00  0.00    +0.025 HD
ATOM     78  HB3 ALA A   3     141.688 163.217 187.456  0.00  0.00    +0.025 HD
ENDBRANCH  36  75
BRANCH  40  79
ATOM     79  C   UNK A   2     146.861 165.451 184.602  0.00  0.00    +0.005 C 
ATOM     80  H   UNK A   2     146.322 165.233 183.668  0.00  0.00    +0.032 HD
ATOM     81  H   UNK A   2     147.101 164.471 185.033  0.00  0.00    +0.032 HD
BRANCH  79  82
ATOM     82  C   UNK A   2     148.167 166.172 184.203  0.00  0.00    +0.088 C 
BRANCH  82  83
ATOM     83  C   UNK A   2     148.498 165.816 182.747  0.00  0.00    -0.034 C 
ATOM     84  H   UNK A   2     149.580 165.842 182.571  0.00  0.00    +0.026 HD
ATOM     85  H   UNK A   2     148.178 164.795 182.512  0.00  0.00    +0.026 HD
ATOM     86  H   UNK A   2     148.013 166.503 182.045  0.00  0.00    +0.026 HD
ENDBRANCH  82  83
BRANCH  82  87
ATOM     87  C   UNK A   2     149.381 165.816 185.086  0.00  0.00    +0.073 C 
ATOM     88  H   UNK A   2     149.348 164.773 185.420  0.00  0.00    +0.059 HD
ATOM     89  H   UNK A   2     150.319 165.979 184.543  0.00  0.00    +0.059 HD
BRANCH  87  90
ATOM     90  O   UNK A   2     149.421 166.682 186.218  0.00  0.00    -0.392 OA
ATOM     91  H   UNK A   2     148.884 167.466 185.978  0.00  0.00    +0.210 HD
ENDBRANCH  87  90
ENDBRANCH  82  87
BRANCH  82  92
ATOM     92  O   UNK A   2     147.957 167.591 184.255  0.00  0.00    -0.387 OA
ATOM     93  H   UNK A   2     148.461 167.953 183.492  0.00  0.00    +0.210 HD
ENDBRANCH  82  92
ENDBRANCH  79  82
ENDBRANCH  40  79
BRANCH  23  94
ATOM     94  OD  HYP A   6     146.096 172.531 190.423  0.00  0.00    -0.390 OA
ATOM     95  HD  HYP A   6     145.803 172.337 191.333  0.00  0.00    +0.210 HD
ENDBRANCH  23  94
BRANCH  32  96
ATOM     96  CB  THR A   4     139.337 168.910 186.609  0.00  0.00    +0.079 C 
ATOM     97  HB  THR A   4     138.773 169.717 187.096  0.00  0.00    +0.061 HD
BRANCH  96  98
ATOM     98  CG2 THR A   4     138.391 168.075 185.754  0.00  0.00    -0.037 C 
ATOM     99 HG21 THR A   4     138.962 167.472 185.039  0.00  0.00    +0.026 HD
ATOM    100 HG22 THR A   4     137.686 168.698 185.196  0.00  0.00    +0.026 HD
ATOM    101 HG23 THR A   4     137.823 167.371 186.371  0.00  0.00    +0.026 HD
ENDBRANCH  96  98
BRANCH  96 102
ATOM    102  OG1 THR A   4     140.275 169.557 185.732  0.00  0.00    -0.390 OA
ATOM    103  HG1 THR A   4     139.998 170.484 185.626  0.00  0.00    +0.210 HD
ENDBRANCH  96 102
ENDBRANCH  32  96
TORSDOF 12
ENDMDL
MODEL 9
REMARK VINA RESULT:      -5.4      3.251      8.023
REMARK  Name = Phalloidin_conf1
REMARK  12 active torsions:
REMARK  status: ('A' for Active; 'I' for Inactive)
REMARK    1  A    between atoms: CB_1  and  CA_2
REMARK    2  A    between atoms: CG_24  and  OD_30
REMARK    3  A    between atoms: CA_34  and  CB_53
REMARK    4  A    between atoms: CA_38  and  CB_52
REMARK    5  A    between atoms: C_42  and  C_46
REMARK    6  A    between atoms: C_46  and  C_47
REMARK    7  A    between atoms: C_47  and  C_48
REMARK    8  A    between atoms: C_47  and  C_49
REMARK    9  A    between atoms: C_47  and  O_51
REMARK   10  A    between atoms: C_49  and  O_50
REMARK   11  A    between atoms: CB_53  and  CG2_54
REMARK   12  A    between atoms: CB_53  and  OG1_55
REMARK                            x       y       z     vdW  Elec       q    Type
REMARK                         _______ _______ _______ _____ _____    ______ ____
ROOT
ATOM      1  CA  ALA A   7     154.403 163.256 188.973  0.00  0.00    +0.097 C 
ATOM      2  C   ALA A   7     153.762 164.628 189.266  0.00  0.00    +0.234 C 
ATOM      3  O   ALA A   7     154.389 165.544 189.801  0.00  0.00    -0.274 OA
ATOM      4  N   UNK A   1     152.487 164.792 188.776  0.00  0.00    -0.302 N 
ATOM      5  C   UNK A   1     151.798 166.083 188.762  0.00  0.00    +0.103 C 
ATOM      6  C   UNK A   1     151.018 166.308 187.453  0.00  0.00    +0.002 C 
ATOM      7  C   UNK A   1     151.691 165.799 186.206  0.00  0.00    -0.006 A 
ATOM      8  C   UNK A   5     151.157 164.918 185.286  0.00  0.00    +0.078 A 
ATOM      9  N   UNK A   5     152.051 164.749 184.267  0.00  0.00    -0.349 N 
ATOM     10  C   UNK A   5     153.207 165.441 184.530  0.00  0.00    +0.048 A 
ATOM     11  C   UNK A   5     154.395 165.521 183.794  0.00  0.00    -0.038 A 
ATOM     12  C   UNK A   5     155.419 166.327 184.301  0.00  0.00    -0.060 A 
ATOM     13  C   UNK A   5     155.252 167.032 185.489  0.00  0.00    -0.061 A 
ATOM     14  C   UNK A   5     154.052 166.949 186.206  0.00  0.00    -0.052 A 
ATOM     15  C   UNK A   5     153.006 166.131 185.728  0.00  0.00    +0.004 A 
ATOM     16  S   UNK A   5     149.614 164.138 185.200  0.00  0.00    -0.105 S 
ATOM     17  C   UNK A   5     150.060 162.368 185.190  0.00  0.00    +0.027 C 
ATOM     18  C   UNK A   5     149.511 161.546 186.362  0.00  0.00    +0.109 C 
ATOM     19  C   UNK A   5     150.324 161.775 187.658  0.00  0.00    +0.237 C 
ATOM     20  O   UNK A   5     150.221 162.812 188.324  0.00  0.00    -0.274 OA
ATOM     21  N   HYP A   6     151.138 160.747 188.088  0.00  0.00    -0.286 N 
ATOM     22  CD  HYP A   6     151.434 159.500 187.391  0.00  0.00    +0.042 C 
ATOM     23  CG  HYP A   6     152.529 158.854 188.235  0.00  0.00    +0.073 C 
ATOM     24  CB  HYP A   6     152.153 159.270 189.654  0.00  0.00    +0.002 C 
ATOM     25  CA  HYP A   6     151.597 160.690 189.481  0.00  0.00    +0.105 C 
ATOM     26  C   HYP A   6     152.661 161.733 189.846  0.00  0.00    +0.234 C 
ATOM     27  O   HYP A   6     152.895 162.038 191.012  0.00  0.00    -0.274 OA
ATOM     28  N   ALA A   7     153.383 162.230 188.789  0.00  0.00    -0.303 N 
ATOM     29  N   UNK A   5     148.119 161.803 186.700  0.00  0.00    -0.302 N 
ATOM     30  C   THR A   4     147.404 160.893 187.452  0.00  0.00    +0.237 C 
ATOM     31  O   THR A   4     147.809 159.744 187.626  0.00  0.00    -0.274 OA
ATOM     32  CA  THR A   4     146.073 161.426 188.025  0.00  0.00    +0.125 C 
ATOM     33  N   THR A   4     146.355 162.583 188.887  0.00  0.00    -0.300 N 
ATOM     34  C   ALA A   3     146.538 163.854 188.396  0.00  0.00    +0.234 C 
ATOM     35  O   ALA A   3     146.531 164.076 187.187  0.00  0.00    -0.274 OA
ATOM     36  CA  ALA A   3     146.769 164.922 189.475  0.00  0.00    +0.097 C 
ATOM     37  N   ALA A   3     148.047 164.679 190.135  0.00  0.00    -0.303 N 
ATOM     38  C   UNK A   2     148.288 165.150 191.413  0.00  0.00    +0.234 C 
ATOM     39  O   UNK A   2     147.366 165.497 192.151  0.00  0.00    -0.274 OA
ATOM     40  C   UNK A   2     149.768 165.053 191.882  0.00  0.00    +0.102 C 
ATOM     41  N   UNK A   2     150.677 165.133 190.743  0.00  0.00    -0.302 N 
ATOM     42  C   UNK A   1     150.807 166.239 189.933  0.00  0.00    +0.234 C 
ATOM     43  O   UNK A   1     150.142 167.261 190.086  0.00  0.00    -0.274 OA
ATOM     44  HA  ALA A   7     155.017 162.984 189.840  0.00  0.00    +0.059 HD
ATOM     45  H   UNK A   1     151.974 163.978 188.447  0.00  0.00    +0.150 HD
ATOM     46  H   UNK A   1     152.545 166.875 188.886  0.00  0.00    +0.060 HD
ATOM     47  H   UNK A   1     150.029 165.840 187.545  0.00  0.00    +0.034 HD
ATOM     48  H   UNK A   1     150.820 167.383 187.329  0.00  0.00    +0.034 HD
ATOM     49  H   UNK A   5     151.879 164.208 183.434  0.00  0.00    +0.166 HD
ATOM     50  H   UNK A   5     154.525 164.984 182.862  0.00  0.00    +0.064 HD
ATOM     51  H   UNK A   5     156.356 166.410 183.754  0.00  0.00    +0.062 HD
ATOM     52  H   UNK A   5     156.058 167.656 185.866  0.00  0.00    +0.062 HD
ATOM     53  H   UNK A   5     153.945 167.512 187.129  0.00  0.00    +0.062 HD
ATOM     54  H   UNK A   5     149.636 161.969 184.261  0.00  0.00    +0.040 HD
ATOM     55  H   UNK A   5     151.146 162.241 185.123  0.00  0.00    +0.040 HD
ATOM     56  H   UNK A   5     149.574 160.495 186.071  0.00  0.00    +0.060 HD
ATOM     57  HD1 HYP A   6     151.740 159.714 186.363  0.00  0.00    +0.049 HD
ATOM     58  HD2 HYP A   6     150.525 158.892 187.394  0.00  0.00    +0.049 HD
ATOM     59  HG  HYP A   6     152.577 157.769 188.098  0.00  0.00    +0.061 HD
ATOM     60  HB1 HYP A   6     151.356 158.613 190.026  0.00  0.00    +0.031 HD
ATOM     61  HB2 HYP A   6     152.996 159.223 190.348  0.00  0.00    +0.031 HD
ATOM     62  HA  HYP A   6     150.738 160.867 190.141  0.00  0.00    +0.060 HD
ATOM     63  H   ALA A   7     153.250 161.805 187.875  0.00  0.00    +0.149 HD
ATOM     64  H   UNK A   5     147.756 162.756 186.603  0.00  0.00    +0.150 HD
ATOM     65  HA  THR A   4     145.447 161.772 187.193  0.00  0.00    +0.062 HD
ATOM     66  H   THR A   4     146.387 162.438 189.893  0.00  0.00    +0.150 HD
ATOM     67  HA  ALA A   3     145.963 164.831 190.212  0.00  0.00    +0.059 HD
ATOM     68  H   ALA A   3     148.836 164.328 189.597  0.00  0.00    +0.149 HD
ATOM     69  H   UNK A   2     149.875 164.032 192.269  0.00  0.00    +0.060 HD
ATOM     70  H   UNK A   2     151.439 164.458 190.712  0.00  0.00    +0.150 HD
ENDROOT
BRANCH   1  71
ATOM     71  CB  ALA A   7     155.265 163.367 187.722  0.00  0.00    -0.038 C 
ATOM     72  HB1 ALA A   7     155.325 162.409 187.195  0.00  0.00    +0.025 HD
ATOM     73  HB2 ALA A   7     154.858 164.116 187.035  0.00  0.00    +0.025 HD
ATOM     74  HB3 ALA A   7     156.284 163.674 187.979  0.00  0.00    +0.025 HD
ENDBRANCH   1  71
BRANCH  36  75
ATOM     75  CB  ALA A   3     146.735 166.323 188.876  0.00  0.00    -0.038 C 
ATOM     76  HB1 ALA A   3     146.330 167.046 189.592  0.00  0.00    +0.025 HD
ATOM     77  HB2 ALA A   3     147.740 166.661 188.598  0.00  0.00    +0.025 HD
ATOM     78  HB3 ALA A   3     146.113 166.351 187.976  0.00  0.00    +0.025 HD
ENDBRANCH  36  75
BRANCH  40  79
ATOM     79  C   UNK A   2     150.052 166.059 193.009  0.00  0.00    +0.005 C 
ATOM     80  H   UNK A   2     149.230 166.790 192.994  0.00  0.00    +0.032 HD
ATOM     81  H   UNK A   2     150.958 166.637 192.785  0.00  0.00    +0.032 HD
BRANCH  79  82
ATOM     82  C   UNK A   2     150.134 165.511 194.450  0.00  0.00    +0.088 C 
BRANCH  82  83
ATOM     83  C   UNK A   2     148.838 165.876 195.187  0.00  0.00    -0.034 C 
ATOM     84  H   UNK A   2     149.053 166.297 196.177  0.00  0.00    +0.026 HD
ATOM     85  H   UNK A   2     148.284 166.649 194.643  0.00  0.00    +0.026 HD
ATOM     86  H   UNK A   2     148.187 165.005 195.313  0.00  0.00    +0.026 HD
ENDBRANCH  82  83
BRANCH  82  87
ATOM     87  C   UNK A   2     151.332 166.045 195.263  0.00  0.00    +0.073 C 
ATOM     88  H   UNK A   2     152.201 165.383 195.186  0.00  0.00    +0.059 HD
ATOM     89  H   UNK A   2     151.623 167.043 194.917  0.00  0.00    +0.059 HD
BRANCH  87  90
ATOM     90  O   UNK A   2     150.957 166.191 196.630  0.00  0.00    -0.392 OA
ATOM     91  H   UNK A   2     150.518 165.351 196.882  0.00  0.00    +0.210 HD
ENDBRANCH  87  90
ENDBRANCH  82  87
BRANCH  82  92
ATOM     92  O   UNK A   2     150.207 164.078 194.406  0.00  0.00    -0.387 OA
ATOM     93  H   UNK A   2     150.926 163.877 193.766  0.00  0.00    +0.210 HD
ENDBRANCH  82  92
ENDBRANCH  79  82
ENDBRANCH  40  79
BRANCH  23  94
ATOM     94  OD  HYP A   6     153.793 159.410 187.870  0.00  0.00    -0.390 OA
ATOM     95  HD  HYP A   6     154.486 158.848 188.267  0.00  0.00    +0.210 HD
ENDBRANCH  23  94
BRANCH  32  96
ATOM     96  CB  THR A   4     145.332 160.330 188.825  0.00  0.00    +0.079 C 
ATOM     97  HB  THR A   4     144.307 160.651 189.050  0.00  0.00    +0.061 HD
BRANCH  96  98
ATOM     98  CG2 THR A   4     146.046 159.968 190.123  0.00  0.00    -0.037 C 
ATOM     99 HG21 THR A   4     145.321 159.880 190.939  0.00  0.00    +0.026 HD
ATOM    100 HG22 THR A   4     146.792 160.718 190.401  0.00  0.00    +0.026 HD
ATOM    101 HG23 THR A   4     146.542 158.996 190.039  0.00  0.00    +0.026 HD
ENDBRANCH  96  98
BRANCH  96 102
ATOM    102  OG1 THR A   4     145.209 159.135 188.036  0.00  0.00    -0.390 OA
ATOM    103  HG1 THR A   4     144.290 158.818 188.112  0.00  0.00    +0.210 HD
ENDBRANCH  96 102
ENDBRANCH  32  96
TORSDOF 12
ENDMDL
MODEL 10
REMARK VINA RESULT:      -5.3      2.850      8.406
REMARK  Name = Phalloidin_conf1
REMARK  12 active torsions:
REMARK  status: ('A' for Active; 'I' for Inactive)
REMARK    1  A    between atoms: CB_1  and  CA_2
REMARK    2  A    between atoms: CG_24  and  OD_30
REMARK    3  A    between atoms: CA_34  and  CB_53
REMARK    4  A    between atoms: CA_38  and  CB_52
REMARK    5  A    between atoms: C_42  and  C_46
REMARK    6  A    between atoms: C_46  and  C_47
REMARK    7  A    between atoms: C_47  and  C_48
REMARK    8  A    between atoms: C_47  and  C_49
REMARK    9  A    between atoms: C_47  and  O_51
REMARK   10  A    between atoms: C_49  and  O_50
REMARK   11  A    between atoms: CB_53  and  CG2_54
REMARK   12  A    between atoms: CB_53  and  OG1_55
REMARK                            x       y       z     vdW  Elec       q    Type
REMARK                         _______ _______ _______ _____ _____    ______ ____
ROOT
ATOM      1  CA  ALA A   7     149.743 166.941 188.430  0.00  0.00    +0.097 C 
ATOM      2  C   ALA A   7     151.174 166.529 188.835  0.00  0.00    +0.234 C 
ATOM      3  O   ALA A   7     152.055 167.360 189.064  0.00  0.00    -0.274 OA
ATOM      4  N   UNK A   1     151.357 165.181 189.039  0.00  0.00    -0.302 N 
ATOM      5  C   UNK A   1     152.572 164.623 189.632  0.00  0.00    +0.103 C 
ATOM      6  C   UNK A   1     152.262 163.492 190.630  0.00  0.00    +0.002 C 
ATOM      7  C   UNK A   1     151.036 163.700 191.481  0.00  0.00    -0.006 A 
ATOM      8  C   UNK A   5     149.962 162.841 191.598  0.00  0.00    +0.078 A 
ATOM      9  N   UNK A   5     149.082 163.355 192.506  0.00  0.00    -0.349 N 
ATOM     10  C   UNK A   5     149.512 164.585 192.939  0.00  0.00    +0.048 A 
ATOM     11  C   UNK A   5     148.913 165.485 193.828  0.00  0.00    -0.038 A 
ATOM     12  C   UNK A   5     149.595 166.674 194.104  0.00  0.00    -0.060 A 
ATOM     13  C   UNK A   5     150.830 166.941 193.522  0.00  0.00    -0.061 A 
ATOM     14  C   UNK A   5     151.420 166.023 192.645  0.00  0.00    -0.052 A 
ATOM     15  C   UNK A   5     150.749 164.821 192.334  0.00  0.00    +0.004 A 
ATOM     16  S   UNK A   5     149.643 161.293 190.889  0.00  0.00    -0.105 S 
ATOM     17  C   UNK A   5     148.080 161.578 189.991  0.00  0.00    +0.027 C 
ATOM     18  C   UNK A   5     148.145 161.363 188.475  0.00  0.00    +0.109 C 
ATOM     19  C   UNK A   5     148.813 162.555 187.751  0.00  0.00    +0.237 C 
ATOM     20  O   UNK A   5     150.035 162.744 187.786  0.00  0.00    -0.274 OA
ATOM     21  N   HYP A   6     147.999 163.382 187.004  0.00  0.00    -0.286 N 
ATOM     22  CD  HYP A   6     146.544 163.349 186.916  0.00  0.00    +0.042 C 
ATOM     23  CG  HYP A   6     146.192 164.602 186.117  0.00  0.00    +0.073 C 
ATOM     24  CB  HYP A   6     147.360 164.720 185.143  0.00  0.00    +0.002 C 
ATOM     25  CA  HYP A   6     148.567 164.248 185.963  0.00  0.00    +0.105 C 
ATOM     26  C   HYP A   6     149.360 165.448 186.495  0.00  0.00    +0.234 C 
ATOM     27  O   HYP A   6     150.161 166.058 185.792  0.00  0.00    -0.274 OA
ATOM     28  N   ALA A   7     149.047 165.840 187.774  0.00  0.00    -0.303 N 
ATOM     29  N   UNK A   5     148.861 160.169 188.049  0.00  0.00    -0.302 N 
ATOM     30  C   THR A   4     148.675 159.659 186.781  0.00  0.00    +0.237 C 
ATOM     31  O   THR A   4     147.726 160.009 186.079  0.00  0.00    -0.274 OA
ATOM     32  CA  THR A   4     149.726 158.618 186.337  0.00  0.00    +0.125 C 
ATOM     33  N   THR A   4     151.057 159.242 186.368  0.00  0.00    -0.300 N 
ATOM     34  C   ALA A   3     151.801 159.359 187.518  0.00  0.00    +0.234 C 
ATOM     35  O   ALA A   3     151.357 158.991 188.604  0.00  0.00    -0.274 OA
ATOM     36  CA  ALA A   3     153.184 159.996 187.315  0.00  0.00    +0.097 C 
ATOM     37  N   ALA A   3     153.024 161.394 186.931  0.00  0.00    -0.303 N 
ATOM     38  C   UNK A   2     154.017 162.058 186.234  0.00  0.00    +0.234 C 
ATOM     39  O   UNK A   2     154.904 161.442 185.643  0.00  0.00    -0.274 OA
ATOM     40  C   UNK A   2     153.830 163.598 186.127  0.00  0.00    +0.102 C 
ATOM     41  N   UNK A   2     153.087 164.109 187.276  0.00  0.00    -0.302 N 
ATOM     42  C   UNK A   1     153.544 164.063 188.574  0.00  0.00    +0.234 C 
ATOM     43  O   UNK A   1     154.620 163.558 188.886  0.00  0.00    -0.274 OA
ATOM     44  HA  ALA A   7     149.825 167.772 187.719  0.00  0.00    +0.059 HD
ATOM     45  H   UNK A   1     150.639 164.531 188.729  0.00  0.00    +0.150 HD
ATOM     46  H   UNK A   1     153.109 165.429 190.144  0.00  0.00    +0.060 HD
ATOM     47  H   UNK A   1     152.160 162.549 190.078  0.00  0.00    +0.034 HD
ATOM     48  H   UNK A   1     153.127 163.348 191.295  0.00  0.00    +0.034 HD
ATOM     49  H   UNK A   5     148.246 162.890 192.825  0.00  0.00    +0.166 HD
ATOM     50  H   UNK A   5     147.957 165.276 194.294  0.00  0.00    +0.064 HD
ATOM     51  H   UNK A   5     149.156 167.397 194.789  0.00  0.00    +0.062 HD
ATOM     52  H   UNK A   5     151.348 167.869 193.751  0.00  0.00    +0.062 HD
ATOM     53  H   UNK A   5     152.386 166.253 192.206  0.00  0.00    +0.062 HD
ATOM     54  H   UNK A   5     147.370 160.856 190.412  0.00  0.00    +0.040 HD
ATOM     55  H   UNK A   5     147.683 162.576 190.209  0.00  0.00    +0.040 HD
ATOM     56  H   UNK A   5     147.115 161.251 188.124  0.00  0.00    +0.060 HD
ATOM     57  HD1 HYP A   6     146.112 163.334 187.921  0.00  0.00    +0.049 HD
ATOM     58  HD2 HYP A   6     146.261 162.444 186.371  0.00  0.00    +0.049 HD
ATOM     59  HG  HYP A   6     145.219 164.521 185.622  0.00  0.00    +0.061 HD
ATOM     60  HB1 HYP A   6     147.202 164.033 184.301  0.00  0.00    +0.031 HD
ATOM     61  HB2 HYP A   6     147.482 165.733 184.747  0.00  0.00    +0.031 HD
ATOM     62  HA  HYP A   6     149.259 163.654 185.352  0.00  0.00    +0.060 HD
ATOM     63  H   ALA A   7     148.255 165.395 188.231  0.00  0.00    +0.149 HD
ATOM     64  H   UNK A   5     149.680 159.868 188.587  0.00  0.00    +0.150 HD
ATOM     65  HA  THR A   4     149.726 157.792 187.059  0.00  0.00    +0.062 HD
ATOM     66  H   THR A   4     151.453 159.576 185.494  0.00  0.00    +0.150 HD
ATOM     67  HA  ALA A   3     153.684 159.456 186.502  0.00  0.00    +0.059 HD
ATOM     68  H   ALA A   3     152.269 161.946 187.331  0.00  0.00    +0.149 HD
ATOM     69  H   UNK A   2     153.168 163.743 185.265  0.00  0.00    +0.060 HD
ATOM     70  H   UNK A   2     152.337 164.769 187.083  0.00  0.00    +0.150 HD
ENDROOT
BRANCH   1  71
ATOM     71  CB  ALA A   7     148.980 167.374 189.675  0.00  0.00    -0.038 C 
ATOM     72  HB1 ALA A   7     149.370 168.316 190.072  0.00  0.00    +0.025 HD
ATOM     73  HB2 ALA A   7     147.916 167.504 189.453  0.00  0.00    +0.025 HD
ATOM     74  HB3 ALA A   7     149.062 166.617 190.462  0.00  0.00    +0.025 HD
ENDBRANCH   1  71
BRANCH  36  75
ATOM     75  CB  ALA A   3     154.031 159.883 188.578  0.00  0.00    -0.038 C 
ATOM     76  HB1 ALA A   3     154.259 158.836 188.805  0.00  0.00    +0.025 HD
ATOM     77  HB2 ALA A   3     154.984 160.412 188.465  0.00  0.00    +0.025 HD
ATOM     78  HB3 ALA A   3     153.510 160.312 189.440  0.00  0.00    +0.025 HD
ENDBRANCH  36  75
BRANCH  40  79
ATOM     79  C   UNK A   2     155.174 164.296 185.863  0.00  0.00    +0.005 C 
ATOM     80  H   UNK A   2     155.543 163.916 184.899  0.00  0.00    +0.032 HD
ATOM     81  H   UNK A   2     155.919 163.981 186.604  0.00  0.00    +0.032 HD
BRANCH  79  82
ATOM     82  C   UNK A   2     155.168 165.837 185.761  0.00  0.00    +0.088 C 
BRANCH  82  83
ATOM     83  C   UNK A   2     155.994 166.250 184.534  0.00  0.00    -0.034 C 
ATOM     84  H   UNK A   2     155.404 166.162 183.614  0.00  0.00    +0.026 HD
ATOM     85  H   UNK A   2     156.294 167.301 184.602  0.00  0.00    +0.026 HD
ATOM     86  H   UNK A   2     156.895 165.637 184.431  0.00  0.00    +0.026 HD
ENDBRANCH  82  83
BRANCH  82  87
ATOM     87  C   UNK A   2     155.737 166.555 187.003  0.00  0.00    +0.073 C 
ATOM     88  H   UNK A   2     156.163 165.846 187.721  0.00  0.00    +0.059 HD
ATOM     89  H   UNK A   2     156.515 167.271 186.716  0.00  0.00    +0.059 HD
BRANCH  87  90
ATOM     90  O   UNK A   2     154.707 167.316 187.630  0.00  0.00    -0.392 OA
ATOM     91  H   UNK A   2     154.619 168.138 187.103  0.00  0.00    +0.210 HD
ENDBRANCH  87  90
ENDBRANCH  82  87
BRANCH  82  92
ATOM     92  O   UNK A   2     153.824 166.290 185.540  0.00  0.00    -0.387 OA
ATOM     93  H   UNK A   2     153.274 165.783 186.178  0.00  0.00    +0.210 HD
ENDBRANCH  82  92
ENDBRANCH  79  82
ENDBRANCH  40  79
BRANCH  23  94
ATOM     94  OD  HYP A   6     146.158 165.726 186.996  0.00  0.00    -0.390 OA
ATOM     95  HD  HYP A   6     145.962 165.392 187.892  0.00  0.00    +0.210 HD
ENDBRANCH  23  94
BRANCH  32  96
ATOM     96  CB  THR A   4     149.418 158.084 184.920  0.00  0.00    +0.079 C 
ATOM     97  HB  THR A   4     148.381 157.728 184.864  0.00  0.00    +0.061 HD
BRANCH  96  98
ATOM     98  CG2 THR A   4     150.361 156.961 184.501  0.00  0.00    -0.037 C 
ATOM     99 HG21 THR A   4     151.306 157.038 185.050  0.00  0.00    +0.026 HD
ATOM    100 HG22 THR A   4     150.581 156.991 183.429  0.00  0.00    +0.026 HD
ATOM    101 HG23 THR A   4     149.937 155.981 184.743  0.00  0.00    +0.026 HD
ENDBRANCH  96  98
BRANCH  96 102
ATOM    102  OG1 THR A   4     149.528 159.142 183.953  0.00  0.00    -0.390 OA
ATOM    103  HG1 THR A   4     150.161 158.860 183.269  0.00  0.00    +0.210 HD
ENDBRANCH  96 102
ENDBRANCH  32  96
TORSDOF 12
ENDMDL
