MODEL 1
REMARK VINA RESULT:      -6.3      0.000      0.000
REMARK  Name = Phalloidin_conf3
REMARK  12 active torsions:
REMARK  status: ('A' for Active; 'I' for Inactive)
REMARK    1  A    between atoms: CB_1  and  CA_2
REMARK    2  A    between atoms: CG_24  and  OD_30
REMARK    3  A    between atoms: CA_34  and  CB_53
REMARK    4  A    between atoms: CA_38  and  CB_52
REMARK    5  A    between atoms: C_42  and  C_46
REMARK    6  A    between atoms: C_46  and  C_47
REMARK    7  A    between atoms: C_47  and  C_48
REMARK    8  A    between atoms: C_47  and  C_49
REMARK    9  A    between atoms: C_47  and  O_51
REMARK   10  A    between atoms: C_49  and  O_50
REMARK   11  A    between atoms: CB_53  and  CG2_54
REMARK   12  A    between atoms: CB_53  and  OG1_55
REMARK                            x       y       z     vdW  Elec       q    Type
REMARK                         _______ _______ _______ _____ _____    ______ ____
ROOT
ATOM      1  CA  ALA A   7     143.600 167.097 190.989  0.00  0.00    +0.097 C 
ATOM      2  C   ALA A   7     143.461 168.625 191.202  0.00  0.00    +0.234 C 
ATOM      3  O   ALA A   7     143.133 169.105 192.287  0.00  0.00    -0.274 OA
ATOM      4  N   UNK A   1     143.831 169.397 190.126  0.00  0.00    -0.302 N 
ATOM      5  C   UNK A   1     143.882 170.862 190.152  0.00  0.00    +0.103 C 
ATOM      6  C   UNK A   1     145.107 171.397 189.390  0.00  0.00    +0.002 C 
ATOM      7  C   UNK A   1     146.435 170.981 189.959  0.00  0.00    -0.006 A 
ATOM      8  C   UNK A   5     147.154 169.824 189.726  0.00  0.00    +0.078 A 
ATOM      9  N   UNK A   5     148.301 169.862 190.470  0.00  0.00    -0.349 N 
ATOM     10  C   UNK A   5     148.360 171.026 191.197  0.00  0.00    +0.048 A 
ATOM     11  C   UNK A   5     149.333 171.482 192.092  0.00  0.00    -0.038 A 
ATOM     12  C   UNK A   5     149.123 172.724 192.699  0.00  0.00    -0.060 A 
ATOM     13  C   UNK A   5     147.983 173.473 192.419  0.00  0.00    -0.061 A 
ATOM     14  C   UNK A   5     147.018 173.003 191.522  0.00  0.00    -0.052 A 
ATOM     15  C   UNK A   5     147.206 171.751 190.897  0.00  0.00    +0.004 A 
ATOM     16  S   UNK A   5     146.844 168.390 188.815  0.00  0.00    -0.105 S 
ATOM     17  C   UNK A   5     147.088 168.905 187.079  0.00  0.00    +0.027 C 
ATOM     18  C   UNK A   5     145.842 168.912 186.164  0.00  0.00    +0.109 C 
ATOM     19  C   UNK A   5     144.603 168.213 186.750  0.00  0.00    +0.237 C 
ATOM     20  O   UNK A   5     143.677 168.886 187.225  0.00  0.00    -0.274 OA
ATOM     21  N   HYP A   6     144.555 166.839 186.816  0.00  0.00    -0.286 N 
ATOM     22  CD  HYP A   6     145.480 165.892 186.218  0.00  0.00    +0.042 C 
ATOM     23  CG  HYP A   6     144.667 164.613 186.030  0.00  0.00    +0.073 C 
ATOM     24  CB  HYP A   6     143.633 164.687 187.151  0.00  0.00    +0.002 C 
ATOM     25  CA  HYP A   6     143.317 166.174 187.251  0.00  0.00    +0.105 C 
ATOM     26  C   HYP A   6     142.863 166.531 188.679  0.00  0.00    +0.234 C 
ATOM     27  O   HYP A   6     141.673 166.545 188.977  0.00  0.00    -0.274 OA
ATOM     28  N   ALA A   7     143.870 166.735 189.594  0.00  0.00    -0.303 N 
ATOM     29  N   UNK A   5     145.421 170.276 185.831  0.00  0.00    -0.302 N 
ATOM     30  C   THR A   4     146.108 171.058 184.932  0.00  0.00    +0.237 C 
ATOM     31  O   THR A   4     147.115 170.639 184.363  0.00  0.00    -0.274 OA
ATOM     32  CA  THR A   4     145.650 172.529 184.861  0.00  0.00    +0.125 C 
ATOM     33  N   THR A   4     144.217 172.694 185.122  0.00  0.00    -0.300 N 
ATOM     34  C   ALA A   3     143.730 173.869 185.672  0.00  0.00    +0.234 C 
ATOM     35  O   ALA A   3     144.475 174.771 186.050  0.00  0.00    -0.274 OA
ATOM     36  CA  ALA A   3     142.194 173.943 185.772  0.00  0.00    +0.097 C 
ATOM     37  N   ALA A   3     141.742 173.041 186.816  0.00  0.00    -0.303 N 
ATOM     38  C   UNK A   2     141.374 171.743 186.565  0.00  0.00    +0.234 C 
ATOM     39  O   UNK A   2     141.519 171.219 185.454  0.00  0.00    -0.274 OA
ATOM     40  C   UNK A   2     140.820 170.968 187.786  0.00  0.00    +0.102 C 
ATOM     41  N   UNK A   2     141.938 170.607 188.661  0.00  0.00    -0.302 N 
ATOM     42  C   UNK A   1     142.639 171.476 189.470  0.00  0.00    +0.234 C 
ATOM     43  O   UNK A   1     142.399 172.682 189.499  0.00  0.00    -0.274 OA
ATOM     44  HA  ALA A   7     142.640 166.653 191.279  0.00  0.00    +0.059 HD
ATOM     45  H   UNK A   1     144.101 168.929 189.269  0.00  0.00    +0.150 HD
ATOM     46  H   UNK A   1     143.900 171.201 191.195  0.00  0.00    +0.060 HD
ATOM     47  H   UNK A   1     145.059 171.094 188.340  0.00  0.00    +0.034 HD
ATOM     48  H   UNK A   1     145.071 172.492 189.376  0.00  0.00    +0.034 HD
ATOM     49  H   UNK A   5     148.990 169.126 190.499  0.00  0.00    +0.166 HD
ATOM     50  H   UNK A   5     150.226 170.905 192.311  0.00  0.00    +0.064 HD
ATOM     51  H   UNK A   5     149.865 173.117 193.392  0.00  0.00    +0.062 HD
ATOM     52  H   UNK A   5     147.839 174.443 192.897  0.00  0.00    +0.062 HD
ATOM     53  H   UNK A   5     146.151 173.618 191.310  0.00  0.00    +0.062 HD
ATOM     54  H   UNK A   5     147.790 168.167 186.675  0.00  0.00    +0.040 HD
ATOM     55  H   UNK A   5     147.617 169.862 187.054  0.00  0.00    +0.040 HD
ATOM     56  H   UNK A   5     146.096 168.437 185.208  0.00  0.00    +0.060 HD
ATOM     57  HD1 HYP A   6     145.869 166.261 185.267  0.00  0.00    +0.049 HD
ATOM     58  HD2 HYP A   6     146.327 165.740 186.895  0.00  0.00    +0.049 HD
ATOM     59  HG  HYP A   6     144.161 164.604 185.055  0.00  0.00    +0.061 HD
ATOM     60  HB1 HYP A   6     142.743 164.087 186.922  0.00  0.00    +0.031 HD
ATOM     61  HB2 HYP A   6     144.045 164.283 188.085  0.00  0.00    +0.031 HD
ATOM     62  HA  HYP A   6     142.527 166.467 186.549  0.00  0.00    +0.060 HD
ATOM     63  H   ALA A   7     144.826 166.750 189.258  0.00  0.00    +0.149 HD
ATOM     64  H   UNK A   5     144.579 170.645 186.271  0.00  0.00    +0.150 HD
ATOM     65  HA  THR A   4     146.190 173.020 185.685  0.00  0.00    +0.062 HD
ATOM     66  H   THR A   4     143.540 171.979 184.844  0.00  0.00    +0.150 HD
ATOM     67  HA  ALA A   3     141.784 173.612 184.807  0.00  0.00    +0.059 HD
ATOM     68  H   ALA A   3     141.839 173.332 187.796  0.00  0.00    +0.149 HD
ATOM     69  H   UNK A   2     140.459 170.007 187.406  0.00  0.00    +0.060 HD
ATOM     70  H   UNK A   2     142.204 169.627 188.687  0.00  0.00    +0.150 HD
ENDROOT
BRANCH   1  71
ATOM     71  CB  ALA A   7     144.709 166.558 191.889  0.00  0.00    -0.038 C 
ATOM     72  HB1 ALA A   7     144.823 167.175 192.787  0.00  0.00    +0.025 HD
ATOM     73  HB2 ALA A   7     145.673 166.553 191.365  0.00  0.00    +0.025 HD
ATOM     74  HB3 ALA A   7     144.493 165.535 192.217  0.00  0.00    +0.025 HD
ENDBRANCH   1  71
BRANCH  36  75
ATOM     75  CB  ALA A   3     141.711 175.362 186.041  0.00  0.00    -0.038 C 
ATOM     76  HB1 ALA A   3     142.224 176.075 185.386  0.00  0.00    +0.025 HD
ATOM     77  HB2 ALA A   3     140.636 175.469 185.859  0.00  0.00    +0.025 HD
ATOM     78  HB3 ALA A   3     141.910 175.645 187.081  0.00  0.00    +0.025 HD
ENDBRANCH  36  75
BRANCH  40  79
ATOM     79  C   UNK A   2     139.665 171.659 188.533  0.00  0.00    +0.005 C 
ATOM     80  H   UNK A   2     140.066 172.558 189.020  0.00  0.00    +0.032 HD
ATOM     81  H   UNK A   2     138.916 172.011 187.808  0.00  0.00    +0.032 HD
BRANCH  79  82
ATOM     82  C   UNK A   2     138.940 170.789 189.588  0.00  0.00    +0.088 C 
BRANCH  82  83
ATOM     83  C   UNK A   2     137.473 170.624 189.160  0.00  0.00    -0.034 C 
ATOM     84  H   UNK A   2     137.414 170.050 188.227  0.00  0.00    +0.026 HD
ATOM     85  H   UNK A   2     136.902 170.057 189.909  0.00  0.00    +0.026 HD
ATOM     86  H   UNK A   2     136.974 171.587 189.005  0.00  0.00    +0.026 HD
ENDBRANCH  82  83
BRANCH  82  87
ATOM     87  C   UNK A   2     139.006 171.375 191.014  0.00  0.00    +0.073 C 
ATOM     88  H   UNK A   2     137.998 171.623 191.368  0.00  0.00    +0.059 HD
ATOM     89  H   UNK A   2     139.411 170.645 191.724  0.00  0.00    +0.059 HD
BRANCH  87  90
ATOM     90  O   UNK A   2     139.799 172.550 191.054  0.00  0.00    -0.392 OA
ATOM     91  H   UNK A   2     140.341 172.557 190.247  0.00  0.00    +0.210 HD
ENDBRANCH  87  90
ENDBRANCH  82  87
BRANCH  82  92
ATOM     92  O   UNK A   2     139.536 169.484 189.592  0.00  0.00    -0.387 OA
ATOM     93  H   UNK A   2     140.402 169.550 190.031  0.00  0.00    +0.210 HD
ENDBRANCH  82  92
ENDBRANCH  79  82
ENDBRANCH  40  79
BRANCH  23  94
ATOM     94  OD  HYP A   6     145.456 163.447 186.172  0.00  0.00    -0.390 OA
ATOM     95  HD  HYP A   6     146.319 163.597 185.741  0.00  0.00    +0.210 HD
ENDBRANCH  23  94
BRANCH  32  96
ATOM     96  CB  THR A   4     146.102 173.203 183.542  0.00  0.00    +0.079 C 
ATOM     97  HB  THR A   4     145.879 174.274 183.599  0.00  0.00    +0.061 HD
BRANCH  96  98
ATOM     98  CG2 THR A   4     145.415 172.649 182.294  0.00  0.00    -0.037 C 
ATOM     99 HG21 THR A   4     144.335 172.838 182.308  0.00  0.00    +0.026 HD
ATOM    100 HG22 THR A   4     145.830 173.075 181.376  0.00  0.00    +0.026 HD
ATOM    101 HG23 THR A   4     145.529 171.559 182.256  0.00  0.00    +0.026 HD
ENDBRANCH  96  98
BRANCH  96 102
ATOM    102  OG1 THR A   4     147.519 173.108 183.356  0.00  0.00    -0.390 OA
ATOM    103  HG1 THR A   4     147.771 172.170 183.481  0.00  0.00    +0.210 HD
ENDBRANCH  96 102
ENDBRANCH  32  96
TORSDOF 12
ENDMDL
MODEL 2
REMARK VINA RESULT:      -6.3      1.726      2.322
REMARK  Name = Phalloidin_conf3
REMARK  12 active torsions:
REMARK  status: ('A' for Active; 'I' for Inactive)
REMARK    1  A    between atoms: CB_1  and  CA_2
REMARK    2  A    between atoms: CG_24  and  OD_30
REMARK    3  A    between atoms: CA_34  and  CB_53
REMARK    4  A    between atoms: CA_38  and  CB_52
REMARK    5  A    between atoms: C_42  and  C_46
REMARK    6  A    between atoms: C_46  and  C_47
REMARK    7  A    between atoms: C_47  and  C_48
REMARK    8  A    between atoms: C_47  and  C_49
REMARK    9  A    between atoms: C_47  and  O_51
REMARK   10  A    between atoms: C_49  and  O_50
REMARK   11  A    between atoms: CB_53  and  CG2_54
REMARK   12  A    between atoms: CB_53  and  OG1_55
REMARK                            x       y       z     vdW  Elec       q    Type
REMARK                         _______ _______ _______ _____ _____    ______ ____
ROOT
ATOM      1  CA  ALA A   7     143.774 166.964 190.711  0.00  0.00    +0.097 C 
ATOM      2  C   ALA A   7     143.480 168.281 191.471  0.00  0.00    +0.234 C 
ATOM      3  O   ALA A   7     143.364 168.315 192.697  0.00  0.00    -0.274 OA
ATOM      4  N   UNK A   1     143.463 169.412 190.689  0.00  0.00    -0.302 N 
ATOM      5  C   UNK A   1     143.314 170.769 191.220  0.00  0.00    +0.103 C 
ATOM      6  C   UNK A   1     144.229 171.765 190.485  0.00  0.00    +0.002 C 
ATOM      7  C   UNK A   1     145.701 171.487 190.618  0.00  0.00    -0.006 A 
ATOM      8  C   UNK A   5     146.494 170.644 189.865  0.00  0.00    +0.078 A 
ATOM      9  N   UNK A   5     147.772 170.692 190.351  0.00  0.00    -0.349 N 
ATOM     10  C   UNK A   5     147.844 171.553 191.419  0.00  0.00    +0.048 A 
ATOM     11  C   UNK A   5     148.933 171.904 192.223  0.00  0.00    -0.038 A 
ATOM     12  C   UNK A   5     148.707 172.818 193.257  0.00  0.00    -0.060 A 
ATOM     13  C   UNK A   5     147.440 173.354 193.473  0.00  0.00    -0.061 A 
ATOM     14  C   UNK A   5     146.360 172.993 192.660  0.00  0.00    -0.052 A 
ATOM     15  C   UNK A   5     146.563 172.071 191.610  0.00  0.00    +0.004 A 
ATOM     16  S   UNK A   5     146.174 169.536 188.580  0.00  0.00    -0.105 S 
ATOM     17  C   UNK A   5     145.911 170.609 187.124  0.00  0.00    +0.027 C 
ATOM     18  C   UNK A   5     144.491 170.634 186.514  0.00  0.00    +0.109 C 
ATOM     19  C   UNK A   5     143.543 169.539 187.032  0.00  0.00    +0.237 C 
ATOM     20  O   UNK A   5     142.677 169.814 187.875  0.00  0.00    -0.274 OA
ATOM     21  N   HYP A   6     143.705 168.236 186.616  0.00  0.00    -0.286 N 
ATOM     22  CD  HYP A   6     144.578 167.745 185.564  0.00  0.00    +0.042 C 
ATOM     23  CG  HYP A   6     143.930 166.447 185.089  0.00  0.00    +0.073 C 
ATOM     24  CB  HYP A   6     143.203 165.943 186.333  0.00  0.00    +0.002 C 
ATOM     25  CA  HYP A   6     142.717 167.219 187.007  0.00  0.00    +0.105 C 
ATOM     26  C   HYP A   6     142.580 167.006 188.526  0.00  0.00    +0.234 C 
ATOM     27  O   HYP A   6     141.509 166.670 189.023  0.00  0.00    -0.274 OA
ATOM     28  N   ALA A   7     143.742 167.123 189.254  0.00  0.00    -0.303 N 
ATOM     29  N   UNK A   5     143.815 171.911 186.767  0.00  0.00    -0.302 N 
ATOM     30  C   THR A   4     144.145 173.063 186.093  0.00  0.00    +0.237 C 
ATOM     31  O   THR A   4     145.030 173.069 185.238  0.00  0.00    -0.274 OA
ATOM     32  CA  THR A   4     143.483 174.348 186.631  0.00  0.00    +0.125 C 
ATOM     33  N   THR A   4     142.150 174.111 187.190  0.00  0.00    -0.300 N 
ATOM     34  C   ALA A   3     141.653 174.922 188.199  0.00  0.00    +0.234 C 
ATOM     35  O   ALA A   3     142.334 175.798 188.727  0.00  0.00    -0.274 OA
ATOM     36  CA  ALA A   3     140.193 174.630 188.597  0.00  0.00    +0.097 C 
ATOM     37  N   ALA A   3     140.141 173.372 189.320  0.00  0.00    -0.303 N 
ATOM     38  C   UNK A   2     139.908 172.170 188.698  0.00  0.00    +0.234 C 
ATOM     39  O   UNK A   2     139.847 172.064 187.468  0.00  0.00    -0.274 OA
ATOM     40  C   UNK A   2     139.782 170.952 189.646  0.00  0.00    +0.102 C 
ATOM     41  N   UNK A   2     141.120 170.584 190.117  0.00  0.00    -0.302 N 
ATOM     42  C   UNK A   1     141.869 171.285 191.038  0.00  0.00    +0.234 C 
ATOM     43  O   UNK A   1     141.478 172.340 191.535  0.00  0.00    -0.274 OA
ATOM     44  HA  ALA A   7     142.986 166.256 190.995  0.00  0.00    +0.059 HD
ATOM     45  H   UNK A   1     143.578 169.305 189.688  0.00  0.00    +0.150 HD
ATOM     46  H   UNK A   1     143.540 170.760 192.294  0.00  0.00    +0.060 HD
ATOM     47  H   UNK A   1     143.968 171.804 189.424  0.00  0.00    +0.034 HD
ATOM     48  H   UNK A   1     144.038 172.776 190.866  0.00  0.00    +0.034 HD
ATOM     49  H   UNK A   5     148.543 170.150 189.992  0.00  0.00    +0.166 HD
ATOM     50  H   UNK A   5     149.924 171.493 192.057  0.00  0.00    +0.064 HD
ATOM     51  H   UNK A   5     149.533 173.124 193.896  0.00  0.00    +0.062 HD
ATOM     52  H   UNK A   5     147.284 174.071 194.280  0.00  0.00    +0.062 HD
ATOM     53  H   UNK A   5     145.390 173.443 192.841  0.00  0.00    +0.062 HD
ATOM     54  H   UNK A   5     146.589 170.203 186.364  0.00  0.00    +0.040 HD
ATOM     55  H   UNK A   5     146.279 171.615 187.342  0.00  0.00    +0.040 HD
ATOM     56  H   UNK A   5     144.567 170.550 185.423  0.00  0.00    +0.060 HD
ATOM     57  HD1 HYP A   6     144.666 168.469 184.750  0.00  0.00    +0.049 HD
ATOM     58  HD2 HYP A   6     145.577 167.574 185.977  0.00  0.00    +0.049 HD
ATOM     59  HG  HYP A   6     143.207 166.636 184.284  0.00  0.00    +0.061 HD
ATOM     60  HB1 HYP A   6     142.376 165.269 186.073  0.00  0.00    +0.031 HD
ATOM     61  HB2 HYP A   6     143.883 165.365 186.971  0.00  0.00    +0.031 HD
ATOM     62  HA  HYP A   6     141.745 167.541 186.610  0.00  0.00    +0.060 HD
ATOM     63  H   ALA A   7     144.575 167.448 188.776  0.00  0.00    +0.149 HD
ATOM     64  H   UNK A   5     143.063 171.934 187.455  0.00  0.00    +0.150 HD
ATOM     65  HA  THR A   4     144.134 174.660 187.462  0.00  0.00    +0.062 HD
ATOM     66  H   THR A   4     141.531 173.392 186.807  0.00  0.00    +0.150 HD
ATOM     67  HA  ALA A   3     139.609 174.538 187.670  0.00  0.00    +0.059 HD
ATOM     68  H   ALA A   3     140.433 173.355 190.303  0.00  0.00    +0.149 HD
ATOM     69  H   UNK A   2     139.477 170.105 189.024  0.00  0.00    +0.060 HD
ATOM     70  H   UNK A   2     141.518 169.726 189.747  0.00  0.00    +0.150 HD
ENDROOT
BRANCH   1  71
ATOM     71  CB  ALA A   7     145.134 166.421 191.144  0.00  0.00    -0.038 C 
ATOM     72  HB1 ALA A   7     145.885 167.218 191.171  0.00  0.00    +0.025 HD
ATOM     73  HB2 ALA A   7     145.490 165.652 190.448  0.00  0.00    +0.025 HD
ATOM     74  HB3 ALA A   7     145.085 165.979 192.146  0.00  0.00    +0.025 HD
ENDBRANCH   1  71
BRANCH  36  75
ATOM     75  CB  ALA A   3     139.597 175.755 189.433  0.00  0.00    -0.038 C 
ATOM     76  HB1 ALA A   3     139.421 175.420 190.462  0.00  0.00    +0.025 HD
ATOM     77  HB2 ALA A   3     140.261 176.624 189.482  0.00  0.00    +0.025 HD
ATOM     78  HB3 ALA A   3     138.640 176.081 189.010  0.00  0.00    +0.025 HD
ENDBRANCH  36  75
BRANCH  40  79
ATOM     79  C   UNK A   2     138.761 171.110 190.787  0.00  0.00    +0.005 C 
ATOM     80  H   UNK A   2     139.020 170.392 191.575  0.00  0.00    +0.032 HD
ATOM     81  H   UNK A   2     138.862 172.109 191.236  0.00  0.00    +0.032 HD
BRANCH  79  82
ATOM     82  C   UNK A   2     137.279 170.912 190.384  0.00  0.00    +0.088 C 
BRANCH  82  83
ATOM     83  C   UNK A   2     136.666 172.290 190.087  0.00  0.00    -0.034 C 
ATOM     84  H   UNK A   2     136.074 172.250 189.165  0.00  0.00    +0.026 HD
ATOM     85  H   UNK A   2     135.975 172.598 190.885  0.00  0.00    +0.026 HD
ATOM     86  H   UNK A   2     137.428 173.070 189.974  0.00  0.00    +0.026 HD
ENDBRANCH  82  83
BRANCH  82  87
ATOM     87  C   UNK A   2     136.443 170.189 191.462  0.00  0.00    +0.073 C 
ATOM     88  H   UNK A   2     136.410 170.788 192.380  0.00  0.00    +0.059 HD
ATOM     89  H   UNK A   2     135.404 170.062 191.138  0.00  0.00    +0.059 HD
BRANCH  87  90
ATOM     90  O   UNK A   2     136.990 168.919 191.773  0.00  0.00    -0.392 OA
ATOM     91  H   UNK A   2     136.707 168.697 192.676  0.00  0.00    +0.210 HD
ENDBRANCH  87  90
ENDBRANCH  82  87
BRANCH  82  92
ATOM     92  O   UNK A   2     137.233 170.150 189.169  0.00  0.00    -0.387 OA
ATOM     93  H   UNK A   2     136.299 170.028 188.926  0.00  0.00    +0.210 HD
ENDBRANCH  82  92
ENDBRANCH  79  82
ENDBRANCH  40  79
BRANCH  23  94
ATOM     94  OD  HYP A   6     144.885 165.493 184.663  0.00  0.00    -0.390 OA
ATOM     95  HD  HYP A   6     145.337 165.834 183.868  0.00  0.00    +0.210 HD
ENDBRANCH  23  94
BRANCH  32  96
ATOM     96  CB  THR A   4     143.500 175.481 185.576  0.00  0.00    +0.079 C 
ATOM     97  HB  THR A   4     143.143 176.405 186.045  0.00  0.00    +0.061 HD
BRANCH  96  98
ATOM     98  CG2 THR A   4     142.621 175.207 184.355  0.00  0.00    -0.037 C 
ATOM     99 HG21 THR A   4     142.113 176.114 184.009  0.00  0.00    +0.026 HD
ATOM    100 HG22 THR A   4     143.197 174.792 183.522  0.00  0.00    +0.026 HD
ATOM    101 HG23 THR A   4     141.826 174.498 184.618  0.00  0.00    +0.026 HD
ENDBRANCH  96  98
BRANCH  96 102
ATOM    102  OG1 THR A   4     144.828 175.763 185.120  0.00  0.00    -0.390 OA
ATOM    103  HG1 THR A   4     145.184 174.942 184.722  0.00  0.00    +0.210 HD
ENDBRANCH  96 102
ENDBRANCH  32  96
TORSDOF 12
ENDMDL
MODEL 3
REMARK VINA RESULT:      -6.0      2.112      7.746
REMARK  Name = Phalloidin_conf3
REMARK  12 active torsions:
REMARK  status: ('A' for Active; 'I' for Inactive)
REMARK    1  A    between atoms: CB_1  and  CA_2
REMARK    2  A    between atoms: CG_24  and  OD_30
REMARK    3  A    between atoms: CA_34  and  CB_53
REMARK    4  A    between atoms: CA_38  and  CB_52
REMARK    5  A    between atoms: C_42  and  C_46
REMARK    6  A    between atoms: C_46  and  C_47
REMARK    7  A    between atoms: C_47  and  C_48
REMARK    8  A    between atoms: C_47  and  C_49
REMARK    9  A    between atoms: C_47  and  O_51
REMARK   10  A    between atoms: C_49  and  O_50
REMARK   11  A    between atoms: CB_53  and  CG2_54
REMARK   12  A    between atoms: CB_53  and  OG1_55
REMARK                            x       y       z     vdW  Elec       q    Type
REMARK                         _______ _______ _______ _____ _____    ______ ____
ROOT
ATOM      1  CA  ALA A   7     143.722 174.354 187.114  0.00  0.00    +0.097 C 
ATOM      2  C   ALA A   7     143.418 173.679 188.475  0.00  0.00    +0.234 C 
ATOM      3  O   ALA A   7     143.026 174.321 189.449  0.00  0.00    -0.274 OA
ATOM      4  N   UNK A   1     143.520 172.307 188.478  0.00  0.00    -0.302 N 
ATOM      5  C   UNK A   1     143.170 171.466 189.625  0.00  0.00    +0.103 C 
ATOM      6  C   UNK A   1     142.446 170.182 189.183  0.00  0.00    +0.002 C 
ATOM      7  C   UNK A   1     141.132 170.406 188.488  0.00  0.00    -0.006 A 
ATOM      8  C   UNK A   5     140.891 170.660 187.151  0.00  0.00    +0.078 A 
ATOM      9  N   UNK A   5     139.544 170.813 186.969  0.00  0.00    -0.349 N 
ATOM     10  C   UNK A   5     138.881 170.667 188.163  0.00  0.00    +0.048 A 
ATOM     11  C   UNK A   5     137.515 170.749 188.454  0.00  0.00    -0.038 A 
ATOM     12  C   UNK A   5     137.122 170.556 189.781  0.00  0.00    -0.060 A 
ATOM     13  C   UNK A   5     138.063 170.293 190.774  0.00  0.00    -0.061 A 
ATOM     14  C   UNK A   5     139.425 170.214 190.469  0.00  0.00    -0.052 A 
ATOM     15  C   UNK A   5     139.848 170.407 189.135  0.00  0.00    +0.004 A 
ATOM     16  S   UNK A   5     141.911 170.909 185.781  0.00  0.00    -0.105 S 
ATOM     17  C   UNK A   5     142.514 169.235 185.366  0.00  0.00    +0.027 C 
ATOM     18  C   UNK A   5     144.024 168.961 185.558  0.00  0.00    +0.109 C 
ATOM     19  C   UNK A   5     144.883 170.213 185.804  0.00  0.00    +0.237 C 
ATOM     20  O   UNK A   5     145.267 170.487 186.951  0.00  0.00    -0.274 OA
ATOM     21  N   HYP A   6     145.165 171.070 184.764  0.00  0.00    -0.286 N 
ATOM     22  CD  HYP A   6     144.901 170.862 183.351  0.00  0.00    +0.042 C 
ATOM     23  CG  HYP A   6     145.930 171.729 182.628  0.00  0.00    +0.073 C 
ATOM     24  CB  HYP A   6     146.185 172.866 183.613  0.00  0.00    +0.002 C 
ATOM     25  CA  HYP A   6     146.096 172.189 184.975  0.00  0.00    +0.105 C 
ATOM     26  C   HYP A   6     145.654 173.200 186.049  0.00  0.00    +0.234 C 
ATOM     27  O   HYP A   6     146.481 173.809 186.721  0.00  0.00    -0.274 OA
ATOM     28  N   ALA A   7     144.300 173.432 186.132  0.00  0.00    -0.303 N 
ATOM     29  N   UNK A   5     144.273 168.066 186.692  0.00  0.00    -0.302 N 
ATOM     30  C   THR A   4     144.016 166.716 186.632  0.00  0.00    +0.237 C 
ATOM     31  O   THR A   4     143.564 166.198 185.611  0.00  0.00    -0.274 OA
ATOM     32  CA  THR A   4     144.137 165.967 187.974  0.00  0.00    +0.125 C 
ATOM     33  N   THR A   4     145.154 166.542 188.859  0.00  0.00    -0.300 N 
ATOM     34  C   ALA A   3     145.034 166.437 190.236  0.00  0.00    +0.234 C 
ATOM     35  O   ALA A   3     144.039 165.952 190.769  0.00  0.00    -0.274 OA
ATOM     36  CA  ALA A   3     146.240 166.979 191.029  0.00  0.00    +0.097 C 
ATOM     37  N   ALA A   3     146.249 168.428 190.947  0.00  0.00    -0.303 N 
ATOM     38  C   UNK A   2     146.946 169.111 189.981  0.00  0.00    +0.234 C 
ATOM     39  O   UNK A   2     147.513 168.536 189.045  0.00  0.00    -0.274 OA
ATOM     40  C   UNK A   2     146.922 170.653 190.120  0.00  0.00    +0.102 C 
ATOM     41  N   UNK A   2     145.611 171.144 189.688  0.00  0.00    -0.302 N 
ATOM     42  C   UNK A   1     144.433 171.015 190.393  0.00  0.00    +0.234 C 
ATOM     43  O   UNK A   1     144.374 170.421 191.469  0.00  0.00    -0.274 OA
ATOM     44  HA  ALA A   7     144.454 175.145 187.314  0.00  0.00    +0.059 HD
ATOM     45  H   UNK A   1     143.838 171.848 187.633  0.00  0.00    +0.150 HD
ATOM     46  H   UNK A   1     142.541 172.043 190.315  0.00  0.00    +0.060 HD
ATOM     47  H   UNK A   1     143.096 169.589 188.534  0.00  0.00    +0.034 HD
ATOM     48  H   UNK A   1     142.263 169.552 190.061  0.00  0.00    +0.034 HD
ATOM     49  H   UNK A   5     139.105 171.030 186.087  0.00  0.00    +0.166 HD
ATOM     50  H   UNK A   5     136.776 170.949 187.683  0.00  0.00    +0.064 HD
ATOM     51  H   UNK A   5     136.067 170.601 190.043  0.00  0.00    +0.062 HD
ATOM     52  H   UNK A   5     137.737 170.139 191.804  0.00  0.00    +0.062 HD
ATOM     53  H   UNK A   5     140.131 169.990 191.260  0.00  0.00    +0.062 HD
ATOM     54  H   UNK A   5     142.292 169.126 184.298  0.00  0.00    +0.040 HD
ATOM     55  H   UNK A   5     141.897 168.489 185.875  0.00  0.00    +0.040 HD
ATOM     56  H   UNK A   5     144.408 168.436 184.674  0.00  0.00    +0.060 HD
ATOM     57  HD1 HYP A   6     145.003 169.810 183.077  0.00  0.00    +0.049 HD
ATOM     58  HD2 HYP A   6     143.876 171.175 183.127  0.00  0.00    +0.049 HD
ATOM     59  HG  HYP A   6     146.861 171.174 182.449  0.00  0.00    +0.061 HD
ATOM     60  HB1 HYP A   6     147.163 173.336 183.446  0.00  0.00    +0.031 HD
ATOM     61  HB2 HYP A   6     145.437 173.660 183.491  0.00  0.00    +0.031 HD
ATOM     62  HA  HYP A   6     147.059 171.757 185.275  0.00  0.00    +0.060 HD
ATOM     63  H   ALA A   7     143.681 172.855 185.574  0.00  0.00    +0.149 HD
ATOM     64  H   UNK A   5     144.666 168.460 187.545  0.00  0.00    +0.150 HD
ATOM     65  HA  THR A   4     143.160 166.120 188.458  0.00  0.00    +0.062 HD
ATOM     66  H   THR A   4     146.004 166.971 188.484  0.00  0.00    +0.150 HD
ATOM     67  HA  ALA A   3     147.151 166.585 190.555  0.00  0.00    +0.059 HD
ATOM     68  H   ALA A   3     145.598 168.960 191.536  0.00  0.00    +0.149 HD
ATOM     69  H   UNK A   2     147.613 171.043 189.365  0.00  0.00    +0.060 HD
ATOM     70  H   UNK A   2     145.574 171.640 188.803  0.00  0.00    +0.150 HD
ENDROOT
BRANCH   1  71
ATOM     71  CB  ALA A   7     142.440 174.969 186.557  0.00  0.00    -0.038 C 
ATOM     72  HB1 ALA A   7     142.650 175.901 186.022  0.00  0.00    +0.025 HD
ATOM     73  HB2 ALA A   7     141.732 175.199 187.362  0.00  0.00    +0.025 HD
ATOM     74  HB3 ALA A   7     141.947 174.289 185.852  0.00  0.00    +0.025 HD
ENDBRANCH   1  71
BRANCH  36  75
ATOM     75  CB  ALA A   3     146.215 166.522 192.481  0.00  0.00    -0.038 C 
ATOM     76  HB1 ALA A   3     146.371 165.440 192.548  0.00  0.00    +0.025 HD
ATOM     77  HB2 ALA A   3     147.001 167.002 193.074  0.00  0.00    +0.025 HD
ATOM     78  HB3 ALA A   3     145.248 166.758 192.941  0.00  0.00    +0.025 HD
ENDBRANCH  36  75
BRANCH  40  79
ATOM     79  C   UNK A   2     147.350 171.196 191.495  0.00  0.00    +0.005 C 
ATOM     80  H   UNK A   2     146.640 170.819 192.243  0.00  0.00    +0.032 HD
ATOM     81  H   UNK A   2     148.331 170.780 191.766  0.00  0.00    +0.032 HD
BRANCH  79  82
ATOM     82  C   UNK A   2     147.434 172.738 191.605  0.00  0.00    +0.088 C 
BRANCH  82  83
ATOM     83  C   UNK A   2     148.772 173.108 192.264  0.00  0.00    -0.034 C 
ATOM     84  H   UNK A   2     149.085 172.315 192.955  0.00  0.00    +0.026 HD
ATOM     85  H   UNK A   2     149.572 173.200 191.516  0.00  0.00    +0.026 HD
ATOM     86  H   UNK A   2     148.715 174.049 192.822  0.00  0.00    +0.026 HD
ENDBRANCH  82  83
BRANCH  82  87
ATOM     87  C   UNK A   2     146.268 173.360 192.403  0.00  0.00    +0.073 C 
ATOM     88  H   UNK A   2     145.762 172.588 192.996  0.00  0.00    +0.059 HD
ATOM     89  H   UNK A   2     146.631 174.108 193.116  0.00  0.00    +0.059 HD
BRANCH  87  90
ATOM     90  O   UNK A   2     145.317 173.962 191.542  0.00  0.00    -0.392 OA
ATOM     91  H   UNK A   2     145.560 174.899 191.456  0.00  0.00    +0.210 HD
ENDBRANCH  87  90
ENDBRANCH  82  87
BRANCH  82  92
ATOM     92  O   UNK A   2     147.440 173.291 190.281  0.00  0.00    -0.387 OA
ATOM     93  H   UNK A   2     148.135 173.970 190.242  0.00  0.00    +0.210 HD
ENDBRANCH  82  92
ENDBRANCH  79  82
ENDBRANCH  40  79
BRANCH  23  94
ATOM     94  OD  HYP A   6     145.436 172.245 181.406  0.00  0.00    -0.390 OA
ATOM     95  HD  HYP A   6     146.085 172.880 181.048  0.00  0.00    +0.210 HD
ENDBRANCH  23  94
BRANCH  32  96
ATOM     96  CB  THR A   4     144.317 164.444 187.762  0.00  0.00    +0.079 C 
ATOM     97  HB  THR A   4     144.263 163.943 188.736  0.00  0.00    +0.061 HD
BRANCH  96  98
ATOM     98  CG2 THR A   4     145.647 164.060 187.112  0.00  0.00    -0.037 C 
ATOM     99 HG21 THR A   4     146.018 164.851 186.450  0.00  0.00    +0.026 HD
ATOM    100 HG22 THR A   4     146.417 163.841 187.859  0.00  0.00    +0.026 HD
ATOM    101 HG23 THR A   4     145.512 163.175 186.479  0.00  0.00    +0.026 HD
ENDBRANCH  96  98
BRANCH  96 102
ATOM    102  OG1 THR A   4     143.255 163.888 186.979  0.00  0.00    -0.390 OA
ATOM    103  HG1 THR A   4     143.502 163.986 186.036  0.00  0.00    +0.210 HD
ENDBRANCH  96 102
ENDBRANCH  32  96
TORSDOF 12
ENDMDL
MODEL 4
REMARK VINA RESULT:      -6.0      8.254     12.698
REMARK  Name = Phalloidin_conf3
REMARK  12 active torsions:
REMARK  status: ('A' for Active; 'I' for Inactive)
REMARK    1  A    between atoms: CB_1  and  CA_2
REMARK    2  A    between atoms: CG_24  and  OD_30
REMARK    3  A    between atoms: CA_34  and  CB_53
REMARK    4  A    between atoms: CA_38  and  CB_52
REMARK    5  A    between atoms: C_42  and  C_46
REMARK    6  A    between atoms: C_46  and  C_47
REMARK    7  A    between atoms: C_47  and  C_48
REMARK    8  A    between atoms: C_47  and  C_49
REMARK    9  A    between atoms: C_47  and  O_51
REMARK   10  A    between atoms: C_49  and  O_50
REMARK   11  A    between atoms: CB_53  and  CG2_54
REMARK   12  A    between atoms: CB_53  and  OG1_55
REMARK                            x       y       z     vdW  Elec       q    Type
REMARK                         _______ _______ _______ _____ _____    ______ ____
ROOT
ATOM      1  CA  ALA A   7     155.083 163.274 188.294  0.00  0.00    +0.097 C 
ATOM      2  C   ALA A   7     154.445 162.553 189.508  0.00  0.00    +0.234 C 
ATOM      3  O   ALA A   7     155.109 162.209 190.486  0.00  0.00    -0.274 OA
ATOM      4  N   UNK A   1     153.077 162.424 189.453  0.00  0.00    -0.302 N 
ATOM      5  C   UNK A   1     152.265 161.875 190.542  0.00  0.00    +0.103 C 
ATOM      6  C   UNK A   1     150.951 162.658 190.716  0.00  0.00    +0.002 C 
ATOM      7  C   UNK A   1     151.123 164.105 191.090  0.00  0.00    -0.006 A 
ATOM      8  C   UNK A   5     151.330 165.194 190.266  0.00  0.00    +0.078 A 
ATOM      9  N   UNK A   5     151.447 166.315 191.040  0.00  0.00    -0.349 N 
ATOM     10  C   UNK A   5     151.323 165.992 192.370  0.00  0.00    +0.048 A 
ATOM     11  C   UNK A   5     151.384 166.805 193.506  0.00  0.00    -0.038 A 
ATOM     12  C   UNK A   5     151.225 166.191 194.752  0.00  0.00    -0.060 A 
ATOM     13  C   UNK A   5     151.015 164.817 194.850  0.00  0.00    -0.061 A 
ATOM     14  C   UNK A   5     150.957 164.017 193.705  0.00  0.00    -0.052 A 
ATOM     15  C   UNK A   5     151.116 164.613 192.435  0.00  0.00    +0.004 A 
ATOM     16  S   UNK A   5     151.558 165.377 188.564  0.00  0.00    -0.105 S 
ATOM     17  C   UNK A   5     149.885 165.149 187.865  0.00  0.00    +0.027 C 
ATOM     18  C   UNK A   5     149.651 163.897 186.988  0.00  0.00    +0.109 C 
ATOM     19  C   UNK A   5     150.929 163.145 186.578  0.00  0.00    +0.237 C 
ATOM     20  O   UNK A   5     151.248 162.099 187.162  0.00  0.00    -0.274 OA
ATOM     21  N   HYP A   6     151.758 163.673 185.614  0.00  0.00    -0.286 N 
ATOM     22  CD  HYP A   6     151.501 164.813 184.753  0.00  0.00    +0.042 C 
ATOM     23  CG  HYP A   6     152.366 164.576 183.518  0.00  0.00    +0.073 C 
ATOM     24  CB  HYP A   6     153.540 163.766 184.062  0.00  0.00    +0.002 C 
ATOM     25  CA  HYP A   6     152.905 162.887 185.131  0.00  0.00    +0.105 C 
ATOM     26  C   HYP A   6     153.939 162.526 186.213  0.00  0.00    +0.234 C 
ATOM     27  O   HYP A   6     154.588 161.486 186.144  0.00  0.00    -0.274 OA
ATOM     28  N   ALA A   7     154.143 163.476 187.187  0.00  0.00    -0.303 N 
ATOM     29  N   UNK A   5     148.798 162.914 187.663  0.00  0.00    -0.302 N 
ATOM     30  C   THR A   4     147.442 163.092 187.803  0.00  0.00    +0.237 C 
ATOM     31  O   THR A   4     146.882 164.095 187.361  0.00  0.00    -0.274 OA
ATOM     32  CA  THR A   4     146.739 162.068 188.717  0.00  0.00    +0.125 C 
ATOM     33  N   THR A   4     147.365 160.743 188.677  0.00  0.00    -0.300 N 
ATOM     34  C   ALA A   3     147.301 159.898 189.774  0.00  0.00    +0.234 C 
ATOM     35  O   ALA A   3     146.811 160.253 190.844  0.00  0.00    -0.274 OA
ATOM     36  CA  ALA A   3     147.895 158.496 189.539  0.00  0.00    +0.097 C 
ATOM     37  N   ALA A   3     149.340 158.599 189.461  0.00  0.00    -0.303 N 
ATOM     38  C   UNK A   2     150.008 158.764 188.272  0.00  0.00    +0.234 C 
ATOM     39  O   UNK A   2     149.416 158.956 187.204  0.00  0.00    -0.274 OA
ATOM     40  C   UNK A   2     151.553 158.746 188.377  0.00  0.00    +0.102 C 
ATOM     41  N   UNK A   2     152.000 160.022 188.941  0.00  0.00    -0.302 N 
ATOM     42  C   UNK A   1     151.867 160.410 190.258  0.00  0.00    +0.234 C 
ATOM     43  O   UNK A   1     151.306 159.704 191.095  0.00  0.00    -0.274 OA
ATOM     44  HA  ALA A   7     155.896 162.629 187.940  0.00  0.00    +0.059 HD
ATOM     45  H   UNK A   1     152.598 162.743 188.619  0.00  0.00    +0.150 HD
ATOM     46  H   UNK A   1     152.849 161.895 191.470  0.00  0.00    +0.060 HD
ATOM     47  H   UNK A   1     150.352 162.596 189.803  0.00  0.00    +0.034 HD
ATOM     48  H   UNK A   1     150.346 162.176 191.492  0.00  0.00    +0.034 HD
ATOM     49  H   UNK A   5     151.626 167.242 190.685  0.00  0.00    +0.166 HD
ATOM     50  H   UNK A   5     151.543 167.877 193.436  0.00  0.00    +0.064 HD
ATOM     51  H   UNK A   5     151.254 166.794 195.657  0.00  0.00    +0.062 HD
ATOM     52  H   UNK A   5     150.886 164.357 195.830  0.00  0.00    +0.062 HD
ATOM     53  H   UNK A   5     150.773 162.954 193.813  0.00  0.00    +0.062 HD
ATOM     54  H   UNK A   5     149.737 166.029 187.229  0.00  0.00    +0.040 HD
ATOM     55  H   UNK A   5     149.142 165.232 188.663  0.00  0.00    +0.040 HD
ATOM     56  H   UNK A   5     149.107 164.191 186.082  0.00  0.00    +0.060 HD
ATOM     57  HD1 HYP A   6     150.442 164.883 184.491  0.00  0.00    +0.049 HD
ATOM     58  HD2 HYP A   6     151.783 165.731 185.277  0.00  0.00    +0.049 HD
ATOM     59  HG  HYP A   6     151.827 163.990 182.761  0.00  0.00    +0.061 HD
ATOM     60  HB1 HYP A   6     154.026 163.177 183.274  0.00  0.00    +0.031 HD
ATOM     61  HB2 HYP A   6     154.312 164.431 184.471  0.00  0.00    +0.031 HD
ATOM     62  HA  HYP A   6     152.505 161.958 184.705  0.00  0.00    +0.060 HD
ATOM     63  H   ALA A   7     153.535 164.287 187.200  0.00  0.00    +0.149 HD
ATOM     64  H   UNK A   5     149.229 162.064 188.023  0.00  0.00    +0.150 HD
ATOM     65  HA  THR A   4     146.886 162.467 189.733  0.00  0.00    +0.062 HD
ATOM     66  H   THR A   4     147.800 160.386 187.823  0.00  0.00    +0.150 HD
ATOM     67  HA  ALA A   3     147.506 158.129 188.578  0.00  0.00    +0.059 HD
ATOM     68  H   ALA A   3     149.876 158.701 190.330  0.00  0.00    +0.149 HD
ATOM     69  H   UNK A   2     151.934 158.761 187.351  0.00  0.00    +0.060 HD
ATOM     70  H   UNK A   2     152.467 160.666 188.309  0.00  0.00    +0.150 HD
ENDROOT
BRANCH   1  71
ATOM     71  CB  ALA A   7     155.651 164.618 188.744  0.00  0.00    -0.038 C 
ATOM     72  HB1 ALA A   7     156.415 164.976 188.047  0.00  0.00    +0.025 HD
ATOM     73  HB2 ALA A   7     156.115 164.537 189.734  0.00  0.00    +0.025 HD
ATOM     74  HB3 ALA A   7     154.867 165.383 188.796  0.00  0.00    +0.025 HD
ENDBRANCH   1  71
BRANCH  36  75
ATOM     75  CB  ALA A   3     147.484 157.516 190.630  0.00  0.00    -0.038 C 
ATOM     76  HB1 ALA A   3     147.202 156.550 190.196  0.00  0.00    +0.025 HD
ATOM     77  HB2 ALA A   3     148.297 157.329 191.339  0.00  0.00    +0.025 HD
ATOM     78  HB3 ALA A   3     146.626 157.904 191.191  0.00  0.00    +0.025 HD
ENDBRANCH  36  75
BRANCH  40  79
ATOM     79  C   UNK A   2     152.148 157.523 189.098  0.00  0.00    +0.005 C 
ATOM     80  H   UNK A   2     151.908 157.609 190.165  0.00  0.00    +0.032 HD
ATOM     81  H   UNK A   2     151.650 156.609 188.744  0.00  0.00    +0.032 HD
BRANCH  79  82
ATOM     82  C   UNK A   2     153.676 157.333 188.932  0.00  0.00    +0.088 C 
BRANCH  82  83
ATOM     83  C   UNK A   2     153.932 155.943 188.328  0.00  0.00    -0.034 C 
ATOM     84  H   UNK A   2     153.072 155.287 188.510  0.00  0.00    +0.026 HD
ATOM     85  H   UNK A   2     154.051 156.000 187.236  0.00  0.00    +0.026 HD
ATOM     86  H   UNK A   2     154.826 155.466 188.746  0.00  0.00    +0.026 HD
ENDBRANCH  82  83
BRANCH  82  87
ATOM     87  C   UNK A   2     154.457 157.479 190.256  0.00  0.00    +0.073 C 
ATOM     88  H   UNK A   2     155.051 156.577 190.447  0.00  0.00    +0.059 HD
ATOM     89  H   UNK A   2     155.168 158.311 190.206  0.00  0.00    +0.059 HD
BRANCH  87  90
ATOM     90  O   UNK A   2     153.582 157.682 191.352  0.00  0.00    -0.392 OA
ATOM     91  H   UNK A   2     152.730 157.978 190.989  0.00  0.00    +0.210 HD
ENDBRANCH  87  90
ENDBRANCH  82  87
BRANCH  82  92
ATOM     92  O   UNK A   2     154.159 158.306 187.995  0.00  0.00    -0.387 OA
ATOM     93  H   UNK A   2     154.693 157.841 187.327  0.00  0.00    +0.210 HD
ENDBRANCH  82  92
ENDBRANCH  79  82
ENDBRANCH  40  79
BRANCH  23  94
ATOM     94  OD  HYP A   6     152.832 165.784 182.946  0.00  0.00    -0.390 OA
ATOM     95  HD  HYP A   6     152.718 165.739 181.978  0.00  0.00    +0.210 HD
ENDBRANCH  23  94
BRANCH  32  96
ATOM     96  CB  THR A   4     145.214 162.021 188.452  0.00  0.00    +0.079 C 
ATOM     97  HB  THR A   4     144.744 161.382 189.209  0.00  0.00    +0.061 HD
BRANCH  96  98
ATOM     98  CG2 THR A   4     144.840 161.467 187.077  0.00  0.00    -0.037 C 
ATOM     99 HG21 THR A   4     143.757 161.501 186.907  0.00  0.00    +0.026 HD
ATOM    100 HG22 THR A   4     145.336 162.013 186.268  0.00  0.00    +0.026 HD
ATOM    101 HG23 THR A   4     145.122 160.410 187.009  0.00  0.00    +0.026 HD
ENDBRANCH  96  98
BRANCH  96 102
ATOM    102  OG1 THR A   4     144.610 163.310 188.599  0.00  0.00    -0.390 OA
ATOM    103  HG1 THR A   4     145.121 163.940 188.050  0.00  0.00    +0.210 HD
ENDBRANCH  96 102
ENDBRANCH  32  96
TORSDOF 12
ENDMDL
MODEL 5
REMARK VINA RESULT:      -5.8      4.233      9.402
REMARK  Name = Phalloidin_conf3
REMARK  12 active torsions:
REMARK  status: ('A' for Active; 'I' for Inactive)
REMARK    1  A    between atoms: CB_1  and  CA_2
REMARK    2  A    between atoms: CG_24  and  OD_30
REMARK    3  A    between atoms: CA_34  and  CB_53
REMARK    4  A    between atoms: CA_38  and  CB_52
REMARK    5  A    between atoms: C_42  and  C_46
REMARK    6  A    between atoms: C_46  and  C_47
REMARK    7  A    between atoms: C_47  and  C_48
REMARK    8  A    between atoms: C_47  and  C_49
REMARK    9  A    between atoms: C_47  and  O_51
REMARK   10  A    between atoms: C_49  and  O_50
REMARK   11  A    between atoms: CB_53  and  CG2_54
REMARK   12  A    between atoms: CB_53  and  OG1_55
REMARK                            x       y       z     vdW  Elec       q    Type
REMARK                         _______ _______ _______ _____ _____    ______ ____
ROOT
ATOM      1  CA  ALA A   7     146.866 169.873 187.690  0.00  0.00    +0.097 C 
ATOM      2  C   ALA A   7     147.264 169.105 188.974  0.00  0.00    +0.234 C 
ATOM      3  O   ALA A   7     147.652 169.685 189.989  0.00  0.00    -0.274 OA
ATOM      4  N   UNK A   1     147.053 167.747 188.928  0.00  0.00    -0.302 N 
ATOM      5  C   UNK A   1     147.256 166.849 190.068  0.00  0.00    +0.103 C 
ATOM      6  C   UNK A   1     146.155 165.777 190.145  0.00  0.00    +0.002 C 
ATOM      7  C   UNK A   1     144.765 166.312 190.352  0.00  0.00    -0.006 A 
ATOM      8  C   UNK A   5     143.861 166.763 189.410  0.00  0.00    +0.078 A 
ATOM      9  N   UNK A   5     142.725 167.174 190.052  0.00  0.00    -0.349 N 
ATOM     10  C   UNK A   5     142.857 167.005 191.409  0.00  0.00    +0.048 A 
ATOM     11  C   UNK A   5     141.962 167.293 192.445  0.00  0.00    -0.038 A 
ATOM     12  C   UNK A   5     142.374 167.016 193.752  0.00  0.00    -0.060 A 
ATOM     13  C   UNK A   5     143.632 166.473 194.006  0.00  0.00    -0.061 A 
ATOM     14  C   UNK A   5     144.515 166.191 192.959  0.00  0.00    -0.052 A 
ATOM     15  C   UNK A   5     144.124 166.464 191.630  0.00  0.00    +0.004 A 
ATOM     16  S   UNK A   5     143.933 166.989 187.700  0.00  0.00    -0.105 S 
ATOM     17  C   UNK A   5     143.812 165.296 187.023  0.00  0.00    +0.027 C 
ATOM     18  C   UNK A   5     145.056 164.737 186.293  0.00  0.00    +0.109 C 
ATOM     19  C   UNK A   5     146.144 165.778 185.979  0.00  0.00    +0.237 C 
ATOM     20  O   UNK A   5     147.165 165.840 186.680  0.00  0.00    -0.274 OA
ATOM     21  N   HYP A   6     145.952 166.690 184.965  0.00  0.00    -0.286 N 
ATOM     22  CD  HYP A   6     144.887 166.703 183.977  0.00  0.00    +0.042 C 
ATOM     23  CG  HYP A   6     145.470 167.453 182.782  0.00  0.00    +0.073 C 
ATOM     24  CB  HYP A   6     146.481 168.401 183.421  0.00  0.00    +0.002 C 
ATOM     25  CA  HYP A   6     147.048 167.592 184.581  0.00  0.00    +0.105 C 
ATOM     26  C   HYP A   6     147.533 168.530 185.702  0.00  0.00    +0.234 C 
ATOM     27  O   HYP A   6     148.703 168.898 185.756  0.00  0.00    -0.274 OA
ATOM     28  N   ALA A   7     146.561 168.987 186.562  0.00  0.00    -0.303 N 
ATOM     29  N   UNK A   5     145.713 163.683 187.072  0.00  0.00    -0.302 N 
ATOM     30  C   THR A   4     145.188 162.417 187.184  0.00  0.00    +0.237 C 
ATOM     31  O   THR A   4     144.133 162.114 186.627  0.00  0.00    -0.274 OA
ATOM     32  CA  THR A   4     145.894 161.504 188.206  0.00  0.00    +0.125 C 
ATOM     33  N   THR A   4     147.329 161.779 188.320  0.00  0.00    -0.300 N 
ATOM     34  C   ALA A   3     148.004 161.533 189.506  0.00  0.00    +0.234 C 
ATOM     35  O   ALA A   3     147.420 161.172 190.526  0.00  0.00    -0.274 OA
ATOM     36  CA  ALA A   3     149.527 161.754 189.436  0.00  0.00    +0.097 C 
ATOM     37  N   ALA A   3     149.798 163.177 189.354  0.00  0.00    -0.303 N 
ATOM     38  C   UNK A   2     149.939 163.836 188.158  0.00  0.00    +0.234 C 
ATOM     39  O   UNK A   2     149.725 163.286 187.071  0.00  0.00    -0.274 OA
ATOM     40  C   UNK A   2     150.330 165.330 188.272  0.00  0.00    +0.102 C 
ATOM     41  N   UNK A   2     149.151 166.094 188.688  0.00  0.00    -0.302 N 
ATOM     42  C   UNK A   1     148.598 166.093 189.952  0.00  0.00    +0.234 C 
ATOM     43  O   UNK A   1     149.043 165.394 190.861  0.00  0.00    -0.274 OA
ATOM     44  HA  ALA A   7     147.729 170.492 187.415  0.00  0.00    +0.059 HD
ATOM     45  H   UNK A   1     146.720 167.342 188.060  0.00  0.00    +0.150 HD
ATOM     46  H   UNK A   1     147.279 167.443 190.991  0.00  0.00    +0.060 HD
ATOM     47  H   UNK A   1     146.168 165.159 189.242  0.00  0.00    +0.034 HD
ATOM     48  H   UNK A   1     146.381 165.089 190.968  0.00  0.00    +0.034 HD
ATOM     49  H   UNK A   5     141.918 167.569 189.594  0.00  0.00    +0.166 HD
ATOM     50  H   UNK A   5     140.979 167.712 192.253  0.00  0.00    +0.064 HD
ATOM     51  H   UNK A   5     141.700 167.216 194.583  0.00  0.00    +0.062 HD
ATOM     52  H   UNK A   5     143.933 166.258 195.031  0.00  0.00    +0.062 HD
ATOM     53  H   UNK A   5     145.480 165.751 193.187  0.00  0.00    +0.062 HD
ATOM     54  H   UNK A   5     143.000 165.356 186.289  0.00  0.00    +0.040 HD
ATOM     55  H   UNK A   5     143.458 164.616 187.802  0.00  0.00    +0.040 HD
ATOM     56  H   UNK A   5     144.739 164.262 185.357  0.00  0.00    +0.060 HD
ATOM     57  HD1 HYP A   6     144.585 165.689 183.704  0.00  0.00    +0.049 HD
ATOM     58  HD2 HYP A   6     144.016 167.217 184.395  0.00  0.00    +0.049 HD
ATOM     59  HG  HYP A   6     145.983 166.767 182.094  0.00  0.00    +0.061 HD
ATOM     60  HB1 HYP A   6     147.258 168.706 182.708  0.00  0.00    +0.031 HD
ATOM     61  HB2 HYP A   6     145.989 169.324 183.755  0.00  0.00    +0.031 HD
ATOM     62  HA  HYP A   6     147.889 166.964 184.262  0.00  0.00    +0.060 HD
ATOM     63  H   ALA A   7     145.628 168.600 186.479  0.00  0.00    +0.149 HD
ATOM     64  H   UNK A   5     146.598 163.897 187.529  0.00  0.00    +0.150 HD
ATOM     65  HA  THR A   4     145.434 161.769 189.170  0.00  0.00    +0.062 HD
ATOM     66  H   THR A   4     147.877 162.092 187.515  0.00  0.00    +0.150 HD
ATOM     67  HA  ALA A   3     149.891 161.264 188.521  0.00  0.00    +0.059 HD
ATOM     68  H   ALA A   3     149.736 163.742 190.209  0.00  0.00    +0.149 HD
ATOM     69  H   UNK A   2     150.525 165.679 187.253  0.00  0.00    +0.060 HD
ATOM     70  H   UNK A   2     148.719 166.691 187.989  0.00  0.00    +0.150 HD
ENDROOT
BRANCH   1  71
ATOM     71  CB  ALA A   7     145.665 170.768 187.986  0.00  0.00    -0.038 C 
ATOM     72  HB1 ALA A   7     145.368 171.336 187.098  0.00  0.00    +0.025 HD
ATOM     73  HB2 ALA A   7     145.897 171.487 188.780  0.00  0.00    +0.025 HD
ATOM     74  HB3 ALA A   7     144.798 170.177 188.304  0.00  0.00    +0.025 HD
ENDBRANCH   1  71
BRANCH  36  75
ATOM     75  CB  ALA A   3     150.245 161.138 190.631  0.00  0.00    -0.038 C 
ATOM     76  HB1 ALA A   3     151.162 161.693 190.857  0.00  0.00    +0.025 HD
ATOM     77  HB2 ALA A   3     149.624 161.152 191.532  0.00  0.00    +0.025 HD
ATOM     78  HB3 ALA A   3     150.516 160.097 190.420  0.00  0.00    +0.025 HD
ENDBRANCH  36  75
BRANCH  40  79
ATOM     79  C   UNK A   2     151.574 165.620 189.131  0.00  0.00    +0.005 C 
ATOM     80  H   UNK A   2     151.313 165.431 190.180  0.00  0.00    +0.032 HD
ATOM     81  H   UNK A   2     152.370 164.905 188.878  0.00  0.00    +0.032 HD
BRANCH  79  82
ATOM     82  C   UNK A   2     152.154 167.049 189.000  0.00  0.00    +0.088 C 
BRANCH  82  83
ATOM     83  C   UNK A   2     153.659 166.941 188.706  0.00  0.00    -0.034 C 
ATOM     84  H   UNK A   2     153.985 167.787 188.090  0.00  0.00    +0.026 HD
ATOM     85  H   UNK A   2     154.249 166.986 189.632  0.00  0.00    +0.026 HD
ATOM     86  H   UNK A   2     153.914 166.013 188.181  0.00  0.00    +0.026 HD
ENDBRANCH  82  83
BRANCH  82  87
ATOM     87  C   UNK A   2     151.928 167.919 190.255  0.00  0.00    +0.073 C 
ATOM     88  H   UNK A   2     152.074 167.319 191.162  0.00  0.00    +0.059 HD
ATOM     89  H   UNK A   2     152.654 168.737 190.307  0.00  0.00    +0.059 HD
BRANCH  87  90
ATOM     90  O   UNK A   2     150.618 168.460 190.280  0.00  0.00    -0.392 OA
ATOM     91  H   UNK A   2     150.700 169.417 190.134  0.00  0.00    +0.210 HD
ENDBRANCH  87  90
ENDBRANCH  82  87
BRANCH  82  92
ATOM     92  O   UNK A   2     151.540 167.691 187.872  0.00  0.00    -0.387 OA
ATOM     93  H   UNK A   2     151.753 168.640 187.914  0.00  0.00    +0.210 HD
ENDBRANCH  82  92
ENDBRANCH  79  82
ENDBRANCH  40  79
BRANCH  23  94
ATOM     94  OD  HYP A   6     144.488 168.191 182.078  0.00  0.00    -0.390 OA
ATOM     95  HD  HYP A   6     144.458 167.874 181.155  0.00  0.00    +0.210 HD
ENDBRANCH  23  94
BRANCH  32  96
ATOM     96  CB  THR A   4     145.589 160.009 187.940  0.00  0.00    +0.079 C 
ATOM     97  HB  THR A   4     146.001 159.413 188.763  0.00  0.00    +0.061 HD
BRANCH  96  98
ATOM     98  CG2 THR A   4     146.182 159.476 186.635  0.00  0.00    -0.037 C 
ATOM     99 HG21 THR A   4     147.144 158.978 186.801  0.00  0.00    +0.026 HD
ATOM    100 HG22 THR A   4     145.507 158.773 186.138  0.00  0.00    +0.026 HD
ATOM    101 HG23 THR A   4     146.387 160.308 185.950  0.00  0.00    +0.026 HD
ENDBRANCH  96  98
BRANCH  96 102
ATOM    102  OG1 THR A   4     144.181 159.748 187.935  0.00  0.00    -0.390 OA
ATOM    103  HG1 THR A   4     143.746 160.485 187.459  0.00  0.00    +0.210 HD
ENDBRANCH  96 102
ENDBRANCH  32  96
TORSDOF 12
ENDMDL
MODEL 6
REMARK VINA RESULT:      -5.7      8.416     13.227
REMARK  Name = Phalloidin_conf3
REMARK  12 active torsions:
REMARK  status: ('A' for Active; 'I' for Inactive)
REMARK    1  A    between atoms: CB_1  and  CA_2
REMARK    2  A    between atoms: CG_24  and  OD_30
REMARK    3  A    between atoms: CA_34  and  CB_53
REMARK    4  A    between atoms: CA_38  and  CB_52
REMARK    5  A    between atoms: C_42  and  C_46
REMARK    6  A    between atoms: C_46  and  C_47
REMARK    7  A    between atoms: C_47  and  C_48
REMARK    8  A    between atoms: C_47  and  C_49
REMARK    9  A    between atoms: C_47  and  O_51
REMARK   10  A    between atoms: C_49  and  O_50
REMARK   11  A    between atoms: CB_53  and  CG2_54
REMARK   12  A    between atoms: CB_53  and  OG1_55
REMARK                            x       y       z     vdW  Elec       q    Type
REMARK                         _______ _______ _______ _____ _____    ______ ____
ROOT
ATOM      1  CA  ALA A   7     152.089 166.428 187.180  0.00  0.00    +0.097 C 
ATOM      2  C   ALA A   7     152.801 165.772 188.389  0.00  0.00    +0.234 C 
ATOM      3  O   ALA A   7     153.658 166.366 189.043  0.00  0.00    -0.274 OA
ATOM      4  N   UNK A   1     152.330 164.526 188.734  0.00  0.00    -0.302 N 
ATOM      5  C   UNK A   1     152.785 163.779 189.909  0.00  0.00    +0.103 C 
ATOM      6  C   UNK A   1     151.617 163.060 190.607  0.00  0.00    +0.002 C 
ATOM      7  C   UNK A   1     150.551 163.969 191.151  0.00  0.00    -0.006 A 
ATOM      8  C   UNK A   5     149.456 164.506 190.502  0.00  0.00    +0.078 A 
ATOM      9  N   UNK A   5     148.764 165.291 191.383  0.00  0.00    -0.349 N 
ATOM     10  C   UNK A   5     149.380 165.288 192.611  0.00  0.00    +0.048 A 
ATOM     11  C   UNK A   5     149.036 165.948 193.795  0.00  0.00    -0.038 A 
ATOM     12  C   UNK A   5     149.863 165.759 194.906  0.00  0.00    -0.060 A 
ATOM     13  C   UNK A   5     150.990 164.943 194.828  0.00  0.00    -0.061 A 
ATOM     14  C   UNK A   5     151.321 164.290 193.636  0.00  0.00    -0.052 A 
ATOM     15  C   UNK A   5     150.502 164.466 192.500  0.00  0.00    +0.004 A 
ATOM     16  S   UNK A   5     148.896 164.460 188.870  0.00  0.00    -0.105 S 
ATOM     17  C   UNK A   5     148.196 162.782 188.687  0.00  0.00    +0.027 C 
ATOM     18  C   UNK A   5     148.923 161.815 187.724  0.00  0.00    +0.109 C 
ATOM     19  C   UNK A   5     149.980 162.473 186.821  0.00  0.00    +0.237 C 
ATOM     20  O   UNK A   5     151.185 162.360 187.092  0.00  0.00    -0.274 OA
ATOM     21  N   HYP A   6     149.587 163.249 185.755  0.00  0.00    -0.286 N 
ATOM     22  CD  HYP A   6     148.245 163.406 185.221  0.00  0.00    +0.042 C 
ATOM     23  CG  HYP A   6     148.447 163.796 183.759  0.00  0.00    +0.073 C 
ATOM     24  CB  HYP A   6     149.790 164.521 183.771  0.00  0.00    +0.002 C 
ATOM     25  CA  HYP A   6     150.598 163.764 184.818  0.00  0.00    +0.105 C 
ATOM     26  C   HYP A   6     151.653 164.688 185.453  0.00  0.00    +0.234 C 
ATOM     27  O   HYP A   6     152.798 164.735 185.012  0.00  0.00    -0.274 OA
ATOM     28  N   ALA A   7     151.203 165.504 186.465  0.00  0.00    -0.303 N 
ATOM     29  N   UNK A   5     149.615 160.745 188.450  0.00  0.00    -0.302 N 
ATOM     30  C   THR A   4     148.941 159.694 189.027  0.00  0.00    +0.237 C 
ATOM     31  O   THR A   4     147.716 159.607 188.955  0.00  0.00    -0.274 OA
ATOM     32  CA  THR A   4     149.800 158.780 189.923  0.00  0.00    +0.125 C 
ATOM     33  N   THR A   4     151.190 158.677 189.468  0.00  0.00    -0.300 N 
ATOM     34  C   ALA A   3     152.212 158.431 190.371  0.00  0.00    +0.234 C 
ATOM     35  O   ALA A   3     152.016 158.387 191.584  0.00  0.00    -0.274 OA
ATOM     36  CA  ALA A   3     153.599 158.226 189.731  0.00  0.00    +0.097 C 
ATOM     37  N   ALA A   3     154.085 159.500 189.232  0.00  0.00    -0.303 N 
ATOM     38  C   UNK A   2     153.872 159.921 187.943  0.00  0.00    +0.234 C 
ATOM     39  O   UNK A   2     153.149 159.298 187.156  0.00  0.00    -0.274 OA
ATOM     40  C   UNK A   2     154.557 161.257 187.566  0.00  0.00    +0.102 C 
ATOM     41  N   UNK A   2     153.806 162.358 188.175  0.00  0.00    -0.302 N 
ATOM     42  C   UNK A   1     153.802 162.684 189.515  0.00  0.00    +0.234 C 
ATOM     43  O   UNK A   1     154.423 162.028 190.350  0.00  0.00    -0.274 OA
ATOM     44  HA  ALA A   7     152.878 166.749 186.489  0.00  0.00    +0.059 HD
ATOM     45  H   UNK A   1     151.614 164.106 188.154  0.00  0.00    +0.150 HD
ATOM     46  H   UNK A   1     153.281 164.469 190.603  0.00  0.00    +0.060 HD
ATOM     47  H   UNK A   1     151.157 162.340 189.925  0.00  0.00    +0.034 HD
ATOM     48  H   UNK A   1     152.009 162.461 191.438  0.00  0.00    +0.034 HD
ATOM     49  H   UNK A   5     147.935 165.818 191.153  0.00  0.00    +0.166 HD
ATOM     50  H   UNK A   5     148.157 166.581 193.863  0.00  0.00    +0.064 HD
ATOM     51  H   UNK A   5     149.620 166.247 195.848  0.00  0.00    +0.062 HD
ATOM     52  H   UNK A   5     151.620 164.803 195.707  0.00  0.00    +0.062 HD
ATOM     53  H   UNK A   5     152.194 163.647 193.613  0.00  0.00    +0.062 HD
ATOM     54  H   UNK A   5     147.190 162.952 188.287  0.00  0.00    +0.040 HD
ATOM     55  H   UNK A   5     148.050 162.339 189.676  0.00  0.00    +0.040 HD
ATOM     56  H   UNK A   5     148.180 161.313 187.092  0.00  0.00    +0.060 HD
ATOM     57  HD1 HYP A   6     147.671 162.481 185.312  0.00  0.00    +0.049 HD
ATOM     58  HD2 HYP A   6     147.724 164.187 185.783  0.00  0.00    +0.049 HD
ATOM     59  HG  HYP A   6     148.508 162.908 183.115  0.00  0.00    +0.061 HD
ATOM     60  HB1 HYP A   6     150.269 164.504 182.784  0.00  0.00    +0.031 HD
ATOM     61  HB2 HYP A   6     149.656 165.579 184.031  0.00  0.00    +0.031 HD
ATOM     62  HA  HYP A   6     151.109 162.896 184.383  0.00  0.00    +0.060 HD
ATOM     63  H   ALA A   7     150.255 165.372 186.801  0.00  0.00    +0.149 HD
ATOM     64  H   UNK A   5     150.631 160.779 188.510  0.00  0.00    +0.150 HD
ATOM     65  HA  THR A   4     149.814 159.292 190.898  0.00  0.00    +0.062 HD
ATOM     66  H   THR A   4     151.428 158.715 188.474  0.00  0.00    +0.150 HD
ATOM     67  HA  ALA A   3     153.474 157.533 188.886  0.00  0.00    +0.059 HD
ATOM     68  H   ALA A   3     154.472 160.176 189.900  0.00  0.00    +0.149 HD
ATOM     69  H   UNK A   2     154.402 161.393 186.491  0.00  0.00    +0.060 HD
ATOM     70  H   UNK A   2     153.260 162.944 187.550  0.00  0.00    +0.150 HD
ENDROOT
BRANCH   1  71
ATOM     71  CB  ALA A   7     151.296 167.643 187.657  0.00  0.00    -0.038 C 
ATOM     72  HB1 ALA A   7     151.737 168.572 187.282  0.00  0.00    +0.025 HD
ATOM     73  HB2 ALA A   7     151.283 167.698 188.752  0.00  0.00    +0.025 HD
ATOM     74  HB3 ALA A   7     150.259 167.604 187.304  0.00  0.00    +0.025 HD
ENDBRANCH   1  71
BRANCH  36  75
ATOM     75  CB  ALA A   3     154.593 157.617 190.712  0.00  0.00    -0.038 C 
ATOM     76  HB1 ALA A   3     154.766 158.295 191.555  0.00  0.00    +0.025 HD
ATOM     77  HB2 ALA A   3     154.231 156.669 191.123  0.00  0.00    +0.025 HD
ATOM     78  HB3 ALA A   3     155.553 157.431 190.218  0.00  0.00    +0.025 HD
ENDBRANCH  36  75
BRANCH  40  79
ATOM     79  C   UNK A   2     156.068 161.324 187.850  0.00  0.00    +0.005 C 
ATOM     80  H   UNK A   2     156.207 161.359 188.938  0.00  0.00    +0.032 HD
ATOM     81  H   UNK A   2     156.548 160.396 187.509  0.00  0.00    +0.032 HD
BRANCH  79  82
ATOM     82  C   UNK A   2     156.814 162.516 187.203  0.00  0.00    +0.088 C 
BRANCH  82  83
ATOM     83  C   UNK A   2     158.108 161.992 186.560  0.00  0.00    -0.034 C 
ATOM     84  H   UNK A   2     157.972 160.956 186.228  0.00  0.00    +0.026 HD
ATOM     85  H   UNK A   2     158.370 162.572 185.664  0.00  0.00    +0.026 HD
ATOM     86  H   UNK A   2     158.959 162.024 187.251  0.00  0.00    +0.026 HD
ENDBRANCH  82  83
BRANCH  82  87
ATOM     87  C   UNK A   2     157.147 163.645 188.202  0.00  0.00    +0.073 C 
ATOM     88  H   UNK A   2     157.228 163.240 189.218  0.00  0.00    +0.059 HD
ATOM     89  H   UNK A   2     158.116 164.102 187.975  0.00  0.00    +0.059 HD
BRANCH  87  90
ATOM     90  O   UNK A   2     156.148 164.651 188.197  0.00  0.00    -0.392 OA
ATOM     91  H   UNK A   2     155.848 164.753 187.278  0.00  0.00    +0.210 HD
ENDBRANCH  87  90
ENDBRANCH  82  87
BRANCH  82  92
ATOM     92  O   UNK A   2     155.997 163.051 186.152  0.00  0.00    -0.387 OA
ATOM     93  H   UNK A   2     156.013 164.022 186.223  0.00  0.00    +0.210 HD
ENDBRANCH  82  92
ENDBRANCH  79  82
ENDBRANCH  40  79
BRANCH  23  94
ATOM     94  OD  HYP A   6     147.431 164.661 183.287  0.00  0.00    -0.390 OA
ATOM     95  HD  HYP A   6     146.855 164.165 182.674  0.00  0.00    +0.210 HD
ENDBRANCH  23  94
BRANCH  32  96
ATOM     96  CB  THR A   4     149.133 157.399 190.134  0.00  0.00    +0.079 C 
ATOM     97  HB  THR A   4     149.713 156.836 190.874  0.00  0.00    +0.061 HD
BRANCH  96  98
ATOM     98  CG2 THR A   4     149.047 156.551 188.864  0.00  0.00    -0.037 C 
ATOM     99 HG21 THR A   4     148.649 157.125 188.019  0.00  0.00    +0.026 HD
ATOM    100 HG22 THR A   4     150.022 156.143 188.579  0.00  0.00    +0.026 HD
ATOM    101 HG23 THR A   4     148.350 155.718 189.016  0.00  0.00    +0.026 HD
ENDBRANCH  96  98
BRANCH  96 102
ATOM    102  OG1 THR A   4     147.816 157.523 190.682  0.00  0.00    -0.390 OA
ATOM    103  HG1 THR A   4     147.184 157.191 190.012  0.00  0.00    +0.210 HD
ENDBRANCH  96 102
ENDBRANCH  32  96
TORSDOF 12
ENDMDL
MODEL 7
REMARK VINA RESULT:      -5.6      2.539      7.463
REMARK  Name = Phalloidin_conf3
REMARK  12 active torsions:
REMARK  status: ('A' for Active; 'I' for Inactive)
REMARK    1  A    between atoms: CB_1  and  CA_2
REMARK    2  A    between atoms: CG_24  and  OD_30
REMARK    3  A    between atoms: CA_34  and  CB_53
REMARK    4  A    between atoms: CA_38  and  CB_52
REMARK    5  A    between atoms: C_42  and  C_46
REMARK    6  A    between atoms: C_46  and  C_47
REMARK    7  A    between atoms: C_47  and  C_48
REMARK    8  A    between atoms: C_47  and  C_49
REMARK    9  A    between atoms: C_47  and  O_51
REMARK   10  A    between atoms: C_49  and  O_50
REMARK   11  A    between atoms: CB_53  and  CG2_54
REMARK   12  A    between atoms: CB_53  and  OG1_55
REMARK                            x       y       z     vdW  Elec       q    Type
REMARK                         _______ _______ _______ _____ _____    ______ ____
ROOT
ATOM      1  CA  ALA A   7     140.688 170.685 187.610  0.00  0.00    +0.097 C 
ATOM      2  C   ALA A   7     141.846 169.860 186.996  0.00  0.00    +0.234 C 
ATOM      3  O   ALA A   7     141.724 169.258 185.928  0.00  0.00    -0.274 OA
ATOM      4  N   UNK A   1     143.039 169.938 187.675  0.00  0.00    -0.302 N 
ATOM      5  C   UNK A   1     144.286 169.327 187.208  0.00  0.00    +0.103 C 
ATOM      6  C   UNK A   1     145.494 170.246 187.462  0.00  0.00    +0.002 C 
ATOM      7  C   UNK A   1     145.448 171.564 186.741  0.00  0.00    -0.006 A 
ATOM      8  C   UNK A   5     144.835 172.741 187.126  0.00  0.00    +0.078 A 
ATOM      9  N   UNK A   5     145.037 173.681 186.152  0.00  0.00    -0.349 N 
ATOM     10  C   UNK A   5     145.774 173.149 185.122  0.00  0.00    +0.048 A 
ATOM     11  C   UNK A   5     146.207 173.733 183.927  0.00  0.00    -0.038 A 
ATOM     12  C   UNK A   5     146.950 172.938 183.049  0.00  0.00    -0.060 A 
ATOM     13  C   UNK A   5     147.245 171.612 183.360  0.00  0.00    -0.061 A 
ATOM     14  C   UNK A   5     146.805 171.042 184.559  0.00  0.00    -0.052 A 
ATOM     15  C   UNK A   5     146.051 171.824 185.461  0.00  0.00    +0.004 A 
ATOM     16  S   UNK A   5     143.841 173.186 188.465  0.00  0.00    -0.105 S 
ATOM     17  C   UNK A   5     145.011 173.325 189.861  0.00  0.00    +0.027 C 
ATOM     18  C   UNK A   5     144.872 172.293 191.004  0.00  0.00    +0.109 C 
ATOM     19  C   UNK A   5     143.585 171.451 190.963  0.00  0.00    +0.237 C 
ATOM     20  O   UNK A   5     143.619 170.284 190.547  0.00  0.00    -0.274 OA
ATOM     21  N   HYP A   6     142.381 172.017 191.319  0.00  0.00    -0.286 N 
ATOM     22  CD  HYP A   6     142.160 173.316 191.930  0.00  0.00    +0.042 C 
ATOM     23  CG  HYP A   6     140.835 173.179 192.675  0.00  0.00    +0.073 C 
ATOM     24  CB  HYP A   6     140.082 172.128 191.863  0.00  0.00    +0.002 C 
ATOM     25  CA  HYP A   6     141.179 171.174 191.408  0.00  0.00    +0.105 C 
ATOM     26  C   HYP A   6     140.777 170.484 190.090  0.00  0.00    +0.234 C 
ATOM     27  O   HYP A   6     140.218 169.392 190.094  0.00  0.00    -0.274 OA
ATOM     28  N   ALA A   7     141.002 171.210 188.943  0.00  0.00    -0.303 N 
ATOM     29  N   UNK A   5     145.984 171.337 191.010  0.00  0.00    -0.302 N 
ATOM     30  C   THR A   4     147.242 171.678 191.447  0.00  0.00    +0.237 C 
ATOM     31  O   THR A   4     147.489 172.812 191.857  0.00  0.00    -0.274 OA
ATOM     32  CA  THR A   4     148.333 170.620 191.188  0.00  0.00    +0.125 C 
ATOM     33  N   THR A   4     147.821 169.248 191.241  0.00  0.00    -0.300 N 
ATOM     34  C   ALA A   3     148.422 168.240 190.502  0.00  0.00    +0.234 C 
ATOM     35  O   ALA A   3     149.333 168.467 189.709  0.00  0.00    -0.274 OA
ATOM     36  CA  ALA A   3     147.852 166.831 190.755  0.00  0.00    +0.097 C 
ATOM     37  N   ALA A   3     146.529 166.740 190.163  0.00  0.00    -0.303 N 
ATOM     38  C   UNK A   2     145.383 167.015 190.866  0.00  0.00    +0.234 C 
ATOM     39  O   UNK A   2     145.406 167.475 192.013  0.00  0.00    -0.274 OA
ATOM     40  C   UNK A   2     144.063 166.761 190.097  0.00  0.00    +0.102 C 
ATOM     41  N   UNK A   2     143.868 167.841 189.127  0.00  0.00    -0.302 N 
ATOM     42  C   UNK A   1     144.575 168.006 187.954  0.00  0.00    +0.234 C 
ATOM     43  O   UNK A   1     145.490 167.250 187.630  0.00  0.00    -0.274 OA
ATOM     44  HA  ALA A   7     139.834 170.004 187.703  0.00  0.00    +0.059 HD
ATOM     45  H   UNK A   1     143.065 170.463 188.541  0.00  0.00    +0.150 HD
ATOM     46  H   UNK A   1     144.195 169.100 186.138  0.00  0.00    +0.060 HD
ATOM     47  H   UNK A   1     145.607 170.430 188.534  0.00  0.00    +0.034 HD
ATOM     48  H   UNK A   1     146.411 169.725 187.160  0.00  0.00    +0.034 HD
ATOM     49  H   UNK A   5     144.672 174.620 186.177  0.00  0.00    +0.166 HD
ATOM     50  H   UNK A   5     145.985 174.767 183.681  0.00  0.00    +0.064 HD
ATOM     51  H   UNK A   5     147.314 173.362 182.115  0.00  0.00    +0.062 HD
ATOM     52  H   UNK A   5     147.832 171.009 182.666  0.00  0.00    +0.062 HD
ATOM     53  H   UNK A   5     147.066 170.014 184.781  0.00  0.00    +0.062 HD
ATOM     54  H   UNK A   5     144.809 174.315 190.285  0.00  0.00    +0.040 HD
ATOM     55  H   UNK A   5     146.033 173.370 189.476  0.00  0.00    +0.040 HD
ATOM     56  H   UNK A   5     144.923 172.815 191.967  0.00  0.00    +0.060 HD
ATOM     57  HD1 HYP A   6     142.975 173.580 192.609  0.00  0.00    +0.049 HD
ATOM     58  HD2 HYP A   6     142.110 174.078 191.146  0.00  0.00    +0.049 HD
ATOM     59  HG  HYP A   6     140.991 172.818 193.701  0.00  0.00    +0.061 HD
ATOM     60  HB1 HYP A   6     139.316 171.624 192.465  0.00  0.00    +0.031 HD
ATOM     61  HB2 HYP A   6     139.556 172.594 191.020  0.00  0.00    +0.031 HD
ATOM     62  HA  HYP A   6     141.379 170.401 192.160  0.00  0.00    +0.060 HD
ATOM     63  H   ALA A   7     141.510 172.084 189.021  0.00  0.00    +0.149 HD
ATOM     64  H   UNK A   5     145.807 170.384 190.696  0.00  0.00    +0.150 HD
ATOM     65  HA  THR A   4     148.653 170.809 190.152  0.00  0.00    +0.062 HD
ATOM     66  H   THR A   4     147.058 168.988 191.870  0.00  0.00    +0.150 HD
ATOM     67  HA  ALA A   3     147.769 166.698 191.843  0.00  0.00    +0.059 HD
ATOM     68  H   ALA A   3     146.451 166.611 189.147  0.00  0.00    +0.149 HD
ATOM     69  H   UNK A   2     143.251 166.902 190.818  0.00  0.00    +0.060 HD
ATOM     70  H   UNK A   2     143.133 168.513 189.328  0.00  0.00    +0.150 HD
ENDROOT
BRANCH   1  71
ATOM     71  CB  ALA A   7     140.331 171.835 186.671  0.00  0.00    -0.038 C 
ATOM     72  HB1 ALA A   7     141.090 171.956 185.891  0.00  0.00    +0.025 HD
ATOM     73  HB2 ALA A   7     140.262 172.782 187.218  0.00  0.00    +0.025 HD
ATOM     74  HB3 ALA A   7     139.371 171.657 186.172  0.00  0.00    +0.025 HD
ENDBRANCH   1  71
BRANCH  36  75
ATOM     75  CB  ALA A   3     148.764 165.743 190.203  0.00  0.00    -0.038 C 
ATOM     76  HB1 ALA A   3     148.843 165.821 189.113  0.00  0.00    +0.025 HD
ATOM     77  HB2 ALA A   3     149.778 165.815 190.610  0.00  0.00    +0.025 HD
ATOM     78  HB3 ALA A   3     148.368 164.751 190.448  0.00  0.00    +0.025 HD
ENDBRANCH  36  75
BRANCH  40  79
ATOM     79  C   UNK A   2     143.923 165.358 189.478  0.00  0.00    +0.005 C 
ATOM     80  H   UNK A   2     144.558 165.318 188.583  0.00  0.00    +0.032 HD
ATOM     81  H   UNK A   2     144.325 164.607 190.174  0.00  0.00    +0.032 HD
BRANCH  79  82
ATOM     82  C   UNK A   2     142.482 164.939 189.100  0.00  0.00    +0.088 C 
BRANCH  82  83
ATOM     83  C   UNK A   2     142.395 163.405 189.131  0.00  0.00    -0.034 C 
ATOM     84  H   UNK A   2     143.246 162.989 189.683  0.00  0.00    +0.026 HD
ATOM     85  H   UNK A   2     141.491 163.068 189.657  0.00  0.00    +0.026 HD
ATOM     86  H   UNK A   2     142.390 162.968 188.125  0.00  0.00    +0.026 HD
ENDBRANCH  82  83
BRANCH  82  87
ATOM     87  C   UNK A   2     142.036 165.460 187.716  0.00  0.00    +0.073 C 
ATOM     88  H   UNK A   2     142.912 165.648 187.083  0.00  0.00    +0.059 HD
ATOM     89  H   UNK A   2     141.428 164.717 187.190  0.00  0.00    +0.059 HD
BRANCH  87  90
ATOM     90  O   UNK A   2     141.298 166.665 187.832  0.00  0.00    -0.392 OA
ATOM     91  H   UNK A   2     141.941 167.395 187.852  0.00  0.00    +0.210 HD
ENDBRANCH  87  90
ENDBRANCH  82  87
BRANCH  82  92
ATOM     92  O   UNK A   2     141.582 165.441 190.098  0.00  0.00    -0.387 OA
ATOM     93  H   UNK A   2     141.354 164.706 190.694  0.00  0.00    +0.210 HD
ENDBRANCH  82  92
ENDBRANCH  79  82
ENDBRANCH  40  79
BRANCH  23  94
ATOM     94  OD  HYP A   6     140.103 174.391 192.700  0.00  0.00    -0.390 OA
ATOM     95  HD  HYP A   6     140.507 174.989 193.356  0.00  0.00    +0.210 HD
ENDBRANCH  23  94
BRANCH  32  96
ATOM     96  CB  THR A   4     149.565 170.837 192.102  0.00  0.00    +0.079 C 
ATOM     97  HB  THR A   4     149.575 170.056 192.871  0.00  0.00    +0.061 HD
BRANCH  96  98
ATOM     98  CG2 THR A   4     149.581 172.191 192.811  0.00  0.00    -0.037 C 
ATOM     99 HG21 THR A   4     149.571 172.078 193.902  0.00  0.00    +0.026 HD
ATOM    100 HG22 THR A   4     150.455 172.788 192.532  0.00  0.00    +0.026 HD
ATOM    101 HG23 THR A   4     148.676 172.757 192.558  0.00  0.00    +0.026 HD
ENDBRANCH  96  98
BRANCH  96 102
ATOM    102  OG1 THR A   4     150.793 170.691 191.381  0.00  0.00    -0.390 OA
ATOM    103  HG1 THR A   4     150.613 170.910 190.443  0.00  0.00    +0.210 HD
ENDBRANCH  96 102
ENDBRANCH  32  96
TORSDOF 12
ENDMDL
MODEL 8
REMARK VINA RESULT:      -5.6      4.415      9.188
REMARK  Name = Phalloidin_conf3
REMARK  12 active torsions:
REMARK  status: ('A' for Active; 'I' for Inactive)
REMARK    1  A    between atoms: CB_1  and  CA_2
REMARK    2  A    between atoms: CG_24  and  OD_30
REMARK    3  A    between atoms: CA_34  and  CB_53
REMARK    4  A    between atoms: CA_38  and  CB_52
REMARK    5  A    between atoms: C_42  and  C_46
REMARK    6  A    between atoms: C_46  and  C_47
REMARK    7  A    between atoms: C_47  and  C_48
REMARK    8  A    between atoms: C_47  and  C_49
REMARK    9  A    between atoms: C_47  and  O_51
REMARK   10  A    between atoms: C_49  and  O_50
REMARK   11  A    between atoms: CB_53  and  CG2_54
REMARK   12  A    between atoms: CB_53  and  OG1_55
REMARK                            x       y       z     vdW  Elec       q    Type
REMARK                         _______ _______ _______ _____ _____    ______ ____
ROOT
ATOM      1  CA  ALA A   7     151.516 164.485 187.907  0.00  0.00    +0.097 C 
ATOM      2  C   ALA A   7     150.144 164.142 187.274  0.00  0.00    +0.234 C 
ATOM      3  O   ALA A   7     150.051 163.501 186.227  0.00  0.00    -0.274 OA
ATOM      4  N   UNK A   1     149.051 164.516 188.020  0.00  0.00    -0.302 N 
ATOM      5  C   UNK A   1     147.668 164.190 187.660  0.00  0.00    +0.103 C 
ATOM      6  C   UNK A   1     146.839 163.805 188.898  0.00  0.00    +0.002 C 
ATOM      7  C   UNK A   1     147.320 162.578 189.623  0.00  0.00    -0.006 A 
ATOM      8  C   UNK A   5     148.294 162.474 190.597  0.00  0.00    +0.078 A 
ATOM      9  N   UNK A   5     148.412 161.161 190.962  0.00  0.00    -0.349 N 
ATOM     10  C   UNK A   5     147.533 160.386 190.245  0.00  0.00    +0.048 A 
ATOM     11  C   UNK A   5     147.313 159.005 190.277  0.00  0.00    -0.038 A 
ATOM     12  C   UNK A   5     146.340 158.483 189.419  0.00  0.00    -0.060 A 
ATOM     13  C   UNK A   5     145.621 159.315 188.564  0.00  0.00    -0.061 A 
ATOM     14  C   UNK A   5     145.853 160.694 188.542  0.00  0.00    -0.052 A 
ATOM     15  C   UNK A   5     146.831 161.245 189.399  0.00  0.00    +0.004 A 
ATOM     16  S   UNK A   5     149.389 163.599 191.315  0.00  0.00    -0.105 S 
ATOM     17  C   UNK A   5     148.342 164.576 192.450  0.00  0.00    +0.027 C 
ATOM     18  C   UNK A   5     148.135 166.070 192.109  0.00  0.00    +0.109 C 
ATOM     19  C   UNK A   5     149.065 166.619 191.015  0.00  0.00    +0.237 C 
ATOM     20  O   UNK A   5     148.639 166.782 189.861  0.00  0.00    -0.274 OA
ATOM     21  N   HYP A   6     150.391 166.861 191.296  0.00  0.00    -0.286 N 
ATOM     22  CD  HYP A   6     151.038 166.837 192.596  0.00  0.00    +0.042 C 
ATOM     23  CG  HYP A   6     152.246 167.759 192.450  0.00  0.00    +0.073 C 
ATOM     24  CB  HYP A   6     152.598 167.646 190.969  0.00  0.00    +0.002 C 
ATOM     25  CA  HYP A   6     151.242 167.511 190.287  0.00  0.00    +0.105 C 
ATOM     26  C   HYP A   6     151.381 166.735 188.965  0.00  0.00    +0.234 C 
ATOM     27  O   HYP A   6     151.542 167.325 187.900  0.00  0.00    -0.274 OA
ATOM     28  N   ALA A   7     151.405 165.364 189.075  0.00  0.00    -0.303 N 
ATOM     29  N   UNK A   5     146.767 166.338 191.654  0.00  0.00    -0.302 N 
ATOM     30  C   THR A   4     145.698 166.368 192.519  0.00  0.00    +0.237 C 
ATOM     31  O   THR A   4     145.849 166.171 193.725  0.00  0.00    -0.274 OA
ATOM     32  CA  THR A   4     144.314 166.454 191.845  0.00  0.00    +0.125 C 
ATOM     33  N   THR A   4     144.338 167.206 190.588  0.00  0.00    -0.300 N 
ATOM     34  C   ALA A   3     143.429 166.925 189.579  0.00  0.00    +0.234 C 
ATOM     35  O   ALA A   3     142.641 165.985 189.654  0.00  0.00    -0.274 OA
ATOM     36  CA  ALA A   3     143.496 167.879 188.371  0.00  0.00    +0.097 C 
ATOM     37  N   ALA A   3     144.707 167.609 187.619  0.00  0.00    -0.303 N 
ATOM     38  C   UNK A   2     145.885 168.278 187.844  0.00  0.00    +0.234 C 
ATOM     39  O   UNK A   2     146.024 169.070 188.784  0.00  0.00    -0.274 OA
ATOM     40  C   UNK A   2     147.038 167.927 186.872  0.00  0.00    +0.102 C 
ATOM     41  N   UNK A   2     147.577 166.615 187.237  0.00  0.00    -0.302 N 
ATOM     42  C   UNK A   1     146.958 165.402 187.017  0.00  0.00    +0.234 C 
ATOM     43  O   UNK A   1     145.841 165.320 186.509  0.00  0.00    -0.274 OA
ATOM     44  HA  ALA A   7     152.093 165.010 187.137  0.00  0.00    +0.059 HD
ATOM     45  H   UNK A   1     149.208 165.030 188.877  0.00  0.00    +0.150 HD
ATOM     46  H   UNK A   1     147.671 163.371 186.930  0.00  0.00    +0.060 HD
ATOM     47  H   UNK A   1     146.801 164.642 189.600  0.00  0.00    +0.034 HD
ATOM     48  H   UNK A   1     145.799 163.635 188.595  0.00  0.00    +0.034 HD
ATOM     49  H   UNK A   5     149.071 160.811 191.640  0.00  0.00    +0.166 HD
ATOM     50  H   UNK A   5     147.867 158.352 190.945  0.00  0.00    +0.064 HD
ATOM     51  H   UNK A   5     146.134 157.415 189.426  0.00  0.00    +0.062 HD
ATOM     52  H   UNK A   5     144.862 158.890 187.906  0.00  0.00    +0.062 HD
ATOM     53  H   UNK A   5     145.263 161.317 187.879  0.00  0.00    +0.062 HD
ATOM     54  H   UNK A   5     148.867 164.526 193.411  0.00  0.00    +0.040 HD
ATOM     55  H   UNK A   5     147.391 164.058 192.605  0.00  0.00    +0.040 HD
ATOM     56  H   UNK A   5     148.268 166.667 193.020  0.00  0.00    +0.060 HD
ATOM     57  HD1 HYP A   6     150.364 167.184 193.382  0.00  0.00    +0.049 HD
ATOM     58  HD2 HYP A   6     151.336 165.811 192.831  0.00  0.00    +0.049 HD
ATOM     59  HG  HYP A   6     151.985 168.798 192.693  0.00  0.00    +0.061 HD
ATOM     60  HB1 HYP A   6     153.155 168.523 190.616  0.00  0.00    +0.031 HD
ATOM     61  HB2 HYP A   6     153.244 166.777 190.790  0.00  0.00    +0.031 HD
ATOM     62  HA  HYP A   6     150.799 168.492 190.073  0.00  0.00    +0.060 HD
ATOM     63  H   ALA A   7     151.220 164.954 189.984  0.00  0.00    +0.149 HD
ATOM     64  H   UNK A   5     146.612 166.525 190.665  0.00  0.00    +0.150 HD
ATOM     65  HA  THR A   4     144.069 165.410 191.596  0.00  0.00    +0.062 HD
ATOM     66  H   THR A   4     144.974 167.996 190.452  0.00  0.00    +0.150 HD
ATOM     67  HA  ALA A   3     143.536 168.906 188.762  0.00  0.00    +0.059 HD
ATOM     68  H   ALA A   3     144.731 166.791 186.999  0.00  0.00    +0.149 HD
ATOM     69  H   UNK A   2     147.854 168.621 187.096  0.00  0.00    +0.060 HD
ATOM     70  H   UNK A   2     148.495 166.599 187.670  0.00  0.00    +0.150 HD
ENDROOT
BRANCH   1  71
ATOM     71  CB  ALA A   7     152.231 163.193 188.295  0.00  0.00    -0.038 C 
ATOM     72  HB1 ALA A   7     152.267 163.074 189.383  0.00  0.00    +0.025 HD
ATOM     73  HB2 ALA A   7     153.264 163.190 187.927  0.00  0.00    +0.025 HD
ATOM     74  HB3 ALA A   7     151.719 162.316 187.885  0.00  0.00    +0.025 HD
ENDBRANCH   1  71
BRANCH  36  75
ATOM     75  CB  ALA A   3     142.268 167.751 187.478  0.00  0.00    -0.038 C 
ATOM     76  HB1 ALA A   3     141.422 168.299 187.905  0.00  0.00    +0.025 HD
ATOM     77  HB2 ALA A   3     142.447 168.155 186.477  0.00  0.00    +0.025 HD
ATOM     78  HB3 ALA A   3     141.978 166.699 187.374  0.00  0.00    +0.025 HD
ENDBRANCH  36  75
BRANCH  40  79
ATOM     79  C   UNK A   2     146.695 168.047 185.376  0.00  0.00    +0.005 C 
ATOM     80  H   UNK A   2     147.579 167.743 184.801  0.00  0.00    +0.032 HD
ATOM     81  H   UNK A   2     145.901 167.331 185.122  0.00  0.00    +0.032 HD
BRANCH  79  82
ATOM     82  C   UNK A   2     146.242 169.452 184.909  0.00  0.00    +0.088 C 
BRANCH  82  83
ATOM     83  C   UNK A   2     146.483 169.564 183.395  0.00  0.00    -0.034 C 
ATOM     84  H   UNK A   2     145.806 170.308 182.959  0.00  0.00    +0.026 HD
ATOM     85  H   UNK A   2     147.504 169.910 183.179  0.00  0.00    +0.026 HD
ATOM     86  H   UNK A   2     146.328 168.610 182.877  0.00  0.00    +0.026 HD
ENDBRANCH  82  83
BRANCH  82  87
ATOM     87  C   UNK A   2     146.966 170.603 185.640  0.00  0.00    +0.073 C 
ATOM     88  H   UNK A   2     146.260 171.154 186.272  0.00  0.00    +0.059 HD
ATOM     89  H   UNK A   2     147.745 170.221 186.308  0.00  0.00    +0.059 HD
BRANCH  87  90
ATOM     90  O   UNK A   2     147.550 171.512 184.721  0.00  0.00    -0.392 OA
ATOM     91  H   UNK A   2     146.822 171.993 184.291  0.00  0.00    +0.210 HD
ENDBRANCH  87  90
ENDBRANCH  82  87
BRANCH  82  92
ATOM     92  O   UNK A   2     144.830 169.575 185.130  0.00  0.00    -0.387 OA
ATOM     93  H   UNK A   2     144.371 169.183 184.367  0.00  0.00    +0.210 HD
ENDBRANCH  82  92
ENDBRANCH  79  82
ENDBRANCH  40  79
BRANCH  23  94
ATOM     94  OD  HYP A   6     153.342 167.342 193.243  0.00  0.00    -0.390 OA
ATOM     95  HD  HYP A   6     153.182 166.427 193.544  0.00  0.00    +0.210 HD
ENDBRANCH  23  94
BRANCH  32  96
ATOM     96  CB  THR A   4     143.232 166.963 192.830  0.00  0.00    +0.079 C 
ATOM     97  HB  THR A   4     143.598 166.830 193.855  0.00  0.00    +0.061 HD
BRANCH  96  98
ATOM     98  CG2 THR A   4     141.894 166.233 192.713  0.00  0.00    -0.037 C 
ATOM     99 HG21 THR A   4     141.065 166.840 193.097  0.00  0.00    +0.026 HD
ATOM    100 HG22 THR A   4     141.670 165.955 191.678  0.00  0.00    +0.026 HD
ATOM    101 HG23 THR A   4     141.908 165.323 193.324  0.00  0.00    +0.026 HD
ENDBRANCH  96  98
BRANCH  96 102
ATOM    102  OG1 THR A   4     142.995 168.367 192.679  0.00  0.00    -0.390 OA
ATOM    103  HG1 THR A   4     143.133 168.590 191.735  0.00  0.00    +0.210 HD
ENDBRANCH  96 102
ENDBRANCH  32  96
TORSDOF 12
ENDMDL
MODEL 9
REMARK VINA RESULT:      -5.5      8.408     13.216
REMARK  Name = Phalloidin_conf3
REMARK  12 active torsions:
REMARK  status: ('A' for Active; 'I' for Inactive)
REMARK    1  A    between atoms: CB_1  and  CA_2
REMARK    2  A    between atoms: CG_24  and  OD_30
REMARK    3  A    between atoms: CA_34  and  CB_53
REMARK    4  A    between atoms: CA_38  and  CB_52
REMARK    5  A    between atoms: C_42  and  C_46
REMARK    6  A    between atoms: C_46  and  C_47
REMARK    7  A    between atoms: C_47  and  C_48
REMARK    8  A    between atoms: C_47  and  C_49
REMARK    9  A    between atoms: C_47  and  O_51
REMARK   10  A    between atoms: C_49  and  O_50
REMARK   11  A    between atoms: CB_53  and  CG2_54
REMARK   12  A    between atoms: CB_53  and  OG1_55
REMARK                            x       y       z     vdW  Elec       q    Type
REMARK                         _______ _______ _______ _____ _____    ______ ____
ROOT
ATOM      1  CA  ALA A   7     155.148 166.116 186.107  0.00  0.00    +0.097 C 
ATOM      2  C   ALA A   7     155.119 165.562 187.553  0.00  0.00    +0.234 C 
ATOM      3  O   ALA A   7     155.943 165.906 188.401  0.00  0.00    -0.274 OA
ATOM      4  N   UNK A   1     154.050 164.746 187.841  0.00  0.00    -0.302 N 
ATOM      5  C   UNK A   1     153.771 164.207 189.174  0.00  0.00    +0.103 C 
ATOM      6  C   UNK A   1     152.264 164.225 189.486  0.00  0.00    +0.002 C 
ATOM      7  C   UNK A   1     151.641 165.594 189.515  0.00  0.00    -0.006 A 
ATOM      8  C   UNK A   5     151.142 166.341 188.465  0.00  0.00    +0.078 A 
ATOM      9  N   UNK A   5     150.688 167.535 188.954  0.00  0.00    -0.349 N 
ATOM     10  C   UNK A   5     150.877 167.598 190.313  0.00  0.00    +0.048 A 
ATOM     11  C   UNK A   5     150.576 168.620 191.219  0.00  0.00    -0.038 A 
ATOM     12  C   UNK A   5     150.888 168.404 192.565  0.00  0.00    -0.060 A 
ATOM     13  C   UNK A   5     151.479 167.213 192.980  0.00  0.00    -0.061 A 
ATOM     14  C   UNK A   5     151.774 166.201 192.062  0.00  0.00    -0.052 A 
ATOM     15  C   UNK A   5     151.470 166.395 190.697  0.00  0.00    +0.004 A 
ATOM     16  S   UNK A   5     151.086 166.108 186.756  0.00  0.00    -0.105 S 
ATOM     17  C   UNK A   5     149.764 164.870 186.519  0.00  0.00    +0.027 C 
ATOM     18  C   UNK A   5     150.184 163.481 185.987  0.00  0.00    +0.109 C 
ATOM     19  C   UNK A   5     151.624 163.401 185.452  0.00  0.00    +0.237 C 
ATOM     20  O   UNK A   5     152.516 162.885 186.143  0.00  0.00    -0.274 OA
ATOM     21  N   HYP A   6     151.941 163.969 184.238  0.00  0.00    -0.286 N 
ATOM     22  CD  HYP A   6     151.025 164.510 183.250  0.00  0.00    +0.042 C 
ATOM     23  CG  HYP A   6     151.769 164.398 181.922  0.00  0.00    +0.073 C 
ATOM     24  CB  HYP A   6     153.236 164.496 182.331  0.00  0.00    +0.002 C 
ATOM     25  CA  HYP A   6     153.284 163.773 183.671  0.00  0.00    +0.105 C 
ATOM     26  C   HYP A   6     154.434 164.321 184.536  0.00  0.00    +0.234 C 
ATOM     27  O   HYP A   6     155.540 163.789 184.528  0.00  0.00    -0.274 OA
ATOM     28  N   ALA A   7     154.162 165.479 185.228  0.00  0.00    -0.303 N 
ATOM     29  N   UNK A   5     150.075 162.448 187.021  0.00  0.00    -0.302 N 
ATOM     30  C   THR A   4     148.863 161.944 187.431  0.00  0.00    +0.237 C 
ATOM     31  O   THR A   4     147.808 162.343 186.939  0.00  0.00    -0.274 OA
ATOM     32  CA  THR A   4     148.922 161.024 188.667  0.00  0.00    +0.125 C 
ATOM     33  N   THR A   4     150.168 160.256 188.749  0.00  0.00    -0.300 N 
ATOM     34  C   ALA A   3     150.674 159.859 189.976  0.00  0.00    +0.234 C 
ATOM     35  O   ALA A   3     150.163 160.210 191.038  0.00  0.00    -0.274 OA
ATOM     36  CA  ALA A   3     151.920 158.955 189.895  0.00  0.00    +0.097 C 
ATOM     37  N   ALA A   3     153.056 159.750 189.468  0.00  0.00    -0.303 N 
ATOM     38  C   UNK A   2     153.418 159.876 188.149  0.00  0.00    +0.234 C 
ATOM     39  O   UNK A   2     152.730 159.420 187.229  0.00  0.00    -0.274 OA
ATOM     40  C   UNK A   2     154.719 160.677 187.898  0.00  0.00    +0.102 C 
ATOM     41  N   UNK A   2     154.435 162.103 188.079  0.00  0.00    -0.302 N 
ATOM     42  C   UNK A   1     154.224 162.734 189.287  0.00  0.00    +0.234 C 
ATOM     43  O   UNK A   1     154.218 162.121 190.354  0.00  0.00    -0.274 OA
ATOM     44  HA  ALA A   7     156.149 165.903 185.711  0.00  0.00    +0.059 HD
ATOM     45  H   UNK A   1     153.406 164.518 187.093  0.00  0.00    +0.150 HD
ATOM     46  H   UNK A   1     154.324 164.791 189.920  0.00  0.00    +0.060 HD
ATOM     47  H   UNK A   1     151.723 163.603 188.766  0.00  0.00    +0.034 HD
ATOM     48  H   UNK A   1     152.093 163.753 190.461  0.00  0.00    +0.034 HD
ATOM     49  H   UNK A   5     150.295 168.273 188.389  0.00  0.00    +0.166 HD
ATOM     50  H   UNK A   5     150.111 169.549 190.903  0.00  0.00    +0.064 HD
ATOM     51  H   UNK A   5     150.657 169.172 193.301  0.00  0.00    +0.062 HD
ATOM     52  H   UNK A   5     151.710 167.061 194.035  0.00  0.00    +0.062 HD
ATOM     53  H   UNK A   5     152.217 165.278 192.418  0.00  0.00    +0.062 HD
ATOM     54  H   UNK A   5     149.101 165.323 185.772  0.00  0.00    +0.040 HD
ATOM     55  H   UNK A   5     149.169 164.793 187.433  0.00  0.00    +0.040 HD
ATOM     56  H   UNK A   5     149.494 163.178 185.190  0.00  0.00    +0.060 HD
ATOM     57  HD1 HYP A   6     150.085 163.953 183.230  0.00  0.00    +0.049 HD
ATOM     58  HD2 HYP A   6     150.798 165.551 183.502  0.00  0.00    +0.049 HD
ATOM     59  HG  HYP A   6     151.579 163.428 181.441  0.00  0.00    +0.061 HD
ATOM     60  HB1 HYP A   6     153.897 164.035 181.586  0.00  0.00    +0.031 HD
ATOM     61  HB2 HYP A   6     153.546 165.546 182.411  0.00  0.00    +0.031 HD
ATOM     62  HA  HYP A   6     153.427 162.693 183.542  0.00  0.00    +0.060 HD
ATOM     63  H   ALA A   7     153.212 165.831 185.218  0.00  0.00    +0.149 HD
ATOM     64  H   UNK A   5     150.932 162.082 187.434  0.00  0.00    +0.150 HD
ATOM     65  HA  THR A   4     148.911 161.718 189.522  0.00  0.00    +0.062 HD
ATOM     66  H   THR A   4     150.653 159.939 187.906  0.00  0.00    +0.150 HD
ATOM     67  HA  ALA A   3     151.717 158.180 189.141  0.00  0.00    +0.059 HD
ATOM     68  H   ALA A   3     153.518 160.359 190.153  0.00  0.00    +0.149 HD
ATOM     69  H   UNK A   2     154.940 160.584 186.830  0.00  0.00    +0.060 HD
ATOM     70  H   UNK A   2     154.415 162.678 187.241  0.00  0.00    +0.150 HD
ENDROOT
BRANCH   1  71
ATOM     71  CB  ALA A   7     154.917 167.625 186.138  0.00  0.00    -0.038 C 
ATOM     72  HB1 ALA A   7     154.205 167.899 186.924  0.00  0.00    +0.025 HD
ATOM     73  HB2 ALA A   7     154.512 167.980 185.183  0.00  0.00    +0.025 HD
ATOM     74  HB3 ALA A   7     155.850 168.166 186.336  0.00  0.00    +0.025 HD
ENDBRANCH   1  71
BRANCH  36  75
ATOM     75  CB  ALA A   3     152.211 158.271 191.224  0.00  0.00    -0.038 C 
ATOM     76  HB1 ALA A   3     151.302 158.203 191.831  0.00  0.00    +0.025 HD
ATOM     77  HB2 ALA A   3     152.588 157.252 191.085  0.00  0.00    +0.025 HD
ATOM     78  HB3 ALA A   3     152.960 158.836 191.791  0.00  0.00    +0.025 HD
ENDBRANCH  36  75
BRANCH  40  79
ATOM     79  C   UNK A   2     155.949 160.199 188.691  0.00  0.00    +0.005 C 
ATOM     80  H   UNK A   2     155.734 160.330 189.760  0.00  0.00    +0.032 HD
ATOM     81  H   UNK A   2     156.090 159.120 188.535  0.00  0.00    +0.032 HD
BRANCH  79  82
ATOM     82  C   UNK A   2     157.280 160.912 188.348  0.00  0.00    +0.088 C 
BRANCH  82  83
ATOM     83  C   UNK A   2     158.320 159.846 187.968  0.00  0.00    -0.034 C 
ATOM     84  H   UNK A   2     158.049 159.375 187.016  0.00  0.00    +0.026 HD
ATOM     85  H   UNK A   2     159.313 160.295 187.820  0.00  0.00    +0.026 HD
ATOM     86  H   UNK A   2     158.409 159.062 188.729  0.00  0.00    +0.026 HD
ENDBRANCH  82  83
BRANCH  82  87
ATOM     87  C   UNK A   2     157.821 161.784 189.500  0.00  0.00    +0.073 C 
ATOM     88  H   UNK A   2     158.882 161.566 189.674  0.00  0.00    +0.059 HD
ATOM     89  H   UNK A   2     157.762 162.849 189.252  0.00  0.00    +0.059 HD
BRANCH  87  90
ATOM     90  O   UNK A   2     157.111 161.548 190.704  0.00  0.00    -0.392 OA
ATOM     91  H   UNK A   2     156.187 161.367 190.462  0.00  0.00    +0.210 HD
ENDBRANCH  87  90
ENDBRANCH  82  87
BRANCH  82  92
ATOM     92  O   UNK A   2     157.071 161.740 187.194  0.00  0.00    -0.387 OA
ATOM     93  H   UNK A   2     157.315 162.651 187.431  0.00  0.00    +0.210 HD
ENDBRANCH  82  92
ENDBRANCH  79  82
ENDBRANCH  40  79
BRANCH  23  94
ATOM     94  OD  HYP A   6     151.441 165.447 181.029  0.00  0.00    -0.390 OA
ATOM     95  HD  HYP A   6     152.107 166.155 181.118  0.00  0.00    +0.210 HD
ENDBRANCH  23  94
BRANCH  32  96
ATOM     96  CB  THR A   4     147.659 160.134 188.774  0.00  0.00    +0.079 C 
ATOM     97  HB  THR A   4     147.685 159.599 189.731  0.00  0.00    +0.061 HD
BRANCH  96  98
ATOM     98  CG2 THR A   4     147.538 159.092 187.662  0.00  0.00    -0.037 C 
ATOM     99 HG21 THR A   4     148.396 159.124 186.980  0.00  0.00    +0.026 HD
ATOM    100 HG22 THR A   4     147.448 158.077 188.061  0.00  0.00    +0.026 HD
ATOM    101 HG23 THR A   4     146.656 159.304 187.045  0.00  0.00    +0.026 HD
ENDBRANCH  96  98
BRANCH  96 102
ATOM    102  OG1 THR A   4     146.460 160.914 188.794  0.00  0.00    -0.390 OA
ATOM    103  HG1 THR A   4     146.530 161.546 189.540  0.00  0.00    +0.210 HD
ENDBRANCH  96 102
ENDBRANCH  32  96
TORSDOF 12
ENDMDL
MODEL 10
REMARK VINA RESULT:      -5.5      5.746      9.080
REMARK  Name = Phalloidin_conf3
REMARK  12 active torsions:
REMARK  status: ('A' for Active; 'I' for Inactive)
REMARK    1  A    between atoms: CB_1  and  CA_2
REMARK    2  A    between atoms: CG_24  and  OD_30
REMARK    3  A    between atoms: CA_34  and  CB_53
REMARK    4  A    between atoms: CA_38  and  CB_52
REMARK    5  A    between atoms: C_42  and  C_46
REMARK    6  A    between atoms: C_46  and  C_47
REMARK    7  A    between atoms: C_47  and  C_48
REMARK    8  A    between atoms: C_47  and  C_49
REMARK    9  A    between atoms: C_47  and  O_51
REMARK   10  A    between atoms: C_49  and  O_50
REMARK   11  A    between atoms: CB_53  and  CG2_54
REMARK   12  A    between atoms: CB_53  and  OG1_55
REMARK                            x       y       z     vdW  Elec       q    Type
REMARK                         _______ _______ _______ _____ _____    ______ ____
ROOT
ATOM      1  CA  ALA A   7     150.861 161.000 190.477  0.00  0.00    +0.097 C 
ATOM      2  C   ALA A   7     151.368 162.461 190.397  0.00  0.00    +0.234 C 
ATOM      3  O   ALA A   7     152.513 162.774 190.724  0.00  0.00    -0.274 OA
ATOM      4  N   UNK A   1     150.481 163.353 189.840  0.00  0.00    -0.302 N 
ATOM      5  C   UNK A   1     150.799 164.758 189.570  0.00  0.00    +0.103 C 
ATOM      6  C   UNK A   1     150.207 165.222 188.227  0.00  0.00    +0.002 C 
ATOM      7  C   UNK A   1     150.734 164.495 187.020  0.00  0.00    -0.006 A 
ATOM      8  C   UNK A   5     150.305 163.303 186.471  0.00  0.00    +0.078 A 
ATOM      9  N   UNK A   5     151.086 163.012 185.386  0.00  0.00    -0.349 N 
ATOM     10  C   UNK A   5     152.032 163.991 185.203  0.00  0.00    +0.048 A 
ATOM     11  C   UNK A   5     153.037 164.105 184.237  0.00  0.00    -0.038 A 
ATOM     12  C   UNK A   5     153.870 165.227 184.299  0.00  0.00    -0.060 A 
ATOM     13  C   UNK A   5     153.699 166.191 185.290  0.00  0.00    -0.061 A 
ATOM     14  C   UNK A   5     152.690 166.062 186.249  0.00  0.00    -0.052 A 
ATOM     15  C   UNK A   5     151.836 164.938 186.209  0.00  0.00    +0.004 A 
ATOM     16  S   UNK A   5     149.116 162.138 186.929  0.00  0.00    -0.105 S 
ATOM     17  C   UNK A   5     147.528 162.926 186.489  0.00  0.00    +0.027 C 
ATOM     18  C   UNK A   5     146.584 163.309 187.652  0.00  0.00    +0.109 C 
ATOM     19  C   UNK A   5     146.971 162.722 189.021  0.00  0.00    +0.237 C 
ATOM     20  O   UNK A   5     147.533 163.434 189.865  0.00  0.00    -0.274 OA
ATOM     21  N   HYP A   6     146.760 161.387 189.281  0.00  0.00    -0.286 N 
ATOM     22  CD  HYP A   6     146.023 160.433 188.471  0.00  0.00    +0.042 C 
ATOM     23  CG  HYP A   6     145.554 159.363 189.453  0.00  0.00    +0.073 C 
ATOM     24  CB  HYP A   6     146.625 159.389 190.540  0.00  0.00    +0.002 C 
ATOM     25  CA  HYP A   6     147.006 160.861 190.633  0.00  0.00    +0.105 C 
ATOM     26  C   HYP A   6     148.457 161.010 191.127  0.00  0.00    +0.234 C 
ATOM     27  O   HYP A   6     148.706 161.160 192.320  0.00  0.00    -0.274 OA
ATOM     28  N   ALA A   7     149.433 160.870 190.167  0.00  0.00    -0.303 N 
ATOM     29  N   UNK A   5     146.512 164.762 187.837  0.00  0.00    -0.302 N 
ATOM     30  C   THR A   4     145.814 165.578 186.978  0.00  0.00    +0.237 C 
ATOM     31  O   THR A   4     145.213 165.116 186.009  0.00  0.00    -0.274 OA
ATOM     32  CA  THR A   4     146.019 167.089 187.201  0.00  0.00    +0.125 C 
ATOM     33  N   THR A   4     146.251 167.432 188.607  0.00  0.00    -0.300 N 
ATOM     34  C   ALA A   3     147.004 168.545 188.948  0.00  0.00    +0.234 C 
ATOM     35  O   ALA A   3     147.582 169.226 188.104  0.00  0.00    -0.274 OA
ATOM     36  CA  ALA A   3     147.056 168.847 190.458  0.00  0.00    +0.097 C 
ATOM     37  N   ALA A   3     147.882 167.849 191.114  0.00  0.00    -0.303 N 
ATOM     38  C   UNK A   2     147.363 166.699 191.656  0.00  0.00    +0.234 C 
ATOM     39  O   UNK A   2     146.177 166.379 191.515  0.00  0.00    -0.274 OA
ATOM     40  C   UNK A   2     148.383 165.808 192.406  0.00  0.00    +0.102 C 
ATOM     41  N   UNK A   2     149.212 165.110 191.420  0.00  0.00    -0.302 N 
ATOM     42  C   UNK A   1     150.205 165.684 190.654  0.00  0.00    +0.234 C 
ATOM     43  O   UNK A   1     150.463 166.886 190.710  0.00  0.00    -0.274 OA
ATOM     44  HA  ALA A   7     151.018 160.670 191.511  0.00  0.00    +0.059 HD
ATOM     45  H   UNK A   1     149.560 163.019 189.584  0.00  0.00    +0.150 HD
ATOM     46  H   UNK A   1     151.889 164.886 189.574  0.00  0.00    +0.060 HD
ATOM     47  H   UNK A   1     149.118 165.136 188.247  0.00  0.00    +0.034 HD
ATOM     48  H   UNK A   1     150.410 166.291 188.095  0.00  0.00    +0.034 HD
ATOM     49  H   UNK A   5     150.995 162.182 184.820  0.00  0.00    +0.166 HD
ATOM     50  H   UNK A   5     153.172 163.360 183.460  0.00  0.00    +0.064 HD
ATOM     51  H   UNK A   5     154.655 165.355 183.556  0.00  0.00    +0.062 HD
ATOM     52  H   UNK A   5     154.355 167.062 185.318  0.00  0.00    +0.062 HD
ATOM     53  H   UNK A   5     152.570 166.839 186.996  0.00  0.00    +0.062 HD
ATOM     54  H   UNK A   5     147.013 162.174 185.880  0.00  0.00    +0.040 HD
ATOM     55  H   UNK A   5     147.714 163.771 185.821  0.00  0.00    +0.040 HD
ATOM     56  H   UNK A   5     145.564 162.990 187.406  0.00  0.00    +0.060 HD
ATOM     57  HD1 HYP A   6     145.180 160.908 187.965  0.00  0.00    +0.049 HD
ATOM     58  HD2 HYP A   6     146.690 160.020 187.707  0.00  0.00    +0.049 HD
ATOM     59  HG  HYP A   6     144.577 159.621 189.885  0.00  0.00    +0.061 HD
ATOM     60  HB1 HYP A   6     146.246 158.997 191.492  0.00  0.00    +0.031 HD
ATOM     61  HB2 HYP A   6     147.475 158.753 190.260  0.00  0.00    +0.031 HD
ATOM     62  HA  HYP A   6     146.345 161.407 191.318  0.00  0.00    +0.060 HD
ATOM     63  H   ALA A   7     149.145 160.793 189.199  0.00  0.00    +0.149 HD
ATOM     64  H   UNK A   5     146.983 165.172 188.642  0.00  0.00    +0.150 HD
ATOM     65  HA  THR A   4     146.945 167.321 186.653  0.00  0.00    +0.062 HD
ATOM     66  H   THR A   4     145.810 166.903 189.364  0.00  0.00    +0.150 HD
ATOM     67  HA  ALA A   3     146.029 168.777 190.846  0.00  0.00    +0.059 HD
ATOM     68  H   ALA A   3     148.902 167.929 191.043  0.00  0.00    +0.149 HD
ATOM     69  H   UNK A   2     147.806 165.008 192.881  0.00  0.00    +0.060 HD
ATOM     70  H   UNK A   2     149.054 164.113 191.308  0.00  0.00    +0.150 HD
ENDROOT
BRANCH   1  71
ATOM     71  CB  ALA A   7     151.679 160.127 189.528  0.00  0.00    -0.038 C 
ATOM     72  HB1 ALA A   7     152.666 160.563 189.345  0.00  0.00    +0.025 HD
ATOM     73  HB2 ALA A   7     151.176 160.022 188.559  0.00  0.00    +0.025 HD
ATOM     74  HB3 ALA A   7     151.833 159.124 189.943  0.00  0.00    +0.025 HD
ENDBRANCH   1  71
BRANCH  36  75
ATOM     75  CB  ALA A   3     147.582 170.249 190.739  0.00  0.00    -0.038 C 
ATOM     76  HB1 ALA A   3     148.408 170.494 190.062  0.00  0.00    +0.025 HD
ATOM     77  HB2 ALA A   3     146.808 171.011 190.599  0.00  0.00    +0.025 HD
ATOM     78  HB3 ALA A   3     147.949 170.322 191.769  0.00  0.00    +0.025 HD
ENDBRANCH  36  75
BRANCH  40  79
ATOM     79  C   UNK A   2     149.207 166.523 193.492  0.00  0.00    +0.005 C 
ATOM     80  H   UNK A   2     149.853 167.259 192.997  0.00  0.00    +0.032 HD
ATOM     81  H   UNK A   2     148.534 167.095 194.147  0.00  0.00    +0.032 HD
BRANCH  79  82
ATOM     82  C   UNK A   2     150.074 165.601 194.383  0.00  0.00    +0.088 C 
BRANCH  82  83
ATOM     83  C   UNK A   2     149.620 165.764 195.843  0.00  0.00    -0.034 C 
ATOM     84  H   UNK A   2     150.456 166.107 196.463  0.00  0.00    +0.026 HD
ATOM     85  H   UNK A   2     148.834 166.527 195.931  0.00  0.00    +0.026 HD
ATOM     86  H   UNK A   2     149.237 164.828 196.266  0.00  0.00    +0.026 HD
ENDBRANCH  82  83
BRANCH  82  87
ATOM     87  C   UNK A   2     151.587 165.889 194.272  0.00  0.00    +0.073 C 
ATOM     88  H   UNK A   2     151.991 166.173 195.251  0.00  0.00    +0.059 HD
ATOM     89  H   UNK A   2     152.138 164.997 193.958  0.00  0.00    +0.059 HD
BRANCH  87  90
ATOM     90  O   UNK A   2     151.846 166.941 193.357  0.00  0.00    -0.392 OA
ATOM     91  H   UNK A   2     152.661 167.382 193.650  0.00  0.00    +0.210 HD
ENDBRANCH  87  90
ENDBRANCH  82  87
BRANCH  82  92
ATOM     92  O   UNK A   2     149.831 164.238 194.006  0.00  0.00    -0.387 OA
ATOM     93  H   UNK A   2     148.911 164.172 193.694  0.00  0.00    +0.210 HD
ENDBRANCH  82  92
ENDBRANCH  79  82
ENDBRANCH  40  79
BRANCH  23  94
ATOM     94  OD  HYP A   6     145.491 158.078 188.862  0.00  0.00    -0.390 OA
ATOM     95  HD  HYP A   6     144.759 158.064 188.217  0.00  0.00    +0.210 HD
ENDBRANCH  23  94
BRANCH  32  96
ATOM     96  CB  THR A   4     144.879 167.919 186.561  0.00  0.00    +0.079 C 
ATOM     97  HB  THR A   4     145.135 168.983 186.629  0.00  0.00    +0.061 HD
BRANCH  96  98
ATOM     98  CG2 THR A   4     143.518 167.723 187.229  0.00  0.00    -0.037 C 
ATOM     99 HG21 THR A   4     143.342 168.464 188.017  0.00  0.00    +0.026 HD
ATOM    100 HG22 THR A   4     142.697 167.783 186.507  0.00  0.00    +0.026 HD
ATOM    101 HG23 THR A   4     143.480 166.744 187.722  0.00  0.00    +0.026 HD
ENDBRANCH  96  98
BRANCH  96 102
ATOM    102  OG1 THR A   4     144.740 167.639 185.164  0.00  0.00    -0.390 OA
ATOM    103  HG1 THR A   4     145.197 168.353 184.673  0.00  0.00    +0.210 HD
ENDBRANCH  96 102
ENDBRANCH  32  96
TORSDOF 12
ENDMDL
