MODEL 1
REMARK VINA RESULT:      -5.2      0.000      0.000
REMARK  Name = Reidispongiolide A_conf2
REMARK  33 active torsions:
REMARK  status: ('A' for Active; 'I' for Inactive)
REMARK    1  A    between atoms: C_1  and  C_2
REMARK    2  A    between atoms: C_5  and  O_67
REMARK    3  A    between atoms: C_7  and  O_65
REMARK    4  A    between atoms: C_8  and  C_64
REMARK    5  A    between atoms: C_17  and  O_62
REMARK    6  A    between atoms: C_19  and  C_61
REMARK    7  A    between atoms: C_26  and  C_38
REMARK    8  A    between atoms: C_27  and  C_37
REMARK    9  A    between atoms: C_30  and  O_35
REMARK   10  A    between atoms: C_32  and  O_33
REMARK   11  A    between atoms: O_33  and  C_34
REMARK   12  A    between atoms: O_35  and  C_36
REMARK   13  A    between atoms: C_38  and  C_39
REMARK   14  A    between atoms: C_38  and  C_40
REMARK   15  A    between atoms: C_40  and  C_41
REMARK   16  A    between atoms: C_40  and  O_59
REMARK   17  A    between atoms: C_41  and  C_42
REMARK   18  A    between atoms: C_41  and  C_43
REMARK   19  A    between atoms: C_43  and  C_44
REMARK   20  A    between atoms: C_44  and  C_45
REMARK   21  A    between atoms: C_45  and  C_47
REMARK   22  A    between atoms: C_47  and  C_48
REMARK   23  A    between atoms: C_47  and  C_49
REMARK   24  A    between atoms: C_49  and  C_50
REMARK   25  A    between atoms: C_49  and  O_57
REMARK   26  A    between atoms: C_50  and  C_51
REMARK   27  A    between atoms: C_52  and  N_53
REMARK   28  A    between atoms: N_53  and  C_54
REMARK   29  A    between atoms: O_57  and  C_58
REMARK   30  A    between atoms: O_59  and  C_60
REMARK   31  A    between atoms: O_62  and  C_63
REMARK   32  A    between atoms: O_65  and  C_66
REMARK   33  A    between atoms: O_67  and  C_68
REMARK                            x       y       z     vdW  Elec       q    Type
REMARK                         _______ _______ _______ _____ _____    ______ ____
ROOT
ATOM      1  C   UNL     1     147.241 165.611 185.176  0.00  0.00    +0.001 C 
ATOM      2  C   UNL     1     145.948 164.998 185.686  0.00  0.00    -0.080 C 
ATOM      3  C   UNL     1     145.824 164.304 186.834  0.00  0.00    -0.059 C 
ATOM      4  C   UNL     1     144.579 163.660 187.393  0.00  0.00    +0.079 C 
ATOM      5  C   UNL     1     144.858 162.234 187.926  0.00  0.00    +0.004 C 
ATOM      6  C   UNL     1     144.816 161.099 186.883  0.00  0.00    +0.067 C 
ATOM      7  C   UNL     1     146.148 160.344 186.596  0.00  0.00    +0.020 C 
ATOM      8  C   UNL     1     146.849 159.526 187.721  0.00  0.00    +0.112 C 
ATOM      9  C   UNL     1     147.699 160.316 188.725  0.00  0.00    +0.006 C 
ATOM     10  C   UNL     1     148.297 159.393 189.747  0.00  0.00    -0.057 C 
ATOM     11  C   UNL     1     147.684 158.219 189.993  0.00  0.00    +0.022 C 
ATOM     12  C   UNL     1     146.397 157.844 189.370  0.00  0.00    +0.332 C 
ATOM     13  O   UNL     1     145.776 156.869 189.768  0.00  0.00    -0.246 OA
ATOM     14  O   UNL     1     145.922 158.669 188.401  0.00  0.00    -0.458 OA
ATOM     15  C   UNL     1     149.467 159.862 190.590  0.00  0.00    -0.004 C 
ATOM     16  C   UNL     1     150.832 160.097 189.895  0.00  0.00    +0.066 C 
ATOM     17  C   UNL     1     150.997 161.475 189.196  0.00  0.00    -0.005 C 
ATOM     18  C   UNL     1     150.481 162.691 189.955  0.00  0.00    -0.070 C 
ATOM     19  C   UNL     1     149.443 163.395 189.465  0.00  0.00    -0.062 C 
ATOM     20  C   UNL     1     148.763 164.531 190.039  0.00  0.00    -0.055 C 
ATOM     21  C   UNL     1     148.269 164.582 191.290  0.00  0.00    +0.023 C 
ATOM     22  C   UNL     1     147.432 165.699 191.790  0.00  0.00    +0.332 C 
ATOM     23  O   UNL     1     147.090 165.800 192.955  0.00  0.00    -0.246 OA
ATOM     24  O   UNL     1     147.065 166.502 190.769  0.00  0.00    -0.457 OA
ATOM     25  C   UNL     1     146.113 167.579 191.017  0.00  0.00    +0.114 C 
ATOM     26  C   UNL     1     146.823 168.883 190.543  0.00  0.00    +0.012 C 
ATOM     27  C   UNL     1     147.413 168.791 189.146  0.00  0.00    -0.079 C 
ATOM     28  C   UNL     1     146.801 169.236 188.038  0.00  0.00    -0.059 C 
ATOM     29  C   UNL     1     147.411 169.253 186.662  0.00  0.00    +0.079 C 
ATOM     30  C   UNL     1     146.958 168.061 185.810  0.00  0.00    +0.004 C 
ATOM     31  C   UNL     1     147.762 166.773 186.078  0.00  0.00    +0.067 C 
ATOM     32  H   UNL     1     147.022 166.033 184.184  0.00  0.00    +0.037 HD
ATOM     33  H   UNL     1     145.076 165.131 185.046  0.00  0.00    +0.057 HD
ATOM     34  H   UNL     1     146.701 164.216 187.470  0.00  0.00    +0.059 HD
ATOM     35  H   UNL     1     144.301 164.285 188.249  0.00  0.00    +0.064 HD
ATOM     36  H   UNL     1     145.804 162.255 188.464  0.00  0.00    +0.032 HD
ATOM     37  H   UNL     1     144.093 162.035 188.693  0.00  0.00    +0.032 HD
ATOM     38  H   UNL     1     144.461 161.516 185.930  0.00  0.00    +0.060 HD
ATOM     39  H   UNL     1     145.863 159.569 185.867  0.00  0.00    +0.036 HD
ATOM     40  H   UNL     1     147.541 158.851 187.187  0.00  0.00    +0.074 HD
ATOM     41  H   UNL     1     147.121 161.058 189.276  0.00  0.00    +0.035 HD
ATOM     42  H   UNL     1     148.492 160.824 188.174  0.00  0.00    +0.035 HD
ATOM     43  H   UNL     1     148.028 157.531 190.757  0.00  0.00    +0.069 HD
ATOM     44  H   UNL     1     149.633 159.118 191.382  0.00  0.00    +0.034 HD
ATOM     45  H   UNL     1     149.155 160.756 191.143  0.00  0.00    +0.034 HD
ATOM     46  H   UNL     1     150.975 159.306 189.144  0.00  0.00    +0.060 HD
ATOM     47  H   UNL     1     150.516 161.420 188.211  0.00  0.00    +0.034 HD
ATOM     48  H   UNL     1     152.057 161.662 188.971  0.00  0.00    +0.034 HD
ATOM     49  H   UNL     1     149.031 163.110 188.497  0.00  0.00    +0.062 HD
ATOM     50  H   UNL     1     148.562 165.339 189.335  0.00  0.00    +0.062 HD
ATOM     51  H   UNL     1     148.420 163.780 192.002  0.00  0.00    +0.069 HD
ATOM     52  H   UNL     1     145.907 167.660 192.092  0.00  0.00    +0.074 HD
ATOM     53  H   UNL     1     146.135 169.729 190.565  0.00  0.00    +0.038 HD
ATOM     54  H   UNL     1     148.409 168.362 189.071  0.00  0.00    +0.057 HD
ATOM     55  H   UNL     1     145.800 169.664 188.115  0.00  0.00    +0.059 HD
ATOM     56  H   UNL     1     148.508 169.281 186.715  0.00  0.00    +0.064 HD
ATOM     57  H   UNL     1     147.069 168.333 184.751  0.00  0.00    +0.032 HD
ATOM     58  H   UNL     1     145.889 167.878 185.968  0.00  0.00    +0.032 HD
ATOM     59  H   UNL     1     147.659 166.504 187.136  0.00  0.00    +0.060 HD
ENDROOT
BRANCH   1  60
ATOM     60  C   UNL     1     148.285 164.519 184.919  0.00  0.00    -0.057 C 
ATOM     61  H   UNL     1     148.839 164.287 185.835  0.00  0.00    +0.024 HD
ATOM     62  H   UNL     1     149.004 164.817 184.154  0.00  0.00    +0.024 HD
ATOM     63  H   UNL     1     147.810 163.587 184.593  0.00  0.00    +0.024 HD
ENDBRANCH   1  60
BRANCH  26  64
ATOM     64  C   UNL     1     147.952 169.251 191.522  0.00  0.00    -0.056 C 
ATOM     65  H   UNL     1     148.744 168.497 191.529  0.00  0.00    +0.024 HD
ATOM     66  H   UNL     1     147.562 169.344 192.541  0.00  0.00    +0.024 HD
ATOM     67  H   UNL     1     148.404 170.211 191.249  0.00  0.00    +0.024 HD
ENDBRANCH  26  64
BRANCH  18  68
ATOM     68  C   UNL     1     151.232 163.028 191.215  0.00  0.00    -0.043 C 
ATOM     69  H   UNL     1     151.974 162.248 191.434  0.00  0.00    +0.027 HD
ATOM     70  H   UNL     1     151.786 163.971 191.146  0.00  0.00    +0.027 HD
ATOM     71  H   UNL     1     150.546 163.102 192.067  0.00  0.00    +0.027 HD
ENDBRANCH  18  68
BRANCH   7  72
ATOM     72  C   UNL     1     147.143 161.241 185.857  0.00  0.00    -0.057 C 
ATOM     73  H   UNL     1     147.042 162.282 186.189  0.00  0.00    +0.023 HD
ATOM     74  H   UNL     1     146.957 161.223 184.775  0.00  0.00    +0.023 HD
ATOM     75  H   UNL     1     148.176 160.927 186.026  0.00  0.00    +0.023 HD
ENDBRANCH   7  72
BRANCH  25  76
ATOM     76  C   UNL     1     144.772 167.209 190.299  0.00  0.00    +0.020 C 
ATOM     77  H   UNL     1     144.774 167.710 189.326  0.00  0.00    +0.036 HD
BRANCH  76  78
ATOM     78  C   UNL     1     144.742 165.692 190.006  0.00  0.00    -0.057 C 
ATOM     79  H   UNL     1     143.723 165.333 189.842  0.00  0.00    +0.023 HD
ATOM     80  H   UNL     1     145.333 165.456 189.111  0.00  0.00    +0.023 HD
ATOM     81  H   UNL     1     145.146 165.101 190.830  0.00  0.00    +0.023 HD
ENDBRANCH  76  78
BRANCH  76  82
ATOM     82  C   UNL     1     143.471 167.577 191.089  0.00  0.00    +0.067 C 
ATOM     83  H   UNL     1     142.783 166.728 190.979  0.00  0.00    +0.060 HD
BRANCH  82  84
ATOM     84  C   UNL     1     142.751 168.853 190.540  0.00  0.00    -0.017 C 
ATOM     85  H   UNL     1     141.671 168.670 190.523  0.00  0.00    +0.032 HD
BRANCH  84  86
ATOM     86  C   UNL     1     142.978 170.032 191.501  0.00  0.00    -0.060 C 
ATOM     87  H   UNL     1     142.324 169.956 192.374  0.00  0.00    +0.023 HD
ATOM     88  H   UNL     1     142.745 170.986 191.016  0.00  0.00    +0.023 HD
ATOM     89  H   UNL     1     144.016 170.076 191.850  0.00  0.00    +0.023 HD
ENDBRANCH  84  86
BRANCH  84  90
ATOM     90  C   UNL     1     143.203 169.230 189.109  0.00  0.00    -0.041 C 
ATOM     91  H   UNL     1     142.925 168.441 188.404  0.00  0.00    +0.027 HD
ATOM     92  H   UNL     1     144.297 169.301 189.066  0.00  0.00    +0.027 HD
BRANCH  90  93
ATOM     93  C   UNL     1     142.591 170.536 188.609  0.00  0.00    +0.007 C 
ATOM     94  H   UNL     1     141.645 170.351 188.090  0.00  0.00    +0.034 HD
ATOM     95  H   UNL     1     142.365 171.215 189.439  0.00  0.00    +0.034 HD
BRANCH  93  96
ATOM     96  C   UNL     1     143.549 171.266 187.689  0.00  0.00    +0.139 C 
ATOM     97  O   UNL     1     143.898 170.752 186.623  0.00  0.00    -0.297 OA
BRANCH  96  98
ATOM     98  C   UNL     1     144.029 172.651 188.115  0.00  0.00    +0.041 C 
ATOM     99  H   UNL     1     143.147 173.306 188.117  0.00  0.00    +0.040 HD
BRANCH  98 100
ATOM    100  C   UNL     1     144.968 173.239 187.053  0.00  0.00    -0.053 C 
ATOM    101  H   UNL     1     144.951 174.334 187.064  0.00  0.00    +0.024 HD
ATOM    102  H   UNL     1     144.660 172.918 186.051  0.00  0.00    +0.024 HD
ATOM    103  H   UNL     1     146.002 172.910 187.196  0.00  0.00    +0.024 HD
ENDBRANCH  98 100
BRANCH  98 104
ATOM    104  C   UNL     1     144.625 172.669 189.543  0.00  0.00    +0.071 C 
ATOM    105  H   UNL     1     144.253 171.779 190.070  0.00  0.00    +0.061 HD
BRANCH 104 106
ATOM    106  C   UNL     1     146.175 172.684 189.589  0.00  0.00    -0.006 C 
ATOM    107  H   UNL     1     146.591 171.908 188.934  0.00  0.00    +0.033 HD
ATOM    108  H   UNL     1     146.558 173.629 189.186  0.00  0.00    +0.033 HD
BRANCH 106 109
ATOM    109  C   UNL     1     146.693 172.556 190.994  0.00  0.00    -0.067 C 
ATOM    110  C   UNL     1     147.728 173.259 191.472  0.00  0.00    -0.005 C 
ATOM    111  H   UNL     1     146.171 171.837 191.617  0.00  0.00    +0.059 HD
ATOM    112  H   UNL     1     148.205 173.992 190.822  0.00  0.00    +0.078 HD
BRANCH 110 113
ATOM    113  N   UNL     1     148.292 173.151 192.732  0.00  0.00    -0.284 N 
ATOM    114  C   UNL     1     147.717 173.617 193.912  0.00  0.00    +0.206 C 
ATOM    115  O   UNL     1     146.613 174.118 194.084  0.00  0.00    -0.279 OA
ATOM    116  H   UNL     1     148.385 173.468 194.778  0.00  0.00    +0.126 HD
BRANCH 113 117
ATOM    117  C   UNL     1     149.528 172.382 192.823  0.00  0.00    +0.007 C 
ATOM    118  H   UNL     1     150.126 172.572 191.926  0.00  0.00    +0.043 HD
ATOM    119  H   UNL     1     150.084 172.685 193.714  0.00  0.00    +0.043 HD
ATOM    120  H   UNL     1     149.330 171.307 192.881  0.00  0.00    +0.043 HD
ENDBRANCH 113 117
ENDBRANCH 110 113
ENDBRANCH 106 109
ENDBRANCH 104 106
BRANCH 104 121
ATOM    121  O   UNL     1     144.119 173.834 190.222  0.00  0.00    -0.379 OA
BRANCH 121 122
ATOM    122  C   UNL     1     142.861 173.617 190.853  0.00  0.00    +0.037 C 
ATOM    123  H   UNL     1     142.903 173.962 191.891  0.00  0.00    +0.052 HD
ATOM    124  H   UNL     1     142.048 174.129 190.328  0.00  0.00    +0.052 HD
ATOM    125  H   UNL     1     142.662 172.543 190.853  0.00  0.00    +0.052 HD
ENDBRANCH 121 122
ENDBRANCH 104 121
ENDBRANCH  98 104
ENDBRANCH  96  98
ENDBRANCH  93  96
ENDBRANCH  90  93
ENDBRANCH  84  90
ENDBRANCH  82  84
BRANCH  82 126
ATOM    126  O   UNL     1     143.742 167.794 192.473  0.00  0.00    -0.379 OA
BRANCH 126 127
ATOM    127  C   UNL     1     143.107 166.849 193.327  0.00  0.00    +0.037 C 
ATOM    128  H   UNL     1     143.880 166.214 193.767  0.00  0.00    +0.052 HD
ATOM    129  H   UNL     1     142.567 167.351 194.132  0.00  0.00    +0.052 HD
ATOM    130  H   UNL     1     142.421 166.216 192.755  0.00  0.00    +0.052 HD
ENDBRANCH 126 127
ENDBRANCH  82 126
ENDBRANCH  76  82
ENDBRANCH  25  76
BRANCH  31 131
ATOM    131  O   UNL     1     149.138 167.052 185.773  0.00  0.00    -0.379 OA
BRANCH 131 132
ATOM    132  C   UNL     1     150.006 166.921 186.892  0.00  0.00    +0.037 C 
ATOM    133  H   UNL     1     150.401 165.905 186.974  0.00  0.00    +0.052 HD
ATOM    134  H   UNL     1     150.845 167.611 186.757  0.00  0.00    +0.052 HD
ATOM    135  H   UNL     1     149.484 167.192 187.813  0.00  0.00    +0.052 HD
ENDBRANCH 131 132
ENDBRANCH  31 131
BRANCH  29 136
ATOM    136  O   UNL     1     146.936 170.442 186.014  0.00  0.00    -0.376 OA
BRANCH 136 137
ATOM    137  C   UNL     1     147.163 170.422 184.609  0.00  0.00    +0.037 C 
ATOM    138  H   UNL     1     146.394 169.833 184.099  0.00  0.00    +0.052 HD
ATOM    139  H   UNL     1     148.137 169.961 184.426  0.00  0.00    +0.052 HD
ATOM    140  H   UNL     1     147.180 171.443 184.211  0.00  0.00    +0.052 HD
ENDBRANCH 136 137
ENDBRANCH  29 136
BRANCH  16 141
ATOM    141  O   UNL     1     151.841 159.932 190.912  0.00  0.00    -0.379 OA
BRANCH 141 142
ATOM    142  C   UNL     1     152.061 158.580 191.298  0.00  0.00    +0.037 C 
ATOM    143  H   UNL     1     151.115 158.077 191.517  0.00  0.00    +0.052 HD
ATOM    144  H   UNL     1     152.534 158.061 190.462  0.00  0.00    +0.052 HD
ATOM    145  H   UNL     1     152.729 158.521 192.162  0.00  0.00    +0.052 HD
ENDBRANCH 141 142
ENDBRANCH  16 141
BRANCH   6 146
ATOM    146  O   UNL     1     143.820 160.175 187.356  0.00  0.00    -0.379 OA
BRANCH 146 147
ATOM    147  C   UNL     1     143.180 159.436 186.322  0.00  0.00    +0.037 C 
ATOM    148  H   UNL     1     143.898 159.084 185.576  0.00  0.00    +0.052 HD
ATOM    149  H   UNL     1     142.696 158.568 186.773  0.00  0.00    +0.052 HD
ATOM    150  H   UNL     1     142.411 160.047 185.839  0.00  0.00    +0.052 HD
ENDBRANCH 146 147
ENDBRANCH   6 146
BRANCH   4 151
ATOM    151  O   UNL     1     143.516 163.710 186.444  0.00  0.00    -0.376 OA
BRANCH 151 152
ATOM    152  C   UNL     1     142.231 163.816 187.048  0.00  0.00    +0.037 C 
ATOM    153  H   UNL     1     141.899 162.842 187.423  0.00  0.00    +0.052 HD
ATOM    154  H   UNL     1     142.308 164.503 187.896  0.00  0.00    +0.052 HD
ATOM    155  H   UNL     1     141.500 164.222 186.345  0.00  0.00    +0.052 HD
ENDBRANCH 151 152
ENDBRANCH   4 151
TORSDOF 33
ENDMDL
MODEL 2
REMARK VINA RESULT:      -4.9      3.722     11.024
REMARK  Name = Reidispongiolide A_conf2
REMARK  33 active torsions:
REMARK  status: ('A' for Active; 'I' for Inactive)
REMARK    1  A    between atoms: C_1  and  C_2
REMARK    2  A    between atoms: C_5  and  O_67
REMARK    3  A    between atoms: C_7  and  O_65
REMARK    4  A    between atoms: C_8  and  C_64
REMARK    5  A    between atoms: C_17  and  O_62
REMARK    6  A    between atoms: C_19  and  C_61
REMARK    7  A    between atoms: C_26  and  C_38
REMARK    8  A    between atoms: C_27  and  C_37
REMARK    9  A    between atoms: C_30  and  O_35
REMARK   10  A    between atoms: C_32  and  O_33
REMARK   11  A    between atoms: O_33  and  C_34
REMARK   12  A    between atoms: O_35  and  C_36
REMARK   13  A    between atoms: C_38  and  C_39
REMARK   14  A    between atoms: C_38  and  C_40
REMARK   15  A    between atoms: C_40  and  C_41
REMARK   16  A    between atoms: C_40  and  O_59
REMARK   17  A    between atoms: C_41  and  C_42
REMARK   18  A    between atoms: C_41  and  C_43
REMARK   19  A    between atoms: C_43  and  C_44
REMARK   20  A    between atoms: C_44  and  C_45
REMARK   21  A    between atoms: C_45  and  C_47
REMARK   22  A    between atoms: C_47  and  C_48
REMARK   23  A    between atoms: C_47  and  C_49
REMARK   24  A    between atoms: C_49  and  C_50
REMARK   25  A    between atoms: C_49  and  O_57
REMARK   26  A    between atoms: C_50  and  C_51
REMARK   27  A    between atoms: C_52  and  N_53
REMARK   28  A    between atoms: N_53  and  C_54
REMARK   29  A    between atoms: O_57  and  C_58
REMARK   30  A    between atoms: O_59  and  C_60
REMARK   31  A    between atoms: O_62  and  C_63
REMARK   32  A    between atoms: O_65  and  C_66
REMARK   33  A    between atoms: O_67  and  C_68
REMARK                            x       y       z     vdW  Elec       q    Type
REMARK                         _______ _______ _______ _____ _____    ______ ____
ROOT
ATOM      1  C   UNL     1     145.471 172.649 187.053  0.00  0.00    +0.001 C 
ATOM      2  C   UNL     1     145.506 172.661 188.571  0.00  0.00    -0.080 C 
ATOM      3  C   UNL     1     144.528 172.189 189.369  0.00  0.00    -0.059 C 
ATOM      4  C   UNL     1     144.492 172.181 190.877  0.00  0.00    +0.079 C 
ATOM      5  C   UNL     1     143.116 172.634 191.423  0.00  0.00    +0.004 C 
ATOM      6  C   UNL     1     142.908 174.155 191.560  0.00  0.00    +0.067 C 
ATOM      7  C   UNL     1     141.823 174.811 190.654  0.00  0.00    +0.020 C 
ATOM      8  C   UNL     1     140.325 174.412 190.803  0.00  0.00    +0.112 C 
ATOM      9  C   UNL     1     139.882 173.112 190.118  0.00  0.00    +0.006 C 
ATOM     10  C   UNL     1     138.423 172.860 190.362  0.00  0.00    -0.057 C 
ATOM     11  C   UNL     1     137.846 173.408 191.448  0.00  0.00    +0.022 C 
ATOM     12  C   UNL     1     138.611 174.165 192.463  0.00  0.00    +0.332 C 
ATOM     13  O   UNL     1     138.095 174.470 193.528  0.00  0.00    -0.246 OA
ATOM     14  O   UNL     1     139.911 174.430 192.177  0.00  0.00    -0.458 OA
ATOM     15  C   UNL     1     137.673 171.877 189.484  0.00  0.00    -0.004 C 
ATOM     16  C   UNL     1     137.439 172.241 187.997  0.00  0.00    +0.066 C 
ATOM     17  C   UNL     1     138.625 171.937 187.039  0.00  0.00    -0.005 C 
ATOM     18  C   UNL     1     139.335 170.604 187.236  0.00  0.00    -0.070 C 
ATOM     19  C   UNL     1     140.619 170.582 187.642  0.00  0.00    -0.062 C 
ATOM     20  C   UNL     1     141.459 169.449 187.945  0.00  0.00    -0.055 C 
ATOM     21  C   UNL     1     141.129 168.446 188.781  0.00  0.00    +0.023 C 
ATOM     22  C   UNL     1     142.079 167.387 189.196  0.00  0.00    +0.332 C 
ATOM     23  O   UNL     1     141.743 166.418 189.854  0.00  0.00    -0.246 OA
ATOM     24  O   UNL     1     143.333 167.705 188.810  0.00  0.00    -0.457 OA
ATOM     25  C   UNL     1     144.446 166.871 189.249  0.00  0.00    +0.114 C 
ATOM     26  C   UNL     1     145.171 166.420 187.946  0.00  0.00    +0.012 C 
ATOM     27  C   UNL     1     145.496 167.560 186.995  0.00  0.00    -0.079 C 
ATOM     28  C   UNL     1     146.688 168.174 186.932  0.00  0.00    -0.059 C 
ATOM     29  C   UNL     1     147.063 169.229 185.926  0.00  0.00    +0.079 C 
ATOM     30  C   UNL     1     146.943 170.647 186.499  0.00  0.00    +0.004 C 
ATOM     31  C   UNL     1     145.508 171.208 186.453  0.00  0.00    +0.067 C 
ATOM     32  H   UNL     1     146.374 173.175 186.711  0.00  0.00    +0.037 HD
ATOM     33  H   UNL     1     146.393 173.107 189.020  0.00  0.00    +0.057 HD
ATOM     34  H   UNL     1     143.670 171.720 188.896  0.00  0.00    +0.059 HD
ATOM     35  H   UNL     1     144.628 171.130 191.154  0.00  0.00    +0.064 HD
ATOM     36  H   UNL     1     142.343 172.173 190.811  0.00  0.00    +0.032 HD
ATOM     37  H   UNL     1     143.011 172.174 192.418  0.00  0.00    +0.032 HD
ATOM     38  H   UNL     1     143.862 174.658 191.347  0.00  0.00    +0.060 HD
ATOM     39  H   UNL     1     141.828 175.870 190.957  0.00  0.00    +0.036 HD
ATOM     40  H   UNL     1     139.766 175.229 190.314  0.00  0.00    +0.074 HD
ATOM     41  H   UNL     1     140.415 172.236 190.491  0.00  0.00    +0.035 HD
ATOM     42  H   UNL     1     140.070 173.210 189.049  0.00  0.00    +0.035 HD
ATOM     43  H   UNL     1     136.812 173.222 191.715  0.00  0.00    +0.069 HD
ATOM     44  H   UNL     1     136.683 171.709 189.933  0.00  0.00    +0.034 HD
ATOM     45  H   UNL     1     138.161 170.899 189.571  0.00  0.00    +0.034 HD
ATOM     46  H   UNL     1     137.212 173.316 187.938  0.00  0.00    +0.060 HD
ATOM     47  H   UNL     1     139.348 172.758 187.118  0.00  0.00    +0.034 HD
ATOM     48  H   UNL     1     138.286 171.970 185.994  0.00  0.00    +0.034 HD
ATOM     49  H   UNL     1     141.143 171.531 187.763  0.00  0.00    +0.062 HD
ATOM     50  H   UNL     1     142.465 169.509 187.529  0.00  0.00    +0.062 HD
ATOM     51  H   UNL     1     140.149 168.378 189.238  0.00  0.00    +0.069 HD
ATOM     52  H   UNL     1     144.068 165.981 189.769  0.00  0.00    +0.074 HD
ATOM     53  H   UNL     1     146.101 165.900 188.180  0.00  0.00    +0.038 HD
ATOM     54  H   UNL     1     144.705 167.856 186.311  0.00  0.00    +0.057 HD
ATOM     55  H   UNL     1     147.479 167.876 187.621  0.00  0.00    +0.059 HD
ATOM     56  H   UNL     1     146.458 169.140 185.014  0.00  0.00    +0.064 HD
ATOM     57  H   UNL     1     147.601 171.309 185.919  0.00  0.00    +0.032 HD
ATOM     58  H   UNL     1     147.323 170.664 187.527  0.00  0.00    +0.032 HD
ATOM     59  H   UNL     1     144.849 170.545 187.026  0.00  0.00    +0.060 HD
ENDROOT
BRANCH   1  60
ATOM     60  C   UNL     1     144.302 173.497 186.539  0.00  0.00    -0.057 C 
ATOM     61  H   UNL     1     143.833 173.027 185.668  0.00  0.00    +0.024 HD
ATOM     62  H   UNL     1     144.623 174.500 186.251  0.00  0.00    +0.024 HD
ATOM     63  H   UNL     1     143.521 173.598 187.302  0.00  0.00    +0.024 HD
ENDBRANCH   1  60
BRANCH  26  64
ATOM     64  C   UNL     1     144.308 165.393 187.193  0.00  0.00    -0.056 C 
ATOM     65  H   UNL     1     143.240 165.568 187.351  0.00  0.00    +0.024 HD
ATOM     66  H   UNL     1     144.539 164.376 187.530  0.00  0.00    +0.024 HD
ATOM     67  H   UNL     1     144.501 165.440 186.116  0.00  0.00    +0.024 HD
ENDBRANCH  26  64
BRANCH  18  68
ATOM     68  C   UNL     1     138.514 169.385 186.914  0.00  0.00    -0.043 C 
ATOM     69  H   UNL     1     137.998 169.025 187.814  0.00  0.00    +0.027 HD
ATOM     70  H   UNL     1     137.735 169.577 186.167  0.00  0.00    +0.027 HD
ATOM     71  H   UNL     1     139.151 168.577 186.535  0.00  0.00    +0.027 HD
ENDBRANCH  18  68
BRANCH   7  72
ATOM     72  C   UNL     1     142.255 174.812 189.187  0.00  0.00    -0.057 C 
ATOM     73  H   UNL     1     142.854 173.921 188.962  0.00  0.00    +0.023 HD
ATOM     74  H   UNL     1     142.877 175.688 188.963  0.00  0.00    +0.023 HD
ATOM     75  H   UNL     1     141.398 174.827 188.510  0.00  0.00    +0.023 HD
ENDBRANCH   7  72
BRANCH  25  76
ATOM     76  C   UNL     1     145.291 167.700 190.274  0.00  0.00    +0.020 C 
ATOM     77  H   UNL     1     146.315 167.745 189.889  0.00  0.00    +0.036 HD
BRANCH  76  78
ATOM     78  C   UNL     1     144.778 169.158 190.311  0.00  0.00    -0.057 C 
ATOM     79  H   UNL     1     145.546 169.863 189.986  0.00  0.00    +0.023 HD
ATOM     80  H   UNL     1     143.906 169.281 189.656  0.00  0.00    +0.023 HD
ATOM     81  H   UNL     1     144.481 169.468 191.314  0.00  0.00    +0.023 HD
ENDBRANCH  76  78
BRANCH  76  82
ATOM     82  C   UNL     1     145.291 167.147 191.738  0.00  0.00    +0.067 C 
ATOM     83  H   UNL     1     145.153 168.011 192.403  0.00  0.00    +0.060 HD
BRANCH  82  84
ATOM     84  C   UNL     1     146.631 166.444 192.137  0.00  0.00    -0.017 C 
ATOM     85  H   UNL     1     146.697 165.484 191.613  0.00  0.00    +0.032 HD
BRANCH  84  86
ATOM     86  C   UNL     1     147.824 167.286 191.655  0.00  0.00    -0.060 C 
ATOM     87  H   UNL     1     148.763 166.908 192.070  0.00  0.00    +0.023 HD
ATOM     88  H   UNL     1     147.731 168.327 191.984  0.00  0.00    +0.023 HD
ATOM     89  H   UNL     1     147.905 167.284 190.562  0.00  0.00    +0.023 HD
ENDBRANCH  84  86
BRANCH  84  90
ATOM     90  C   UNL     1     146.741 166.176 193.657  0.00  0.00    -0.041 C 
ATOM     91  H   UNL     1     146.888 165.108 193.844  0.00  0.00    +0.027 HD
ATOM     92  H   UNL     1     145.801 166.443 194.156  0.00  0.00    +0.027 HD
BRANCH  90  93
ATOM     93  C   UNL     1     147.894 166.926 194.319  0.00  0.00    +0.007 C 
ATOM     94  H   UNL     1     148.744 167.019 193.636  0.00  0.00    +0.034 HD
ATOM     95  H   UNL     1     147.601 167.946 194.594  0.00  0.00    +0.034 HD
BRANCH  93  96
ATOM     96  C   UNL     1     148.331 166.233 195.594  0.00  0.00    +0.139 C 
ATOM     97  O   UNL     1     147.560 166.160 196.555  0.00  0.00    -0.297 OA
BRANCH  96  98
ATOM     98  C   UNL     1     149.725 165.612 195.627  0.00  0.00    +0.041 C 
ATOM     99  H   UNL     1     149.601 164.570 195.950  0.00  0.00    +0.040 HD
BRANCH  98 100
ATOM    100  C   UNL     1     150.578 166.276 196.717  0.00  0.00    -0.053 C 
ATOM    101  H   UNL     1     151.586 166.505 196.354  0.00  0.00    +0.024 HD
ATOM    102  H   UNL     1     150.686 165.607 197.578  0.00  0.00    +0.024 HD
ATOM    103  H   UNL     1     150.125 167.204 197.080  0.00  0.00    +0.024 HD
ENDBRANCH  98 100
BRANCH  98 104
ATOM    104  C   UNL     1     150.408 165.591 194.238  0.00  0.00    +0.071 C 
ATOM    105  H   UNL     1     149.838 166.261 193.577  0.00  0.00    +0.061 HD
BRANCH 104 106
ATOM    106  C   UNL     1     151.897 166.024 194.250  0.00  0.00    -0.006 C 
ATOM    107  H   UNL     1     152.169 166.452 195.223  0.00  0.00    +0.033 HD
ATOM    108  H   UNL     1     152.547 165.149 194.135  0.00  0.00    +0.033 HD
BRANCH 106 109
ATOM    109  C   UNL     1     152.213 166.966 193.123  0.00  0.00    -0.067 C 
ATOM    110  C   UNL     1     151.296 167.721 192.504  0.00  0.00    -0.005 C 
ATOM    111  H   UNL     1     153.256 166.998 192.825  0.00  0.00    +0.059 HD
ATOM    112  H   UNL     1     150.266 167.681 192.856  0.00  0.00    +0.078 HD
BRANCH 110 113
ATOM    113  N   UNL     1     151.507 168.565 191.427  0.00  0.00    -0.284 N 
ATOM    114  C   UNL     1     151.476 169.956 191.479  0.00  0.00    +0.206 C 
ATOM    115  O   UNL     1     151.347 170.688 192.453  0.00  0.00    -0.279 OA
ATOM    116  H   UNL     1     151.613 170.405 190.479  0.00  0.00    +0.126 HD
BRANCH 113 117
ATOM    117  C   UNL     1     151.906 167.929 190.177  0.00  0.00    +0.007 C 
ATOM    118  H   UNL     1     152.991 167.779 190.191  0.00  0.00    +0.043 HD
ATOM    119  H   UNL     1     151.397 166.967 190.075  0.00  0.00    +0.043 HD
ATOM    120  H   UNL     1     151.658 168.551 189.311  0.00  0.00    +0.043 HD
ENDBRANCH 113 117
ENDBRANCH 110 113
ENDBRANCH 106 109
ENDBRANCH 104 106
BRANCH 104 121
ATOM    121  O   UNL     1     150.306 164.255 193.712  0.00  0.00    -0.379 OA
BRANCH 121 122
ATOM    122  C   UNL     1     149.731 164.202 192.411  0.00  0.00    +0.037 C 
ATOM    123  H   UNL     1     149.518 163.163 192.141  0.00  0.00    +0.052 HD
ATOM    124  H   UNL     1     148.811 164.793 192.347  0.00  0.00    +0.052 HD
ATOM    125  H   UNL     1     150.459 164.602 191.702  0.00  0.00    +0.052 HD
ENDBRANCH 121 122
ENDBRANCH 104 121
ENDBRANCH  98 104
ENDBRANCH  96  98
ENDBRANCH  93  96
ENDBRANCH  90  93
ENDBRANCH  84  90
ENDBRANCH  82  84
BRANCH  82 126
ATOM    126  O   UNL     1     144.234 166.213 191.946  0.00  0.00    -0.379 OA
BRANCH 126 127
ATOM    127  C   UNL     1     143.287 166.638 192.920  0.00  0.00    +0.037 C 
ATOM    128  H   UNL     1     143.817 166.803 193.861  0.00  0.00    +0.052 HD
ATOM    129  H   UNL     1     142.810 167.573 192.618  0.00  0.00    +0.052 HD
ATOM    130  H   UNL     1     142.529 165.865 193.080  0.00  0.00    +0.052 HD
ENDBRANCH 126 127
ENDBRANCH  82 126
ENDBRANCH  76  82
ENDBRANCH  25  76
BRANCH  31 131
ATOM    131  O   UNL     1     145.101 171.239 185.076  0.00  0.00    -0.379 OA
BRANCH 131 132
ATOM    132  C   UNL     1     143.953 170.444 184.806  0.00  0.00    +0.037 C 
ATOM    133  H   UNL     1     143.676 170.488 183.748  0.00  0.00    +0.052 HD
ATOM    134  H   UNL     1     144.188 169.406 185.059  0.00  0.00    +0.052 HD
ATOM    135  H   UNL     1     143.111 170.767 185.424  0.00  0.00    +0.052 HD
ENDBRANCH 131 132
ENDBRANCH  31 131
BRANCH  29 136
ATOM    136  O   UNL     1     148.445 169.018 185.602  0.00  0.00    -0.376 OA
BRANCH 136 137
ATOM    137  C   UNL     1     148.978 167.855 186.225  0.00  0.00    +0.037 C 
ATOM    138  H   UNL     1     149.602 167.290 185.525  0.00  0.00    +0.052 HD
ATOM    139  H   UNL     1     148.143 167.222 186.539  0.00  0.00    +0.052 HD
ATOM    140  H   UNL     1     149.561 168.129 187.112  0.00  0.00    +0.052 HD
ENDBRANCH 136 137
ENDBRANCH  29 136
BRANCH  16 141
ATOM    141  O   UNL     1     136.265 171.516 187.578  0.00  0.00    -0.379 OA
BRANCH 141 142
ATOM    142  C   UNL     1     135.447 171.065 188.653  0.00  0.00    +0.037 C 
ATOM    143  H   UNL     1     136.056 170.789 189.519  0.00  0.00    +0.052 HD
ATOM    144  H   UNL     1     134.791 171.886 188.948  0.00  0.00    +0.052 HD
ATOM    145  H   UNL     1     134.824 170.221 188.346  0.00  0.00    +0.052 HD
ENDBRANCH 141 142
ENDBRANCH  16 141
BRANCH   6 146
ATOM    146  O   UNL     1     142.592 174.381 192.946  0.00  0.00    -0.379 OA
BRANCH 146 147
ATOM    147  C   UNL     1     143.080 175.616 193.455  0.00  0.00    +0.037 C 
ATOM    148  H   UNL     1     142.577 176.469 192.993  0.00  0.00    +0.052 HD
ATOM    149  H   UNL     1     142.888 175.641 194.530  0.00  0.00    +0.052 HD
ATOM    150  H   UNL     1     144.161 175.690 193.298  0.00  0.00    +0.052 HD
ENDBRANCH 146 147
ENDBRANCH   6 146
BRANCH   4 151
ATOM    151  O   UNL     1     145.585 172.925 191.412  0.00  0.00    -0.376 OA
BRANCH 151 152
ATOM    152  C   UNL     1     146.676 172.104 191.816  0.00  0.00    +0.037 C 
ATOM    153  H   UNL     1     146.539 171.759 192.846  0.00  0.00    +0.052 HD
ATOM    154  H   UNL     1     146.705 171.229 191.161  0.00  0.00    +0.052 HD
ATOM    155  H   UNL     1     147.625 172.638 191.717  0.00  0.00    +0.052 HD
ENDBRANCH 151 152
ENDBRANCH   4 151
TORSDOF 33
ENDMDL
MODEL 3
REMARK VINA RESULT:      -4.9      2.020      3.104
REMARK  Name = Reidispongiolide A_conf2
REMARK  33 active torsions:
REMARK  status: ('A' for Active; 'I' for Inactive)
REMARK    1  A    between atoms: C_1  and  C_2
REMARK    2  A    between atoms: C_5  and  O_67
REMARK    3  A    between atoms: C_7  and  O_65
REMARK    4  A    between atoms: C_8  and  C_64
REMARK    5  A    between atoms: C_17  and  O_62
REMARK    6  A    between atoms: C_19  and  C_61
REMARK    7  A    between atoms: C_26  and  C_38
REMARK    8  A    between atoms: C_27  and  C_37
REMARK    9  A    between atoms: C_30  and  O_35
REMARK   10  A    between atoms: C_32  and  O_33
REMARK   11  A    between atoms: O_33  and  C_34
REMARK   12  A    between atoms: O_35  and  C_36
REMARK   13  A    between atoms: C_38  and  C_39
REMARK   14  A    between atoms: C_38  and  C_40
REMARK   15  A    between atoms: C_40  and  C_41
REMARK   16  A    between atoms: C_40  and  O_59
REMARK   17  A    between atoms: C_41  and  C_42
REMARK   18  A    between atoms: C_41  and  C_43
REMARK   19  A    between atoms: C_43  and  C_44
REMARK   20  A    between atoms: C_44  and  C_45
REMARK   21  A    between atoms: C_45  and  C_47
REMARK   22  A    between atoms: C_47  and  C_48
REMARK   23  A    between atoms: C_47  and  C_49
REMARK   24  A    between atoms: C_49  and  C_50
REMARK   25  A    between atoms: C_49  and  O_57
REMARK   26  A    between atoms: C_50  and  C_51
REMARK   27  A    between atoms: C_52  and  N_53
REMARK   28  A    between atoms: N_53  and  C_54
REMARK   29  A    between atoms: O_57  and  C_58
REMARK   30  A    between atoms: O_59  and  C_60
REMARK   31  A    between atoms: O_62  and  C_63
REMARK   32  A    between atoms: O_65  and  C_66
REMARK   33  A    between atoms: O_67  and  C_68
REMARK                            x       y       z     vdW  Elec       q    Type
REMARK                         _______ _______ _______ _____ _____    ______ ____
ROOT
ATOM      1  C   UNL     1     146.746 164.581 185.453  0.00  0.00    +0.001 C 
ATOM      2  C   UNL     1     146.197 163.664 186.532  0.00  0.00    -0.080 C 
ATOM      3  C   UNL     1     146.807 163.403 187.705  0.00  0.00    -0.059 C 
ATOM      4  C   UNL     1     146.327 162.497 188.813  0.00  0.00    +0.079 C 
ATOM      5  C   UNL     1     147.465 161.601 189.358  0.00  0.00    +0.004 C 
ATOM      6  C   UNL     1     147.730 160.294 188.584  0.00  0.00    +0.067 C 
ATOM      7  C   UNL     1     149.105 160.157 187.864  0.00  0.00    +0.020 C 
ATOM      8  C   UNL     1     150.428 160.149 188.686  0.00  0.00    +0.112 C 
ATOM      9  C   UNL     1     150.976 161.511 189.130  0.00  0.00    +0.006 C 
ATOM     10  C   UNL     1     152.243 161.336 189.917  0.00  0.00    -0.057 C 
ATOM     11  C   UNL     1     152.455 160.165 190.546  0.00  0.00    +0.022 C 
ATOM     12  C   UNL     1     151.451 159.080 190.574  0.00  0.00    +0.332 C 
ATOM     13  O   UNL     1     151.595 158.120 191.318  0.00  0.00    -0.246 OA
ATOM     14  O   UNL     1     150.349 159.244 189.797  0.00  0.00    -0.458 OA
ATOM     15  C   UNL     1     153.169 162.519 190.123  0.00  0.00    -0.004 C 
ATOM     16  C   UNL     1     153.922 163.092 188.896  0.00  0.00    +0.066 C 
ATOM     17  C   UNL     1     153.113 164.089 188.020  0.00  0.00    -0.005 C 
ATOM     18  C   UNL     1     152.279 165.125 188.762  0.00  0.00    -0.070 C 
ATOM     19  C   UNL     1     150.936 165.097 188.668  0.00  0.00    -0.062 C 
ATOM     20  C   UNL     1     149.960 165.934 189.323  0.00  0.00    -0.055 C 
ATOM     21  C   UNL     1     149.908 166.166 190.648  0.00  0.00    +0.023 C 
ATOM     22  C   UNL     1     148.796 166.894 191.303  0.00  0.00    +0.332 C 
ATOM     23  O   UNL     1     148.813 167.206 192.482  0.00  0.00    -0.246 OA
ATOM     24  O   UNL     1     147.776 167.070 190.437  0.00  0.00    -0.457 OA
ATOM     25  C   UNL     1     146.520 167.632 190.920  0.00  0.00    +0.114 C 
ATOM     26  C   UNL     1     146.249 168.881 190.029  0.00  0.00    +0.012 C 
ATOM     27  C   UNL     1     146.355 168.610 188.538  0.00  0.00    -0.079 C 
ATOM     28  C   UNL     1     145.306 168.350 187.742  0.00  0.00    -0.059 C 
ATOM     29  C   UNL     1     145.377 168.186 186.248  0.00  0.00    +0.079 C 
ATOM     30  C   UNL     1     145.402 166.711 185.826  0.00  0.00    +0.004 C 
ATOM     31  C   UNL     1     146.806 166.076 185.895  0.00  0.00    +0.067 C 
ATOM     32  H   UNL     1     146.056 164.514 184.599  0.00  0.00    +0.037 HD
ATOM     33  H   UNL     1     145.247 163.182 186.305  0.00  0.00    +0.057 HD
ATOM     34  H   UNL     1     147.736 163.923 187.920  0.00  0.00    +0.059 HD
ATOM     35  H   UNL     1     146.025 163.176 189.618  0.00  0.00    +0.064 HD
ATOM     36  H   UNL     1     148.363 162.211 189.441  0.00  0.00    +0.032 HD
ATOM     37  H   UNL     1     147.190 161.347 190.393  0.00  0.00    +0.032 HD
ATOM     38  H   UNL     1     146.946 160.176 187.823  0.00  0.00    +0.060 HD
ATOM     39  H   UNL     1     149.077 159.145 187.430  0.00  0.00    +0.036 HD
ATOM     40  H   UNL     1     151.180 159.715 188.004  0.00  0.00    +0.074 HD
ATOM     41  H   UNL     1     150.284 162.056 189.773  0.00  0.00    +0.035 HD
ATOM     42  H   UNL     1     151.172 162.106 188.238  0.00  0.00    +0.035 HD
ATOM     43  H   UNL     1     153.319 159.990 191.176  0.00  0.00    +0.069 HD
ATOM     44  H   UNL     1     153.931 162.228 190.860  0.00  0.00    +0.034 HD
ATOM     45  H   UNL     1     152.608 163.309 190.636  0.00  0.00    +0.034 HD
ATOM     46  H   UNL     1     154.237 162.249 188.263  0.00  0.00    +0.060 HD
ATOM     47  H   UNL     1     152.471 163.510 187.345  0.00  0.00    +0.034 HD
ATOM     48  H   UNL     1     153.789 164.640 187.350  0.00  0.00    +0.034 HD
ATOM     49  H   UNL     1     150.476 164.361 188.007  0.00  0.00    +0.062 HD
ATOM     50  H   UNL     1     149.162 166.291 188.670  0.00  0.00    +0.062 HD
ATOM     51  H   UNL     1     150.665 165.793 191.327  0.00  0.00    +0.069 HD
ATOM     52  H   UNL     1     146.630 167.959 191.963  0.00  0.00    +0.074 HD
ATOM     53  H   UNL     1     145.258 169.292 190.229  0.00  0.00    +0.038 HD
ATOM     54  H   UNL     1     147.352 168.666 188.108  0.00  0.00    +0.057 HD
ATOM     55  H   UNL     1     144.307 168.292 188.176  0.00  0.00    +0.059 HD
ATOM     56  H   UNL     1     146.247 168.710 185.832  0.00  0.00    +0.064 HD
ATOM     57  H   UNL     1     145.034 166.642 184.793  0.00  0.00    +0.032 HD
ATOM     58  H   UNL     1     144.698 166.138 186.440  0.00  0.00    +0.032 HD
ATOM     59  H   UNL     1     147.178 166.150 186.924  0.00  0.00    +0.060 HD
ENDROOT
BRANCH   1  60
ATOM     60  C   UNL     1     148.081 164.044 184.925  0.00  0.00    -0.057 C 
ATOM     61  H   UNL     1     148.480 164.696 184.140  0.00  0.00    +0.024 HD
ATOM     62  H   UNL     1     147.979 163.039 184.510  0.00  0.00    +0.024 HD
ATOM     63  H   UNL     1     148.835 164.008 185.719  0.00  0.00    +0.024 HD
ENDBRANCH   1  60
BRANCH  26  64
ATOM     64  C   UNL     1     147.236 170.006 190.388  0.00  0.00    -0.056 C 
ATOM     65  H   UNL     1     148.031 170.100 189.642  0.00  0.00    +0.024 HD
ATOM     66  H   UNL     1     147.703 169.812 191.360  0.00  0.00    +0.024 HD
ATOM     67  H   UNL     1     146.718 170.969 190.452  0.00  0.00    +0.024 HD
ENDBRANCH  26  64
BRANCH  18  68
ATOM     68  C   UNL     1     153.065 166.149 189.537  0.00  0.00    -0.043 C 
ATOM     69  H   UNL     1     154.034 166.329 189.052  0.00  0.00    +0.027 HD
ATOM     70  H   UNL     1     152.563 167.122 189.596  0.00  0.00    +0.027 HD
ATOM     71  H   UNL     1     153.250 165.803 190.560  0.00  0.00    +0.027 HD
ENDBRANCH  18  68
BRANCH   7  72
ATOM     72  C   UNL     1     149.199 161.105 186.668  0.00  0.00    -0.057 C 
ATOM     73  H   UNL     1     149.502 162.107 186.995  0.00  0.00    +0.023 HD
ATOM     74  H   UNL     1     148.225 161.205 186.171  0.00  0.00    +0.023 HD
ATOM     75  H   UNL     1     149.920 160.754 185.926  0.00  0.00    +0.023 HD
ENDBRANCH   7  72
BRANCH  25  76
ATOM     76  C   UNL     1     145.442 166.497 190.886  0.00  0.00    +0.020 C 
ATOM     77  H   UNL     1     144.685 166.789 190.152  0.00  0.00    +0.036 HD
BRANCH  76  78
ATOM     78  C   UNL     1     146.079 165.192 190.356  0.00  0.00    -0.057 C 
ATOM     79  H   UNL     1     146.193 164.449 191.148  0.00  0.00    +0.023 HD
ATOM     80  H   UNL     1     145.463 164.751 189.562  0.00  0.00    +0.023 HD
ATOM     81  H   UNL     1     147.077 165.355 189.945  0.00  0.00    +0.023 HD
ENDBRANCH  76  78
BRANCH  76  82
ATOM     82  C   UNL     1     144.764 166.182 192.262  0.00  0.00    +0.067 C 
ATOM     83  H   UNL     1     144.821 165.094 192.402  0.00  0.00    +0.060 HD
BRANCH  82  84
ATOM     84  C   UNL     1     143.254 166.594 192.318  0.00  0.00    -0.017 C 
ATOM     85  H   UNL     1     142.638 165.691 192.237  0.00  0.00    +0.032 HD
BRANCH  84  86
ATOM     86  C   UNL     1     142.936 167.217 193.687  0.00  0.00    -0.060 C 
ATOM     87  H   UNL     1     143.849 167.364 194.271  0.00  0.00    +0.023 HD
ATOM     88  H   UNL     1     142.287 166.562 194.278  0.00  0.00    +0.023 HD
ATOM     89  H   UNL     1     142.433 168.185 193.584  0.00  0.00    +0.023 HD
ENDBRANCH  84  86
BRANCH  84  90
ATOM     90  C   UNL     1     142.852 167.561 191.179  0.00  0.00    -0.041 C 
ATOM     91  H   UNL     1     141.861 167.302 190.794  0.00  0.00    +0.027 HD
ATOM     92  H   UNL     1     143.541 167.455 190.333  0.00  0.00    +0.027 HD
BRANCH  90  93
ATOM     93  C   UNL     1     142.811 169.023 191.618  0.00  0.00    +0.007 C 
ATOM     94  H   UNL     1     142.488 169.110 192.660  0.00  0.00    +0.034 HD
ATOM     95  H   UNL     1     143.803 169.486 191.558  0.00  0.00    +0.034 HD
BRANCH  93  96
ATOM     96  C   UNL     1     141.892 169.831 190.724  0.00  0.00    +0.139 C 
ATOM     97  O   UNL     1     140.771 169.401 190.437  0.00  0.00    -0.297 OA
BRANCH  96  98
ATOM     98  C   UNL     1     142.388 171.188 190.231  0.00  0.00    +0.041 C 
ATOM     99  H   UNL     1     141.502 171.755 189.919  0.00  0.00    +0.040 HD
BRANCH  98 100
ATOM    100  C   UNL     1     143.230 171.016 188.959  0.00  0.00    -0.053 C 
ATOM    101  H   UNL     1     143.541 171.984 188.551  0.00  0.00    +0.024 HD
ATOM    102  H   UNL     1     142.648 170.506 188.182  0.00  0.00    +0.024 HD
ATOM    103  H   UNL     1     144.127 170.416 189.141  0.00  0.00    +0.024 HD
ENDBRANCH  98 100
BRANCH  98 104
ATOM    104  C   UNL     1     143.100 172.006 191.335  0.00  0.00    +0.071 C 
ATOM    105  H   UNL     1     143.539 171.293 192.047  0.00  0.00    +0.061 HD
BRANCH 104 106
ATOM    106  C   UNL     1     144.206 172.960 190.813  0.00  0.00    -0.006 C 
ATOM    107  H   UNL     1     144.393 172.790 189.745  0.00  0.00    +0.033 HD
ATOM    108  H   UNL     1     143.871 174.001 190.879  0.00  0.00    +0.033 HD
BRANCH 106 109
ATOM    109  C   UNL     1     145.468 172.845 191.620  0.00  0.00    -0.067 C 
ATOM    110  C   UNL     1     146.556 173.598 191.409  0.00  0.00    -0.005 C 
ATOM    111  H   UNL     1     145.452 172.093 192.402  0.00  0.00    +0.059 HD
ATOM    112  H   UNL     1     146.518 174.363 190.634  0.00  0.00    +0.078 HD
BRANCH 110 113
ATOM    113  N   UNL     1     147.768 173.508 192.073  0.00  0.00    -0.284 N 
ATOM    114  C   UNL     1     147.954 173.721 193.437  0.00  0.00    +0.206 C 
ATOM    115  O   UNL     1     147.116 173.938 194.304  0.00  0.00    -0.279 OA
ATOM    116  H   UNL     1     149.019 173.650 193.720  0.00  0.00    +0.126 HD
BRANCH 113 117
ATOM    117  C   UNL     1     148.902 173.037 191.287  0.00  0.00    +0.007 C 
ATOM    118  H   UNL     1     149.779 172.973 191.940  0.00  0.00    +0.043 HD
ATOM    119  H   UNL     1     148.675 172.052 190.868  0.00  0.00    +0.043 HD
ATOM    120  H   UNL     1     149.136 173.722 190.467  0.00  0.00    +0.043 HD
ENDBRANCH 113 117
ENDBRANCH 110 113
ENDBRANCH 106 109
ENDBRANCH 104 106
BRANCH 104 121
ATOM    121  O   UNL     1     142.102 172.774 192.033  0.00  0.00    -0.379 OA
BRANCH 121 122
ATOM    122  C   UNL     1     141.286 173.557 191.169  0.00  0.00    +0.037 C 
ATOM    123  H   UNL     1     141.673 174.579 191.119  0.00  0.00    +0.052 HD
ATOM    124  H   UNL     1     141.236 173.134 190.160  0.00  0.00    +0.052 HD
ATOM    125  H   UNL     1     140.278 173.589 191.590  0.00  0.00    +0.052 HD
ENDBRANCH 121 122
ENDBRANCH 104 121
ENDBRANCH  98 104
ENDBRANCH  96  98
ENDBRANCH  93  96
ENDBRANCH  90  93
ENDBRANCH  84  90
ENDBRANCH  82  84
BRANCH  82 126
ATOM    126  O   UNL     1     145.431 166.837 193.338  0.00  0.00    -0.379 OA
BRANCH 126 127
ATOM    127  C   UNL     1     146.249 165.965 194.110  0.00  0.00    +0.037 C 
ATOM    128  H   UNL     1     145.730 165.009 194.207  0.00  0.00    +0.052 HD
ATOM    129  H   UNL     1     147.209 165.795 193.620  0.00  0.00    +0.052 HD
ATOM    130  H   UNL     1     146.408 166.377 195.112  0.00  0.00    +0.052 HD
ENDBRANCH 126 127
ENDBRANCH  82 126
ENDBRANCH  76  82
ENDBRANCH  25  76
BRANCH  31 131
ATOM    131  O   UNL     1     147.658 166.817 185.007  0.00  0.00    -0.379 OA
BRANCH 131 132
ATOM    132  C   UNL     1     148.697 167.522 185.675  0.00  0.00    +0.037 C 
ATOM    133  H   UNL     1     148.413 167.776 186.700  0.00  0.00    +0.052 HD
ATOM    134  H   UNL     1     149.581 166.878 185.710  0.00  0.00    +0.052 HD
ATOM    135  H   UNL     1     148.956 168.431 185.126  0.00  0.00    +0.052 HD
ENDBRANCH 131 132
ENDBRANCH  31 131
BRANCH  29 136
ATOM    136  O   UNL     1     144.175 168.759 185.711  0.00  0.00    -0.376 OA
BRANCH 136 137
ATOM    137  C   UNL     1     144.167 168.769 184.288  0.00  0.00    +0.037 C 
ATOM    138  H   UNL     1     145.155 169.031 183.895  0.00  0.00    +0.052 HD
ATOM    139  H   UNL     1     143.447 169.521 183.955  0.00  0.00    +0.052 HD
ATOM    140  H   UNL     1     143.855 167.792 183.901  0.00  0.00    +0.052 HD
ENDBRANCH 136 137
ENDBRANCH  29 136
BRANCH  16 141
ATOM    141  O   UNL     1     155.110 163.730 189.407  0.00  0.00    -0.379 OA
BRANCH 141 142
ATOM    142  C   UNL     1     156.164 162.827 189.723  0.00  0.00    +0.037 C 
ATOM    143  H   UNL     1     156.180 161.984 189.027  0.00  0.00    +0.052 HD
ATOM    144  H   UNL     1     157.110 163.363 189.628  0.00  0.00    +0.052 HD
ATOM    145  H   UNL     1     156.077 162.466 190.752  0.00  0.00    +0.052 HD
ENDBRANCH 141 142
ENDBRANCH  16 141
BRANCH   6 146
ATOM    146  O   UNL     1     147.571 159.236 189.547  0.00  0.00    -0.379 OA
BRANCH 146 147
ATOM    147  C   UNL     1     146.942 159.644 190.755  0.00  0.00    +0.037 C 
ATOM    148  H   UNL     1     147.577 160.326 191.329  0.00  0.00    +0.052 HD
ATOM    149  H   UNL     1     146.018 160.165 190.498  0.00  0.00    +0.052 HD
ATOM    150  H   UNL     1     146.687 158.771 191.364  0.00  0.00    +0.052 HD
ENDBRANCH 146 147
ENDBRANCH   6 146
BRANCH   4 151
ATOM    151  O   UNL     1     145.177 161.761 188.399  0.00  0.00    -0.376 OA
BRANCH 151 152
ATOM    152  C   UNL     1     143.952 162.403 188.736  0.00  0.00    +0.037 C 
ATOM    153  H   UNL     1     143.323 162.526 187.848  0.00  0.00    +0.052 HD
ATOM    154  H   UNL     1     143.419 161.767 189.450  0.00  0.00    +0.052 HD
ATOM    155  H   UNL     1     144.133 163.370 189.210  0.00  0.00    +0.052 HD
ENDBRANCH 151 152
ENDBRANCH   4 151
TORSDOF 33
ENDMDL
MODEL 4
REMARK VINA RESULT:      -4.9      3.543      6.836
REMARK  Name = Reidispongiolide A_conf2
REMARK  33 active torsions:
REMARK  status: ('A' for Active; 'I' for Inactive)
REMARK    1  A    between atoms: C_1  and  C_2
REMARK    2  A    between atoms: C_5  and  O_67
REMARK    3  A    between atoms: C_7  and  O_65
REMARK    4  A    between atoms: C_8  and  C_64
REMARK    5  A    between atoms: C_17  and  O_62
REMARK    6  A    between atoms: C_19  and  C_61
REMARK    7  A    between atoms: C_26  and  C_38
REMARK    8  A    between atoms: C_27  and  C_37
REMARK    9  A    between atoms: C_30  and  O_35
REMARK   10  A    between atoms: C_32  and  O_33
REMARK   11  A    between atoms: O_33  and  C_34
REMARK   12  A    between atoms: O_35  and  C_36
REMARK   13  A    between atoms: C_38  and  C_39
REMARK   14  A    between atoms: C_38  and  C_40
REMARK   15  A    between atoms: C_40  and  C_41
REMARK   16  A    between atoms: C_40  and  O_59
REMARK   17  A    between atoms: C_41  and  C_42
REMARK   18  A    between atoms: C_41  and  C_43
REMARK   19  A    between atoms: C_43  and  C_44
REMARK   20  A    between atoms: C_44  and  C_45
REMARK   21  A    between atoms: C_45  and  C_47
REMARK   22  A    between atoms: C_47  and  C_48
REMARK   23  A    between atoms: C_47  and  C_49
REMARK   24  A    between atoms: C_49  and  C_50
REMARK   25  A    between atoms: C_49  and  O_57
REMARK   26  A    between atoms: C_50  and  C_51
REMARK   27  A    between atoms: C_52  and  N_53
REMARK   28  A    between atoms: N_53  and  C_54
REMARK   29  A    between atoms: O_57  and  C_58
REMARK   30  A    between atoms: O_59  and  C_60
REMARK   31  A    between atoms: O_62  and  C_63
REMARK   32  A    between atoms: O_65  and  C_66
REMARK   33  A    between atoms: O_67  and  C_68
REMARK                            x       y       z     vdW  Elec       q    Type
REMARK                         _______ _______ _______ _____ _____    ______ ____
ROOT
ATOM      1  C   UNL     1     147.769 164.538 187.168  0.00  0.00    +0.001 C 
ATOM      2  C   UNL     1     147.948 163.518 188.280  0.00  0.00    -0.080 C 
ATOM      3  C   UNL     1     149.101 163.292 188.940  0.00  0.00    -0.059 C 
ATOM      4  C   UNL     1     149.352 162.291 190.041  0.00  0.00    +0.079 C 
ATOM      5  C   UNL     1     150.680 161.525 189.832  0.00  0.00    +0.004 C 
ATOM      6  C   UNL     1     150.615 160.292 188.909  0.00  0.00    +0.067 C 
ATOM      7  C   UNL     1     151.416 160.356 187.574  0.00  0.00    +0.020 C 
ATOM      8  C   UNL     1     152.969 160.482 187.592  0.00  0.00    +0.112 C 
ATOM      9  C   UNL     1     153.547 161.885 187.821  0.00  0.00    +0.006 C 
ATOM     10  C   UNL     1     155.047 161.840 187.822  0.00  0.00    -0.057 C 
ATOM     11  C   UNL     1     155.659 160.681 188.133  0.00  0.00    +0.022 C 
ATOM     12  C   UNL     1     154.916 159.478 188.568  0.00  0.00    +0.332 C 
ATOM     13  O   UNL     1     155.511 158.517 189.033  0.00  0.00    -0.246 OA
ATOM     14  O   UNL     1     153.562 159.533 188.490  0.00  0.00    -0.458 OA
ATOM     15  C   UNL     1     155.837 163.121 187.636  0.00  0.00    -0.004 C 
ATOM     16  C   UNL     1     155.785 163.830 186.259  0.00  0.00    +0.066 C 
ATOM     17  C   UNL     1     154.554 164.750 186.028  0.00  0.00    -0.005 C 
ATOM     18  C   UNL     1     154.144 165.645 187.191  0.00  0.00    -0.070 C 
ATOM     19  C   UNL     1     152.958 165.452 187.799  0.00  0.00    -0.062 C 
ATOM     20  C   UNL     1     152.400 166.134 188.942  0.00  0.00    -0.055 C 
ATOM     21  C   UNL     1     153.029 166.307 190.119  0.00  0.00    +0.023 C 
ATOM     22  C   UNL     1     152.365 166.864 191.322  0.00  0.00    +0.332 C 
ATOM     23  O   UNL     1     152.968 167.131 192.347  0.00  0.00    -0.246 OA
ATOM     24  O   UNL     1     151.031 166.945 191.126  0.00  0.00    -0.457 OA
ATOM     25  C   UNL     1     150.170 167.325 192.240  0.00  0.00    +0.114 C 
ATOM     26  C   UNL     1     149.366 168.564 191.743  0.00  0.00    +0.012 C 
ATOM     27  C   UNL     1     148.700 168.365 190.392  0.00  0.00    -0.079 C 
ATOM     28  C   UNL     1     147.417 168.007 190.228  0.00  0.00    -0.059 C 
ATOM     29  C   UNL     1     146.710 167.909 188.903  0.00  0.00    +0.079 C 
ATOM     30  C   UNL     1     146.639 166.466 188.386  0.00  0.00    +0.004 C 
ATOM     31  C   UNL     1     147.921 166.011 187.661  0.00  0.00    +0.067 C 
ATOM     32  H   UNL     1     146.744 164.417 186.790  0.00  0.00    +0.037 HD
ATOM     33  H   UNL     1     147.066 162.930 188.529  0.00  0.00    +0.057 HD
ATOM     34  H   UNL     1     149.956 163.915 188.695  0.00  0.00    +0.059 HD
ATOM     35  H   UNL     1     149.458 162.895 190.949  0.00  0.00    +0.064 HD
ATOM     36  H   UNL     1     151.432 162.239 189.500  0.00  0.00    +0.032 HD
ATOM     37  H   UNL     1     151.011 161.199 190.830  0.00  0.00    +0.032 HD
ATOM     38  H   UNL     1     149.563 160.105 188.652  0.00  0.00    +0.060 HD
ATOM     39  H   UNL     1     151.254 159.366 187.119  0.00  0.00    +0.036 HD
ATOM     40  H   UNL     1     153.287 160.173 186.581  0.00  0.00    +0.074 HD
ATOM     41  H   UNL     1     153.248 162.314 188.778  0.00  0.00    +0.035 HD
ATOM     42  H   UNL     1     153.195 162.533 187.018  0.00  0.00    +0.035 HD
ATOM     43  H   UNL     1     156.736 160.592 188.208  0.00  0.00    +0.069 HD
ATOM     44  H   UNL     1     156.894 162.900 187.843  0.00  0.00    +0.034 HD
ATOM     45  H   UNL     1     155.561 163.814 188.440  0.00  0.00    +0.034 HD
ATOM     46  H   UNL     1     155.794 163.058 185.476  0.00  0.00    +0.060 HD
ATOM     47  H   UNL     1     153.707 164.122 185.727  0.00  0.00    +0.034 HD
ATOM     48  H   UNL     1     154.729 165.407 185.163  0.00  0.00    +0.034 HD
ATOM     49  H   UNL     1     152.287 164.690 187.401  0.00  0.00    +0.062 HD
ATOM     50  H   UNL     1     151.352 166.413 188.832  0.00  0.00    +0.062 HD
ATOM     51  H   UNL     1     154.058 166.007 190.271  0.00  0.00    +0.069 HD
ATOM     52  H   UNL     1     150.780 167.623 193.103  0.00  0.00    +0.074 HD
ATOM     53  H   UNL     1     148.594 168.839 192.463  0.00  0.00    +0.038 HD
ATOM     54  H   UNL     1     149.315 168.562 189.518  0.00  0.00    +0.057 HD
ATOM     55  H   UNL     1     146.802 167.806 191.107  0.00  0.00    +0.059 HD
ATOM     56  H   UNL     1     147.185 168.554 188.152  0.00  0.00    +0.064 HD
ATOM     57  H   UNL     1     145.793 166.391 187.689  0.00  0.00    +0.032 HD
ATOM     58  H   UNL     1     146.413 165.787 189.216  0.00  0.00    +0.032 HD
ATOM     59  H   UNL     1     148.768 166.091 188.352  0.00  0.00    +0.060 HD
ENDROOT
BRANCH   1  60
ATOM     60  C   UNL     1     148.672 164.193 185.978  0.00  0.00    -0.057 C 
ATOM     61  H   UNL     1     148.981 165.100 185.448  0.00  0.00    +0.024 HD
ATOM     62  H   UNL     1     148.170 163.538 185.264  0.00  0.00    +0.024 HD
ATOM     63  H   UNL     1     149.589 163.693 186.309  0.00  0.00    +0.024 HD
ENDBRANCH   1  60
BRANCH  26  64
ATOM     64  C   UNL     1     150.292 169.789 191.650  0.00  0.00    -0.056 C 
ATOM     65  H   UNL     1     151.325 169.536 191.907  0.00  0.00    +0.024 HD
ATOM     66  H   UNL     1     149.955 170.578 192.331  0.00  0.00    +0.024 HD
ATOM     67  H   UNL     1     150.289 170.200 190.634  0.00  0.00    +0.024 HD
ENDBRANCH  26  64
BRANCH  18  68
ATOM     68  C   UNL     1     155.127 166.728 187.546  0.00  0.00    -0.043 C 
ATOM     69  H   UNL     1     155.334 167.355 186.668  0.00  0.00    +0.027 HD
ATOM     70  H   UNL     1     154.758 167.404 188.327  0.00  0.00    +0.027 HD
ATOM     71  H   UNL     1     156.072 166.296 187.893  0.00  0.00    +0.027 HD
ENDBRANCH  18  68
BRANCH   7  72
ATOM     72  C   UNL     1     150.788 161.353 186.600  0.00  0.00    -0.057 C 
ATOM     73  H   UNL     1     149.700 161.222 186.564  0.00  0.00    +0.023 HD
ATOM     74  H   UNL     1     151.169 161.198 185.582  0.00  0.00    +0.023 HD
ATOM     75  H   UNL     1     150.999 162.387 186.884  0.00  0.00    +0.023 HD
ENDBRANCH   7  72
BRANCH  25  76
ATOM     76  C   UNL     1     149.337 166.066 192.654  0.00  0.00    +0.020 C 
ATOM     77  H   UNL     1     148.306 166.236 192.329  0.00  0.00    +0.036 HD
BRANCH  76  78
ATOM     78  C   UNL     1     149.841 164.831 191.873  0.00  0.00    -0.057 C 
ATOM     79  H   UNL     1     149.418 163.904 192.269  0.00  0.00    +0.023 HD
ATOM     80  H   UNL     1     149.568 164.903 190.813  0.00  0.00    +0.023 HD
ATOM     81  H   UNL     1     150.925 164.719 191.927  0.00  0.00    +0.023 HD
ENDBRANCH  76  78
BRANCH  76  82
ATOM     82  C   UNL     1     149.368 165.721 194.181  0.00  0.00    +0.067 C 
ATOM     83  H   UNL     1     149.636 164.659 194.261  0.00  0.00    +0.060 HD
BRANCH  82  84
ATOM     84  C   UNL     1     147.988 165.922 194.891  0.00  0.00    -0.017 C 
ATOM     85  H   UNL     1     147.554 164.939 195.106  0.00  0.00    +0.032 HD
BRANCH  84  86
ATOM     86  C   UNL     1     148.198 166.612 196.250  0.00  0.00    -0.060 C 
ATOM     87  H   UNL     1     148.489 167.658 196.116  0.00  0.00    +0.023 HD
ATOM     88  H   UNL     1     149.002 166.131 196.817  0.00  0.00    +0.023 HD
ATOM     89  H   UNL     1     147.290 166.583 196.863  0.00  0.00    +0.023 HD
ENDBRANCH  84  86
BRANCH  84  90
ATOM     90  C   UNL     1     146.980 166.722 194.032  0.00  0.00    -0.041 C 
ATOM     91  H   UNL     1     147.372 166.861 193.019  0.00  0.00    +0.027 HD
ATOM     92  H   UNL     1     146.849 167.730 194.444  0.00  0.00    +0.027 HD
BRANCH  90  93
ATOM     93  C   UNL     1     145.619 166.042 193.912  0.00  0.00    +0.007 C 
ATOM     94  H   UNL     1     145.704 164.963 194.071  0.00  0.00    +0.034 HD
ATOM     95  H   UNL     1     144.918 166.416 194.668  0.00  0.00    +0.034 HD
BRANCH  93  96
ATOM     96  C   UNL     1     144.994 166.315 192.558  0.00  0.00    +0.139 C 
ATOM     97  O   UNL     1     145.486 165.824 191.539  0.00  0.00    -0.297 OA
BRANCH  96  98
ATOM     98  C   UNL     1     143.737 167.180 192.515  0.00  0.00    +0.041 C 
ATOM     99  H   UNL     1     144.062 168.219 192.661  0.00  0.00    +0.040 HD
BRANCH  98 100
ATOM    100  C   UNL     1     142.831 166.865 193.713  0.00  0.00    -0.053 C 
ATOM    101  H   UNL     1     141.915 166.352 193.399  0.00  0.00    +0.024 HD
ATOM    102  H   UNL     1     142.531 167.790 194.219  0.00  0.00    +0.024 HD
ATOM    103  H   UNL     1     143.339 166.239 194.454  0.00  0.00    +0.024 HD
ENDBRANCH  98 100
BRANCH  98 104
ATOM    104  C   UNL     1     143.004 167.109 191.153  0.00  0.00    +0.071 C 
ATOM    105  H   UNL     1     143.732 167.364 190.369  0.00  0.00    +0.061 HD
BRANCH 104 106
ATOM    106  C   UNL     1     142.371 165.729 190.838  0.00  0.00    -0.006 C 
ATOM    107  H   UNL     1     142.494 165.043 191.686  0.00  0.00    +0.033 HD
ATOM    108  H   UNL     1     141.287 165.829 190.712  0.00  0.00    +0.033 HD
BRANCH 106 109
ATOM    109  C   UNL     1     142.916 165.141 189.568  0.00  0.00    -0.067 C 
ATOM    110  C   UNL     1     142.603 163.918 189.120  0.00  0.00    -0.005 C 
ATOM    111  H   UNL     1     143.603 165.777 189.020  0.00  0.00    +0.059 HD
ATOM    112  H   UNL     1     141.885 163.324 189.685  0.00  0.00    +0.078 HD
BRANCH 110 113
ATOM    113  N   UNL     1     143.109 163.293 187.993  0.00  0.00    -0.284 N 
ATOM    114  C   UNL     1     144.054 162.269 187.999  0.00  0.00    +0.206 C 
ATOM    115  O   UNL     1     144.546 161.681 188.955  0.00  0.00    -0.279 OA
ATOM    116  H   UNL     1     144.345 161.976 186.975  0.00  0.00    +0.126 HD
BRANCH 113 117
ATOM    117  C   UNL     1     142.507 163.669 186.719  0.00  0.00    +0.007 C 
ATOM    118  H   UNL     1     142.994 164.579 186.356  0.00  0.00    +0.043 HD
ATOM    119  H   UNL     1     142.641 162.859 185.997  0.00  0.00    +0.043 HD
ATOM    120  H   UNL     1     141.437 163.873 186.824  0.00  0.00    +0.043 HD
ENDBRANCH 113 117
ENDBRANCH 110 113
ENDBRANCH 106 109
ENDBRANCH 104 106
BRANCH 104 121
ATOM    121  O   UNL     1     141.975 168.116 191.148  0.00  0.00    -0.379 OA
BRANCH 121 122
ATOM    122  C   UNL     1     142.476 169.436 190.967  0.00  0.00    +0.037 C 
ATOM    123  H   UNL     1     142.956 169.519 189.987  0.00  0.00    +0.052 HD
ATOM    124  H   UNL     1     141.686 170.188 191.055  0.00  0.00    +0.052 HD
ATOM    125  H   UNL     1     143.228 169.622 191.737  0.00  0.00    +0.052 HD
ENDBRANCH 121 122
ENDBRANCH 104 121
ENDBRANCH  98 104
ENDBRANCH  96  98
ENDBRANCH  93  96
ENDBRANCH  90  93
ENDBRANCH  84  90
ENDBRANCH  82  84
BRANCH  82 126
ATOM    126  O   UNL     1     150.332 166.509 194.878  0.00  0.00    -0.379 OA
BRANCH 126 127
ATOM    127  C   UNL     1     151.478 165.769 195.285  0.00  0.00    +0.037 C 
ATOM    128  H   UNL     1     151.435 165.644 196.369  0.00  0.00    +0.052 HD
ATOM    129  H   UNL     1     151.491 164.782 194.818  0.00  0.00    +0.052 HD
ATOM    130  H   UNL     1     152.394 166.314 195.034  0.00  0.00    +0.052 HD
ENDBRANCH 126 127
ENDBRANCH  82 126
ENDBRANCH  76  82
ENDBRANCH  25  76
BRANCH  31 131
ATOM    131  O   UNL     1     148.115 166.886 186.538  0.00  0.00    -0.379 OA
BRANCH 131 132
ATOM    132  C   UNL     1     149.377 167.544 186.543  0.00  0.00    +0.037 C 
ATOM    133  H   UNL     1     149.521 168.137 185.636  0.00  0.00    +0.052 HD
ATOM    134  H   UNL     1     149.409 168.216 187.406  0.00  0.00    +0.052 HD
ATOM    135  H   UNL     1     150.186 166.816 186.643  0.00  0.00    +0.052 HD
ENDBRANCH 131 132
ENDBRANCH  31 131
BRANCH  29 136
ATOM    136  O   UNL     1     145.360 168.347 189.121  0.00  0.00    -0.376 OA
BRANCH 136 137
ATOM    137  C   UNL     1     144.575 168.296 187.936  0.00  0.00    +0.037 C 
ATOM    138  H   UNL     1     144.434 167.261 187.606  0.00  0.00    +0.052 HD
ATOM    139  H   UNL     1     145.102 168.845 187.151  0.00  0.00    +0.052 HD
ATOM    140  H   UNL     1     143.602 168.774 188.102  0.00  0.00    +0.052 HD
ENDBRANCH 136 137
ENDBRANCH  29 136
BRANCH  16 141
ATOM    141  O   UNL     1     157.003 164.592 186.146  0.00  0.00    -0.379 OA
BRANCH 141 142
ATOM    142  C   UNL     1     157.995 164.250 187.108  0.00  0.00    +0.037 C 
ATOM    143  H   UNL     1     158.998 164.313 186.677  0.00  0.00    +0.052 HD
ATOM    144  H   UNL     1     157.934 164.967 187.928  0.00  0.00    +0.052 HD
ATOM    145  H   UNL     1     157.821 163.249 187.514  0.00  0.00    +0.052 HD
ENDBRANCH 141 142
ENDBRANCH  16 141
BRANCH   6 146
ATOM    146  O   UNL     1     151.076 159.186 189.706  0.00  0.00    -0.379 OA
BRANCH 146 147
ATOM    147  C   UNL     1     150.152 158.107 189.785  0.00  0.00    +0.037 C 
ATOM    148  H   UNL     1     149.973 157.658 188.804  0.00  0.00    +0.052 HD
ATOM    149  H   UNL     1     150.574 157.344 190.443  0.00  0.00    +0.052 HD
ATOM    150  H   UNL     1     149.205 158.448 190.216  0.00  0.00    +0.052 HD
ENDBRANCH 146 147
ENDBRANCH   6 146
BRANCH   4 151
ATOM    151  O   UNL     1     148.226 161.433 190.209  0.00  0.00    -0.376 OA
BRANCH 151 152
ATOM    152  C   UNL     1     148.191 160.798 191.483  0.00  0.00    +0.037 C 
ATOM    153  H   UNL     1     148.561 159.770 191.413  0.00  0.00    +0.052 HD
ATOM    154  H   UNL     1     148.846 161.355 192.159  0.00  0.00    +0.052 HD
ATOM    155  H   UNL     1     147.180 160.810 191.899  0.00  0.00    +0.052 HD
ENDBRANCH 151 152
ENDBRANCH   4 151
TORSDOF 33
ENDMDL
MODEL 5
REMARK VINA RESULT:      -4.8      2.890      4.894
REMARK  Name = Reidispongiolide A_conf2
REMARK  33 active torsions:
REMARK  status: ('A' for Active; 'I' for Inactive)
REMARK    1  A    between atoms: C_1  and  C_2
REMARK    2  A    between atoms: C_5  and  O_67
REMARK    3  A    between atoms: C_7  and  O_65
REMARK    4  A    between atoms: C_8  and  C_64
REMARK    5  A    between atoms: C_17  and  O_62
REMARK    6  A    between atoms: C_19  and  C_61
REMARK    7  A    between atoms: C_26  and  C_38
REMARK    8  A    between atoms: C_27  and  C_37
REMARK    9  A    between atoms: C_30  and  O_35
REMARK   10  A    between atoms: C_32  and  O_33
REMARK   11  A    between atoms: O_33  and  C_34
REMARK   12  A    between atoms: O_35  and  C_36
REMARK   13  A    between atoms: C_38  and  C_39
REMARK   14  A    between atoms: C_38  and  C_40
REMARK   15  A    between atoms: C_40  and  C_41
REMARK   16  A    between atoms: C_40  and  O_59
REMARK   17  A    between atoms: C_41  and  C_42
REMARK   18  A    between atoms: C_41  and  C_43
REMARK   19  A    between atoms: C_43  and  C_44
REMARK   20  A    between atoms: C_44  and  C_45
REMARK   21  A    between atoms: C_45  and  C_47
REMARK   22  A    between atoms: C_47  and  C_48
REMARK   23  A    between atoms: C_47  and  C_49
REMARK   24  A    between atoms: C_49  and  C_50
REMARK   25  A    between atoms: C_49  and  O_57
REMARK   26  A    between atoms: C_50  and  C_51
REMARK   27  A    between atoms: C_52  and  N_53
REMARK   28  A    between atoms: N_53  and  C_54
REMARK   29  A    between atoms: O_57  and  C_58
REMARK   30  A    between atoms: O_59  and  C_60
REMARK   31  A    between atoms: O_62  and  C_63
REMARK   32  A    between atoms: O_65  and  C_66
REMARK   33  A    between atoms: O_67  and  C_68
REMARK                            x       y       z     vdW  Elec       q    Type
REMARK                         _______ _______ _______ _____ _____    ______ ____
ROOT
ATOM      1  C   UNL     1     148.214 164.945 186.132  0.00  0.00    +0.001 C 
ATOM      2  C   UNL     1     147.954 163.829 187.130  0.00  0.00    -0.080 C 
ATOM      3  C   UNL     1     148.821 163.428 188.080  0.00  0.00    -0.059 C 
ATOM      4  C   UNL     1     148.634 162.324 189.093  0.00  0.00    +0.079 C 
ATOM      5  C   UNL     1     149.895 161.436 189.215  0.00  0.00    +0.004 C 
ATOM      6  C   UNL     1     150.023 160.292 188.190  0.00  0.00    +0.067 C 
ATOM      7  C   UNL     1     151.204 160.370 187.177  0.00  0.00    +0.020 C 
ATOM      8  C   UNL     1     152.677 160.324 187.679  0.00  0.00    +0.112 C 
ATOM      9  C   UNL     1     153.266 161.634 188.221  0.00  0.00    +0.006 C 
ATOM     10  C   UNL     1     154.682 161.426 188.673  0.00  0.00    -0.057 C 
ATOM     11  C   UNL     1     155.070 160.186 189.029  0.00  0.00    +0.022 C 
ATOM     12  C   UNL     1     154.135 159.042 189.087  0.00  0.00    +0.332 C 
ATOM     13  O   UNL     1     154.476 157.988 189.605  0.00  0.00    -0.246 OA
ATOM     14  O   UNL     1     152.882 159.250 188.607  0.00  0.00    -0.458 OA
ATOM     15  C   UNL     1     155.591 162.623 188.873  0.00  0.00    -0.004 C 
ATOM     16  C   UNL     1     156.028 163.437 187.630  0.00  0.00    +0.066 C 
ATOM     17  C   UNL     1     155.009 164.502 187.136  0.00  0.00    -0.005 C 
ATOM     18  C   UNL     1     154.329 165.344 188.208  0.00  0.00    -0.070 C 
ATOM     19  C   UNL     1     153.001 165.235 188.403  0.00  0.00    -0.062 C 
ATOM     20  C   UNL     1     152.170 165.884 189.388  0.00  0.00    -0.055 C 
ATOM     21  C   UNL     1     152.411 165.897 190.712  0.00  0.00    +0.023 C 
ATOM     22  C   UNL     1     151.451 166.429 191.709  0.00  0.00    +0.332 C 
ATOM     23  O   UNL     1     151.723 166.549 192.891  0.00  0.00    -0.246 OA
ATOM     24  O   UNL     1     150.257 166.669 191.127  0.00  0.00    -0.457 OA
ATOM     25  C   UNL     1     149.124 167.055 191.960  0.00  0.00    +0.114 C 
ATOM     26  C   UNL     1     148.617 168.408 191.378  0.00  0.00    +0.012 C 
ATOM     27  C   UNL     1     148.393 168.388 189.876  0.00  0.00    -0.079 C 
ATOM     28  C   UNL     1     147.201 168.186 189.293  0.00  0.00    -0.059 C 
ATOM     29  C   UNL     1     146.939 168.268 187.813  0.00  0.00    +0.079 C 
ATOM     30  C   UNL     1     146.918 166.886 187.149  0.00  0.00    +0.004 C 
ATOM     31  C   UNL     1     148.322 166.350 186.802  0.00  0.00    +0.067 C 
ATOM     32  H   UNL     1     147.352 164.966 185.449  0.00  0.00    +0.037 HD
ATOM     33  H   UNL     1     146.994 163.324 187.035  0.00  0.00    +0.057 HD
ATOM     34  H   UNL     1     149.757 163.971 188.175  0.00  0.00    +0.059 HD
ATOM     35  H   UNL     1     148.498 162.842 190.048  0.00  0.00    +0.064 HD
ATOM     36  H   UNL     1     150.767 162.087 189.206  0.00  0.00    +0.032 HD
ATOM     37  H   UNL     1     149.869 161.000 190.227  0.00  0.00    +0.032 HD
ATOM     38  H   UNL     1     149.092 160.242 187.608  0.00  0.00    +0.060 HD
ATOM     39  H   UNL     1     151.113 159.442 186.591  0.00  0.00    +0.036 HD
ATOM     40  H   UNL     1     153.270 160.061 186.785  0.00  0.00    +0.074 HD
ATOM     41  H   UNL     1     152.718 162.018 189.082  0.00  0.00    +0.035 HD
ATOM     42  H   UNL     1     153.235 162.377 187.423  0.00  0.00    +0.035 HD
ATOM     43  H   UNL     1     156.059 159.975 189.418  0.00  0.00    +0.069 HD
ATOM     44  H   UNL     1     156.508 162.272 189.367  0.00  0.00    +0.034 HD
ATOM     45  H   UNL     1     155.133 163.278 189.625  0.00  0.00    +0.034 HD
ATOM     46  H   UNL     1     156.220 162.731 186.808  0.00  0.00    +0.060 HD
ATOM     47  H   UNL     1     154.251 163.994 186.526  0.00  0.00    +0.034 HD
ATOM     48  H   UNL     1     155.497 165.199 186.440  0.00  0.00    +0.034 HD
ATOM     49  H   UNL     1     152.429 164.584 187.741  0.00  0.00    +0.062 HD
ATOM     50  H   UNL     1     151.235 166.284 188.995  0.00  0.00    +0.062 HD
ATOM     51  H   UNL     1     153.314 165.475 191.137  0.00  0.00    +0.069 HD
ATOM     52  H   UNL     1     149.455 167.218 192.995  0.00  0.00    +0.074 HD
ATOM     53  H   UNL     1     147.684 168.710 191.855  0.00  0.00    +0.038 HD
ATOM     54  H   UNL     1     149.265 168.583 189.256  0.00  0.00    +0.057 HD
ATOM     55  H   UNL     1     146.329 167.987 189.917  0.00  0.00    +0.059 HD
ATOM     56  H   UNL     1     147.675 168.913 187.315  0.00  0.00    +0.064 HD
ATOM     57  H   UNL     1     146.329 166.958 186.223  0.00  0.00    +0.032 HD
ATOM     58  H   UNL     1     146.390 166.174 187.792  0.00  0.00    +0.032 HD
ATOM     59  H   UNL     1     148.914 166.284 187.722  0.00  0.00    +0.060 HD
ENDROOT
BRANCH   1  60
ATOM     60  C   UNL     1     149.413 164.596 185.243  0.00  0.00    -0.057 C 
ATOM     61  H   UNL     1     150.338 165.014 185.654  0.00  0.00    +0.024 HD
ATOM     62  H   UNL     1     149.290 164.979 184.227  0.00  0.00    +0.024 HD
ATOM     63  H   UNL     1     149.557 163.511 185.180  0.00  0.00    +0.024 HD
ENDBRANCH   1  60
BRANCH  26  64
ATOM     64  C   UNL     1     149.621 169.528 191.702  0.00  0.00    -0.056 C 
ATOM     65  H   UNL     1     150.593 169.127 192.004  0.00  0.00    +0.024 HD
ATOM     66  H   UNL     1     149.245 170.158 192.517  0.00  0.00    +0.024 HD
ATOM     67  H   UNL     1     149.780 170.171 190.829  0.00  0.00    +0.024 HD
ENDBRANCH  26  64
BRANCH  18  68
ATOM     68  C   UNL     1     155.235 166.283 188.958  0.00  0.00    -0.043 C 
ATOM     69  H   UNL     1     156.174 165.776 189.219  0.00  0.00    +0.027 HD
ATOM     70  H   UNL     1     155.514 167.168 188.374  0.00  0.00    +0.027 HD
ATOM     71  H   UNL     1     154.758 166.626 189.883  0.00  0.00    +0.027 HD
ENDBRANCH  18  68
BRANCH   7  72
ATOM     72  C   UNL     1     150.993 161.503 186.170  0.00  0.00    -0.057 C 
ATOM     73  H   UNL     1     150.692 161.100 185.196  0.00  0.00    +0.023 HD
ATOM     74  H   UNL     1     151.923 162.067 186.017  0.00  0.00    +0.023 HD
ATOM     75  H   UNL     1     150.225 162.204 186.502  0.00  0.00    +0.023 HD
ENDBRANCH   7  72
BRANCH  25  76
ATOM     76  C   UNL     1     148.105 165.866 191.966  0.00  0.00    +0.020 C 
ATOM     77  H   UNL     1     147.703 165.778 190.951  0.00  0.00    +0.036 HD
BRANCH  76  78
ATOM     78  C   UNL     1     148.853 164.544 192.253  0.00  0.00    -0.057 C 
ATOM     79  H   UNL     1     149.027 163.973 191.338  0.00  0.00    +0.023 HD
ATOM     80  H   UNL     1     149.825 164.739 192.721  0.00  0.00    +0.023 HD
ATOM     81  H   UNL     1     148.293 163.887 192.921  0.00  0.00    +0.023 HD
ENDBRANCH  76  78
BRANCH  76  82
ATOM     82  C   UNL     1     146.935 165.997 192.997  0.00  0.00    +0.067 C 
ATOM     83  H   UNL     1     146.790 165.002 193.440  0.00  0.00    +0.060 HD
BRANCH  82  84
ATOM     84  C   UNL     1     145.580 166.435 192.347  0.00  0.00    -0.017 C 
ATOM     85  H   UNL     1     145.627 167.506 192.120  0.00  0.00    +0.032 HD
BRANCH  84  86
ATOM     86  C   UNL     1     145.390 165.711 191.004  0.00  0.00    -0.060 C 
ATOM     87  H   UNL     1     146.000 164.805 190.958  0.00  0.00    +0.023 HD
ATOM     88  H   UNL     1     145.702 166.345 190.167  0.00  0.00    +0.023 HD
ATOM     89  H   UNL     1     144.343 165.430 190.841  0.00  0.00    +0.023 HD
ENDBRANCH  84  86
BRANCH  84  90
ATOM     90  C   UNL     1     144.363 166.187 193.270  0.00  0.00    -0.041 C 
ATOM     91  H   UNL     1     144.695 166.016 194.299  0.00  0.00    +0.027 HD
ATOM     92  H   UNL     1     143.841 165.271 192.967  0.00  0.00    +0.027 HD
BRANCH  90  93
ATOM     93  C   UNL     1     143.374 167.350 193.289  0.00  0.00    +0.007 C 
ATOM     94  H   UNL     1     142.914 167.457 194.276  0.00  0.00    +0.034 HD
ATOM     95  H   UNL     1     143.873 168.301 193.070  0.00  0.00    +0.034 HD
BRANCH  93  96
ATOM     96  C   UNL     1     142.299 167.164 192.237  0.00  0.00    +0.139 C 
ATOM     97  O   UNL     1     141.517 166.212 192.312  0.00  0.00    -0.297 OA
BRANCH  96  98
ATOM     98  C   UNL     1     142.205 168.202 191.122  0.00  0.00    +0.041 C 
ATOM     99  H   UNL     1     141.147 168.483 191.038  0.00  0.00    +0.040 HD
BRANCH  98 100
ATOM    100  C   UNL     1     142.564 167.566 189.772  0.00  0.00    -0.053 C 
ATOM    101  H   UNL     1     143.591 167.808 189.475  0.00  0.00    +0.024 HD
ATOM    102  H   UNL     1     141.901 167.941 188.984  0.00  0.00    +0.024 HD
ATOM    103  H   UNL     1     142.461 166.477 189.793  0.00  0.00    +0.024 HD
ENDBRANCH  98 100
BRANCH  98 104
ATOM    104  C   UNL     1     143.006 169.490 191.429  0.00  0.00    +0.071 C 
ATOM    105  H   UNL     1     143.221 169.499 192.507  0.00  0.00    +0.061 HD
BRANCH 104 106
ATOM    106  C   UNL     1     144.333 169.623 190.638  0.00  0.00    -0.006 C 
ATOM    107  H   UNL     1     145.049 168.850 190.946  0.00  0.00    +0.033 HD
ATOM    108  H   UNL     1     144.160 169.438 189.572  0.00  0.00    +0.033 HD
BRANCH 106 109
ATOM    109  C   UNL     1     144.922 171.000 190.762  0.00  0.00    -0.067 C 
ATOM    110  C   UNL     1     146.207 171.236 191.055  0.00  0.00    -0.005 C 
ATOM    111  H   UNL     1     144.226 171.817 190.602  0.00  0.00    +0.059 HD
ATOM    112  H   UNL     1     146.878 170.386 191.177  0.00  0.00    +0.078 HD
BRANCH 110 113
ATOM    113  N   UNL     1     146.802 172.473 191.240  0.00  0.00    -0.284 N 
ATOM    114  C   UNL     1     147.583 172.832 192.336  0.00  0.00    +0.206 C 
ATOM    115  O   UNL     1     147.957 172.140 193.274  0.00  0.00    -0.279 OA
ATOM    116  H   UNL     1     147.895 173.890 192.285  0.00  0.00    +0.126 HD
BRANCH 113 117
ATOM    117  C   UNL     1     146.686 173.417 190.134  0.00  0.00    +0.007 C 
ATOM    118  H   UNL     1     147.669 173.866 189.953  0.00  0.00    +0.043 HD
ATOM    119  H   UNL     1     146.343 172.893 189.238  0.00  0.00    +0.043 HD
ATOM    120  H   UNL     1     145.981 174.221 190.364  0.00  0.00    +0.043 HD
ENDBRANCH 113 117
ENDBRANCH 110 113
ENDBRANCH 106 109
ENDBRANCH 104 106
BRANCH 104 121
ATOM    121  O   UNL     1     142.163 170.620 191.134  0.00  0.00    -0.379 OA
BRANCH 121 122
ATOM    122  C   UNL     1     140.863 170.252 190.686  0.00  0.00    +0.037 C 
ATOM    123  H   UNL     1     140.209 171.129 190.688  0.00  0.00    +0.052 HD
ATOM    124  H   UNL     1     140.887 169.813 189.683  0.00  0.00    +0.052 HD
ATOM    125  H   UNL     1     140.458 169.516 191.385  0.00  0.00    +0.052 HD
ENDBRANCH 121 122
ENDBRANCH 104 121
ENDBRANCH  98 104
ENDBRANCH  96  98
ENDBRANCH  93  96
ENDBRANCH  90  93
ENDBRANCH  84  90
ENDBRANCH  82  84
BRANCH  82 126
ATOM    126  O   UNL     1     147.245 166.936 194.026  0.00  0.00    -0.379 OA
BRANCH 126 127
ATOM    127  C   UNL     1     147.760 166.330 195.206  0.00  0.00    +0.037 C 
ATOM    128  H   UNL     1     147.403 165.298 195.243  0.00  0.00    +0.052 HD
ATOM    129  H   UNL     1     148.851 166.324 195.197  0.00  0.00    +0.052 HD
ATOM    130  H   UNL     1     147.396 166.855 196.095  0.00  0.00    +0.052 HD
ENDBRANCH 126 127
ENDBRANCH  82 126
ENDBRANCH  76  82
ENDBRANCH  25  76
BRANCH  31 131
ATOM    131  O   UNL     1     148.926 167.282 185.891  0.00  0.00    -0.379 OA
BRANCH 131 132
ATOM    132  C   UNL     1     148.038 167.747 184.882  0.00  0.00    +0.037 C 
ATOM    133  H   UNL     1     147.126 167.145 184.845  0.00  0.00    +0.052 HD
ATOM    134  H   UNL     1     147.764 168.780 185.116  0.00  0.00    +0.052 HD
ATOM    135  H   UNL     1     148.531 167.735 183.906  0.00  0.00    +0.052 HD
ENDBRANCH 131 132
ENDBRANCH  31 131
BRANCH  29 136
ATOM    136  O   UNL     1     145.629 168.833 187.657  0.00  0.00    -0.376 OA
BRANCH 136 137
ATOM    137  C   UNL     1     145.663 170.129 187.070  0.00  0.00    +0.037 C 
ATOM    138  H   UNL     1     146.167 170.842 187.730  0.00  0.00    +0.052 HD
ATOM    139  H   UNL     1     144.633 170.463 186.915  0.00  0.00    +0.052 HD
ATOM    140  H   UNL     1     146.169 170.095 186.098  0.00  0.00    +0.052 HD
ENDBRANCH 136 137
ENDBRANCH  29 136
BRANCH  16 141
ATOM    141  O   UNL     1     157.278 164.068 187.974  0.00  0.00    -0.379 OA
BRANCH 141 142
ATOM    142  C   UNL     1     157.944 164.676 186.873  0.00  0.00    +0.037 C 
ATOM    143  H   UNL     1     158.098 165.744 187.049  0.00  0.00    +0.052 HD
ATOM    144  H   UNL     1     158.923 164.206 186.766  0.00  0.00    +0.052 HD
ATOM    145  H   UNL     1     157.387 164.524 185.943  0.00  0.00    +0.052 HD
ENDBRANCH 141 142
ENDBRANCH  16 141
BRANCH   6 146
ATOM    146  O   UNL     1     150.121 159.084 188.966  0.00  0.00    -0.379 OA
BRANCH 146 147
ATOM    147  C   UNL     1     150.127 159.301 190.372  0.00  0.00    +0.037 C 
ATOM    148  H   UNL     1     149.814 158.407 190.919  0.00  0.00    +0.052 HD
ATOM    149  H   UNL     1     151.146 159.553 190.674  0.00  0.00    +0.052 HD
ATOM    150  H   UNL     1     149.474 160.142 190.629  0.00  0.00    +0.052 HD
ENDBRANCH 146 147
ENDBRANCH   6 146
BRANCH   4 151
ATOM    151  O   UNL     1     147.446 161.584 188.817  0.00  0.00    -0.376 OA
BRANCH 151 152
ATOM    152  C   UNL     1     146.855 161.022 189.984  0.00  0.00    +0.037 C 
ATOM    153  H   UNL     1     146.514 161.810 190.663  0.00  0.00    +0.052 HD
ATOM    154  H   UNL     1     145.986 160.433 189.676  0.00  0.00    +0.052 HD
ATOM    155  H   UNL     1     147.555 160.356 190.496  0.00  0.00    +0.052 HD
ENDBRANCH 151 152
ENDBRANCH   4 151
TORSDOF 33
ENDMDL
MODEL 6
REMARK VINA RESULT:      -4.8      1.400      1.823
REMARK  Name = Reidispongiolide A_conf2
REMARK  33 active torsions:
REMARK  status: ('A' for Active; 'I' for Inactive)
REMARK    1  A    between atoms: C_1  and  C_2
REMARK    2  A    between atoms: C_5  and  O_67
REMARK    3  A    between atoms: C_7  and  O_65
REMARK    4  A    between atoms: C_8  and  C_64
REMARK    5  A    between atoms: C_17  and  O_62
REMARK    6  A    between atoms: C_19  and  C_61
REMARK    7  A    between atoms: C_26  and  C_38
REMARK    8  A    between atoms: C_27  and  C_37
REMARK    9  A    between atoms: C_30  and  O_35
REMARK   10  A    between atoms: C_32  and  O_33
REMARK   11  A    between atoms: O_33  and  C_34
REMARK   12  A    between atoms: O_35  and  C_36
REMARK   13  A    between atoms: C_38  and  C_39
REMARK   14  A    between atoms: C_38  and  C_40
REMARK   15  A    between atoms: C_40  and  C_41
REMARK   16  A    between atoms: C_40  and  O_59
REMARK   17  A    between atoms: C_41  and  C_42
REMARK   18  A    between atoms: C_41  and  C_43
REMARK   19  A    between atoms: C_43  and  C_44
REMARK   20  A    between atoms: C_44  and  C_45
REMARK   21  A    between atoms: C_45  and  C_47
REMARK   22  A    between atoms: C_47  and  C_48
REMARK   23  A    between atoms: C_47  and  C_49
REMARK   24  A    between atoms: C_49  and  C_50
REMARK   25  A    between atoms: C_49  and  O_57
REMARK   26  A    between atoms: C_50  and  C_51
REMARK   27  A    between atoms: C_52  and  N_53
REMARK   28  A    between atoms: N_53  and  C_54
REMARK   29  A    between atoms: O_57  and  C_58
REMARK   30  A    between atoms: O_59  and  C_60
REMARK   31  A    between atoms: O_62  and  C_63
REMARK   32  A    between atoms: O_65  and  C_66
REMARK   33  A    between atoms: O_67  and  C_68
REMARK                            x       y       z     vdW  Elec       q    Type
REMARK                         _______ _______ _______ _____ _____    ______ ____
ROOT
ATOM      1  C   UNL     1     147.423 164.915 185.414  0.00  0.00    +0.001 C 
ATOM      2  C   UNL     1     146.204 164.299 186.079  0.00  0.00    -0.080 C 
ATOM      3  C   UNL     1     146.232 163.553 187.200  0.00  0.00    -0.059 C 
ATOM      4  C   UNL     1     145.066 162.904 187.905  0.00  0.00    +0.079 C 
ATOM      5  C   UNL     1     145.385 161.449 188.326  0.00  0.00    +0.004 C 
ATOM      6  C   UNL     1     145.165 160.367 187.250  0.00  0.00    +0.067 C 
ATOM      7  C   UNL     1     146.424 159.604 186.738  0.00  0.00    +0.020 C 
ATOM      8  C   UNL     1     147.261 158.721 187.710  0.00  0.00    +0.112 C 
ATOM      9  C   UNL     1     148.266 159.447 188.614  0.00  0.00    +0.006 C 
ATOM     10  C   UNL     1     148.983 158.466 189.495  0.00  0.00    -0.057 C 
ATOM     11  C   UNL     1     148.386 157.292 189.775  0.00  0.00    +0.022 C 
ATOM     12  C   UNL     1     147.013 156.969 189.329  0.00  0.00    +0.332 C 
ATOM     13  O   UNL     1     146.434 155.987 189.769  0.00  0.00    -0.246 OA
ATOM     14  O   UNL     1     146.422 157.848 188.479  0.00  0.00    -0.458 OA
ATOM     15  C   UNL     1     150.274 158.874 190.179  0.00  0.00    -0.004 C 
ATOM     16  C   UNL     1     151.529 159.120 189.304  0.00  0.00    +0.066 C 
ATOM     17  C   UNL     1     151.624 160.526 188.651  0.00  0.00    -0.005 C 
ATOM     18  C   UNL     1     151.253 161.713 189.531  0.00  0.00    -0.070 C 
ATOM     19  C   UNL     1     150.171 162.458 189.231  0.00  0.00    -0.062 C 
ATOM     20  C   UNL     1     149.609 163.575 189.949  0.00  0.00    -0.055 C 
ATOM     21  C   UNL     1     149.302 163.575 191.260  0.00  0.00    +0.023 C 
ATOM     22  C   UNL     1     148.574 164.680 191.926  0.00  0.00    +0.332 C 
ATOM     23  O   UNL     1     148.406 164.730 193.132  0.00  0.00    -0.246 OA
ATOM     24  O   UNL     1     148.081 165.538 191.007  0.00  0.00    -0.457 OA
ATOM     25  C   UNL     1     147.202 166.617 191.440  0.00  0.00    +0.114 C 
ATOM     26  C   UNL     1     147.866 167.930 190.927  0.00  0.00    +0.012 C 
ATOM     27  C   UNL     1     148.245 167.896 189.456  0.00  0.00    -0.079 C 
ATOM     28  C   UNL     1     147.489 168.404 188.470  0.00  0.00    -0.059 C 
ATOM     29  C   UNL     1     147.894 168.477 187.023  0.00  0.00    +0.079 C 
ATOM     30  C   UNL     1     147.293 167.335 186.193  0.00  0.00    +0.004 C 
ATOM     31  C   UNL     1     148.097 166.022 186.282  0.00  0.00    +0.067 C 
ATOM     32  H   UNL     1     147.073 165.387 184.484  0.00  0.00    +0.037 HD
ATOM     33  H   UNL     1     145.252 164.477 185.579  0.00  0.00    +0.057 HD
ATOM     34  H   UNL     1     147.189 163.419 187.696  0.00  0.00    +0.059 HD
ATOM     35  H   UNL     1     144.930 163.491 188.819  0.00  0.00    +0.064 HD
ATOM     36  H   UNL     1     146.400 161.428 188.720  0.00  0.00    +0.032 HD
ATOM     37  H   UNL     1     144.735 161.226 189.187  0.00  0.00    +0.032 HD
ATOM     38  H   UNL     1     144.686 160.835 186.379  0.00  0.00    +0.060 HD
ATOM     39  H   UNL     1     146.017 158.870 186.024  0.00  0.00    +0.036 HD
ATOM     40  H   UNL     1     147.852 158.061 187.051  0.00  0.00    +0.074 HD
ATOM     41  H   UNL     1     147.792 160.171 189.277  0.00  0.00    +0.035 HD
ATOM     42  H   UNL     1     148.982 159.968 187.977  0.00  0.00    +0.035 HD
ATOM     43  H   UNL     1     148.820 156.563 190.448  0.00  0.00    +0.069 HD
ATOM     44  H   UNL     1     150.536 158.090 190.903  0.00  0.00    +0.034 HD
ATOM     45  H   UNL     1     150.067 159.745 190.812  0.00  0.00    +0.034 HD
ATOM     46  H   UNL     1     151.543 158.363 188.505  0.00  0.00    +0.060 HD
ATOM     47  H   UNL     1     151.003 160.527 187.746  0.00  0.00    +0.034 HD
ATOM     48  H   UNL     1     152.645 160.706 188.283  0.00  0.00    +0.034 HD
ATOM     49  H   UNL     1     149.617 162.226 188.321  0.00  0.00    +0.062 HD
ATOM     50  H   UNL     1     149.327 164.420 189.319  0.00  0.00    +0.062 HD
ATOM     51  H   UNL     1     149.536 162.736 191.905  0.00  0.00    +0.069 HD
ATOM     52  H   UNL     1     147.156 166.649 192.536  0.00  0.00    +0.074 HD
ATOM     53  H   UNL     1     147.208 168.785 191.088  0.00  0.00    +0.038 HD
ATOM     54  H   UNL     1     149.209 167.454 189.218  0.00  0.00    +0.057 HD
ATOM     55  H   UNL     1     146.521 168.844 188.712  0.00  0.00    +0.059 HD
ATOM     56  H   UNL     1     148.987 168.484 186.916  0.00  0.00    +0.064 HD
ATOM     57  H   UNL     1     147.256 167.656 185.142  0.00  0.00    +0.032 HD
ATOM     58  H   UNL     1     146.255 167.163 186.497  0.00  0.00    +0.032 HD
ATOM     59  H   UNL     1     148.142 165.704 187.331  0.00  0.00    +0.060 HD
ENDROOT
BRANCH   1  60
ATOM     60  C   UNL     1     148.393 163.818 184.958  0.00  0.00    -0.057 C 
ATOM     61  H   UNL     1     148.513 163.056 185.736  0.00  0.00    +0.024 HD
ATOM     62  H   UNL     1     149.380 164.221 184.724  0.00  0.00    +0.024 HD
ATOM     63  H   UNL     1     148.017 163.303 184.067  0.00  0.00    +0.024 HD
ENDBRANCH   1  60
BRANCH  26  64
ATOM     64  C   UNL     1     149.133 168.231 191.746  0.00  0.00    -0.056 C 
ATOM     65  H   UNL     1     149.785 167.356 191.821  0.00  0.00    +0.024 HD
ATOM     66  H   UNL     1     148.869 168.546 192.762  0.00  0.00    +0.024 HD
ATOM     67  H   UNL     1     149.709 169.042 191.285  0.00  0.00    +0.024 HD
ENDBRANCH  26  64
BRANCH  18  68
ATOM     68  C   UNL     1     152.186 161.976 190.682  0.00  0.00    -0.043 C 
ATOM     69  H   UNL     1     152.821 162.845 190.466  0.00  0.00    +0.027 HD
ATOM     70  H   UNL     1     151.660 162.202 191.618  0.00  0.00    +0.027 HD
ATOM     71  H   UNL     1     152.834 161.110 190.862  0.00  0.00    +0.027 HD
ENDBRANCH  18  68
BRANCH   7  72
ATOM     72  C   UNL     1     147.322 160.519 185.903  0.00  0.00    -0.057 C 
ATOM     73  H   UNL     1     147.059 160.451 184.841  0.00  0.00    +0.023 HD
ATOM     74  H   UNL     1     148.376 160.224 185.999  0.00  0.00    +0.023 HD
ATOM     75  H   UNL     1     147.236 161.563 186.211  0.00  0.00    +0.023 HD
ENDBRANCH   7  72
BRANCH  25  76
ATOM     76  C   UNL     1     145.762 166.304 190.910  0.00  0.00    +0.020 C 
ATOM     77  H   UNL     1     145.498 167.095 190.200  0.00  0.00    +0.036 HD
BRANCH  76  78
ATOM     78  C   UNL     1     145.781 164.986 190.103  0.00  0.00    -0.057 C 
ATOM     79  H   UNL     1     146.704 164.879 189.528  0.00  0.00    +0.023 HD
ATOM     80  H   UNL     1     145.694 164.119 190.770  0.00  0.00    +0.023 HD
ATOM     81  H   UNL     1     144.964 164.929 189.382  0.00  0.00    +0.023 HD
ENDBRANCH  76  78
BRANCH  76  82
ATOM     82  C   UNL     1     144.658 166.183 192.013  0.00  0.00    +0.067 C 
ATOM     83  H   UNL     1     144.493 165.110 192.180  0.00  0.00    +0.060 HD
BRANCH  82  84
ATOM     84  C   UNL     1     143.291 166.821 191.598  0.00  0.00    -0.017 C 
ATOM     85  H   UNL     1     142.807 166.170 190.860  0.00  0.00    +0.032 HD
BRANCH  84  86
ATOM     86  C   UNL     1     142.351 166.875 192.813  0.00  0.00    -0.060 C 
ATOM     87  H   UNL     1     142.918 166.836 193.747  0.00  0.00    +0.023 HD
ATOM     88  H   UNL     1     141.668 166.019 192.823  0.00  0.00    +0.023 HD
ATOM     89  H   UNL     1     141.745 167.788 192.816  0.00  0.00    +0.023 HD
ENDBRANCH  84  86
BRANCH  84  90
ATOM     90  C   UNL     1     143.448 168.229 190.976  0.00  0.00    -0.041 C 
ATOM     91  H   UNL     1     143.136 168.217 189.927  0.00  0.00    +0.027 HD
ATOM     92  H   UNL     1     144.505 168.523 190.971  0.00  0.00    +0.027 HD
BRANCH  90  93
ATOM     93  C   UNL     1     142.628 169.299 191.692  0.00  0.00    +0.007 C 
ATOM     94  H   UNL     1     142.016 168.858 192.485  0.00  0.00    +0.034 HD
ATOM     95  H   UNL     1     143.275 170.042 192.173  0.00  0.00    +0.034 HD
BRANCH  93  96
ATOM     96  C   UNL     1     141.744 170.049 190.716  0.00  0.00    +0.139 C 
ATOM     97  O   UNL     1     140.626 169.611 190.431  0.00  0.00    -0.297 OA
BRANCH  96  98
ATOM     98  C   UNL     1     142.273 171.358 190.136  0.00  0.00    +0.041 C 
ATOM     99  H   UNL     1     141.421 172.048 190.084  0.00  0.00    +0.040 HD
BRANCH  98 100
ATOM    100  C   UNL     1     142.721 171.154 188.683  0.00  0.00    -0.053 C 
ATOM    101  H   UNL     1     142.570 172.061 188.086  0.00  0.00    +0.024 HD
ATOM    102  H   UNL     1     142.139 170.353 188.212  0.00  0.00    +0.024 HD
ATOM    103  H   UNL     1     143.776 170.872 188.617  0.00  0.00    +0.024 HD
ENDBRANCH  98 100
BRANCH  98 104
ATOM    104  C   UNL     1     143.353 172.018 191.027  0.00  0.00    +0.071 C 
ATOM    105  H   UNL     1     143.468 171.396 191.927  0.00  0.00    +0.061 HD
BRANCH 104 106
ATOM    106  C   UNL     1     144.732 172.191 190.340  0.00  0.00    -0.006 C 
ATOM    107  H   UNL     1     144.823 171.520 189.476  0.00  0.00    +0.033 HD
ATOM    108  H   UNL     1     144.825 173.200 189.924  0.00  0.00    +0.033 HD
BRANCH 106 109
ATOM    109  C   UNL     1     145.865 172.001 191.308  0.00  0.00    -0.067 C 
ATOM    110  C   UNL     1     146.616 173.005 191.781  0.00  0.00    -0.005 C 
ATOM    111  H   UNL     1     146.053 170.974 191.606  0.00  0.00    +0.059 HD
ATOM    112  H   UNL     1     146.373 174.023 191.479  0.00  0.00    +0.078 HD
BRANCH 110 113
ATOM    113  N   UNL     1     147.707 172.897 192.626  0.00  0.00    -0.284 N 
ATOM    114  C   UNL     1     148.902 172.251 192.316  0.00  0.00    +0.206 C 
ATOM    115  O   UNL     1     149.251 171.745 191.257  0.00  0.00    -0.279 OA
ATOM    116  H   UNL     1     149.598 172.247 193.173  0.00  0.00    +0.126 HD
BRANCH 113 117
ATOM    117  C   UNL     1     147.622 173.622 193.888  0.00  0.00    +0.007 C 
ATOM    118  H   UNL     1     148.545 173.454 194.452  0.00  0.00    +0.043 HD
ATOM    119  H   UNL     1     147.494 174.690 193.689  0.00  0.00    +0.043 HD
ATOM    120  H   UNL     1     146.781 173.275 194.496  0.00  0.00    +0.043 HD
ENDBRANCH 113 117
ENDBRANCH 110 113
ENDBRANCH 106 109
ENDBRANCH 104 106
BRANCH 104 121
ATOM    121  O   UNL     1     142.863 173.309 191.438  0.00  0.00    -0.379 OA
BRANCH 121 122
ATOM    122  C   UNL     1     143.094 174.333 190.477  0.00  0.00    +0.037 C 
ATOM    123  H   UNL     1     144.015 174.122 189.925  0.00  0.00    +0.052 HD
ATOM    124  H   UNL     1     142.259 174.430 189.775  0.00  0.00    +0.052 HD
ATOM    125  H   UNL     1     143.219 175.277 191.011  0.00  0.00    +0.052 HD
ENDBRANCH 121 122
ENDBRANCH 104 121
ENDBRANCH  98 104
ENDBRANCH  96  98
ENDBRANCH  93  96
ENDBRANCH  90  93
ENDBRANCH  84  90
ENDBRANCH  82  84
BRANCH  82 126
ATOM    126  O   UNL     1     145.068 166.796 193.235  0.00  0.00    -0.379 OA
BRANCH 126 127
ATOM    127  C   UNL     1     145.416 165.859 194.248  0.00  0.00    +0.037 C 
ATOM    128  H   UNL     1     144.635 165.878 195.012  0.00  0.00    +0.052 HD
ATOM    129  H   UNL     1     145.482 164.849 193.839  0.00  0.00    +0.052 HD
ATOM    130  H   UNL     1     146.366 166.137 194.715  0.00  0.00    +0.052 HD
ENDBRANCH 126 127
ENDBRANCH  82 126
ENDBRANCH  76  82
ENDBRANCH  25  76
BRANCH  31 131
ATOM    131  O   UNL     1     149.420 166.293 185.792  0.00  0.00    -0.379 OA
BRANCH 131 132
ATOM    132  C   UNL     1     150.439 166.080 186.761  0.00  0.00    +0.037 C 
ATOM    133  H   UNL     1     151.100 166.947 186.844  0.00  0.00    +0.052 HD
ATOM    134  H   UNL     1     149.960 165.915 187.732  0.00  0.00    +0.052 HD
ATOM    135  H   UNL     1     151.024 165.190 186.512  0.00  0.00    +0.052 HD
ENDBRANCH 131 132
ENDBRANCH  31 131
BRANCH  29 136
ATOM    136  O   UNL     1     147.358 169.704 186.505  0.00  0.00    -0.376 OA
BRANCH 136 137
ATOM    137  C   UNL     1     146.353 170.256 187.348  0.00  0.00    +0.037 C 
ATOM    138  H   UNL     1     146.765 170.511 188.329  0.00  0.00    +0.052 HD
ATOM    139  H   UNL     1     145.568 169.506 187.481  0.00  0.00    +0.052 HD
ATOM    140  H   UNL     1     145.910 171.144 186.882  0.00  0.00    +0.052 HD
ENDBRANCH 136 137
ENDBRANCH  29 136
BRANCH  16 141
ATOM    141  O   UNL     1     152.671 158.889 190.153  0.00  0.00    -0.379 OA
BRANCH 141 142
ATOM    142  C   UNL     1     152.356 158.264 191.393  0.00  0.00    +0.037 C 
ATOM    143  H   UNL     1     153.059 157.456 191.614  0.00  0.00    +0.052 HD
ATOM    144  H   UNL     1     152.441 159.013 192.182  0.00  0.00    +0.052 HD
ATOM    145  H   UNL     1     151.331 157.882 191.392  0.00  0.00    +0.052 HD
ENDBRANCH 141 142
ENDBRANCH  16 141
BRANCH   6 146
ATOM    146  O   UNL     1     144.227 159.437 187.821  0.00  0.00    -0.379 OA
BRANCH 146 147
ATOM    147  C   UNL     1     143.542 158.645 186.859  0.00  0.00    +0.037 C 
ATOM    148  H   UNL     1     143.153 157.723 187.300  0.00  0.00    +0.052 HD
ATOM    149  H   UNL     1     142.701 159.226 186.475  0.00  0.00    +0.052 HD
ATOM    150  H   UNL     1     144.206 158.406 186.022  0.00  0.00    +0.052 HD
ENDBRANCH 146 147
ENDBRANCH   6 146
BRANCH   4 151
ATOM    151  O   UNL     1     143.878 163.018 187.124  0.00  0.00    -0.376 OA
BRANCH 151 152
ATOM    152  C   UNL     1     142.734 163.369 187.896  0.00  0.00    +0.037 C 
ATOM    153  H   UNL     1     141.888 163.613 187.244  0.00  0.00    +0.052 HD
ATOM    154  H   UNL     1     142.457 162.506 188.508  0.00  0.00    +0.052 HD
ATOM    155  H   UNL     1     142.953 164.206 188.563  0.00  0.00    +0.052 HD
ENDBRANCH 151 152
ENDBRANCH   4 151
TORSDOF 33
ENDMDL
MODEL 7
REMARK VINA RESULT:      -4.8      6.122     13.547
REMARK  Name = Reidispongiolide A_conf2
REMARK  33 active torsions:
REMARK  status: ('A' for Active; 'I' for Inactive)
REMARK    1  A    between atoms: C_1  and  C_2
REMARK    2  A    between atoms: C_5  and  O_67
REMARK    3  A    between atoms: C_7  and  O_65
REMARK    4  A    between atoms: C_8  and  C_64
REMARK    5  A    between atoms: C_17  and  O_62
REMARK    6  A    between atoms: C_19  and  C_61
REMARK    7  A    between atoms: C_26  and  C_38
REMARK    8  A    between atoms: C_27  and  C_37
REMARK    9  A    between atoms: C_30  and  O_35
REMARK   10  A    between atoms: C_32  and  O_33
REMARK   11  A    between atoms: O_33  and  C_34
REMARK   12  A    between atoms: O_35  and  C_36
REMARK   13  A    between atoms: C_38  and  C_39
REMARK   14  A    between atoms: C_38  and  C_40
REMARK   15  A    between atoms: C_40  and  C_41
REMARK   16  A    between atoms: C_40  and  O_59
REMARK   17  A    between atoms: C_41  and  C_42
REMARK   18  A    between atoms: C_41  and  C_43
REMARK   19  A    between atoms: C_43  and  C_44
REMARK   20  A    between atoms: C_44  and  C_45
REMARK   21  A    between atoms: C_45  and  C_47
REMARK   22  A    between atoms: C_47  and  C_48
REMARK   23  A    between atoms: C_47  and  C_49
REMARK   24  A    between atoms: C_49  and  C_50
REMARK   25  A    between atoms: C_49  and  O_57
REMARK   26  A    between atoms: C_50  and  C_51
REMARK   27  A    between atoms: C_52  and  N_53
REMARK   28  A    between atoms: N_53  and  C_54
REMARK   29  A    between atoms: O_57  and  C_58
REMARK   30  A    between atoms: O_59  and  C_60
REMARK   31  A    between atoms: O_62  and  C_63
REMARK   32  A    between atoms: O_65  and  C_66
REMARK   33  A    between atoms: O_67  and  C_68
REMARK                            x       y       z     vdW  Elec       q    Type
REMARK                         _______ _______ _______ _____ _____    ______ ____
ROOT
ATOM      1  C   UNL     1     137.861 177.006 190.200  0.00  0.00    +0.001 C 
ATOM      2  C   UNL     1     138.570 176.743 191.518  0.00  0.00    -0.080 C 
ATOM      3  C   UNL     1     138.533 175.578 192.193  0.00  0.00    -0.059 C 
ATOM      4  C   UNL     1     139.200 175.252 193.507  0.00  0.00    +0.079 C 
ATOM      5  C   UNL     1     138.249 174.491 194.462  0.00  0.00    +0.004 C 
ATOM      6  C   UNL     1     137.302 175.361 195.312  0.00  0.00    +0.067 C 
ATOM      7  C   UNL     1     135.773 175.226 195.040  0.00  0.00    +0.020 C 
ATOM      8  C   UNL     1     135.044 173.873 195.290  0.00  0.00    +0.112 C 
ATOM      9  C   UNL     1     135.171 172.805 194.195  0.00  0.00    +0.006 C 
ATOM     10  C   UNL     1     134.427 171.561 194.585  0.00  0.00    -0.057 C 
ATOM     11  C   UNL     1     134.216 171.320 195.893  0.00  0.00    +0.022 C 
ATOM     12  C   UNL     1     134.769 172.177 196.964  0.00  0.00    +0.332 C 
ATOM     13  O   UNL     1     134.727 171.816 198.131  0.00  0.00    -0.246 OA
ATOM     14  O   UNL     1     135.377 173.327 196.574  0.00  0.00    -0.458 OA
ATOM     15  C   UNL     1     134.076 170.532 193.528  0.00  0.00    -0.004 C 
ATOM     16  C   UNL     1     133.031 170.908 192.448  0.00  0.00    +0.066 C 
ATOM     17  C   UNL     1     133.579 171.719 191.241  0.00  0.00    -0.005 C 
ATOM     18  C   UNL     1     134.915 171.265 190.665  0.00  0.00    -0.070 C 
ATOM     19  C   UNL     1     135.990 172.071 190.750  0.00  0.00    -0.062 C 
ATOM     20  C   UNL     1     137.348 171.824 190.331  0.00  0.00    -0.055 C 
ATOM     21  C   UNL     1     138.075 170.743 190.669  0.00  0.00    +0.023 C 
ATOM     22  C   UNL     1     139.517 170.602 190.359  0.00  0.00    +0.332 C 
ATOM     23  O   UNL     1     140.140 169.573 190.559  0.00  0.00    -0.246 OA
ATOM     24  O   UNL     1     140.018 171.775 189.916  0.00  0.00    -0.457 OA
ATOM     25  C   UNL     1     141.454 171.898 189.697  0.00  0.00    +0.114 C 
ATOM     26  C   UNL     1     141.614 172.352 188.215  0.00  0.00    +0.012 C 
ATOM     27  C   UNL     1     140.753 173.547 187.840  0.00  0.00    -0.079 C 
ATOM     28  C   UNL     1     141.190 174.816 187.823  0.00  0.00    -0.059 C 
ATOM     29  C   UNL     1     140.387 175.999 187.352  0.00  0.00    +0.079 C 
ATOM     30  C   UNL     1     139.757 176.775 188.517  0.00  0.00    +0.004 C 
ATOM     31  C   UNL     1     138.435 176.162 189.019  0.00  0.00    +0.067 C 
ATOM     32  H   UNL     1     138.023 178.068 189.960  0.00  0.00    +0.037 HD
ATOM     33  H   UNL     1     139.127 177.583 191.931  0.00  0.00    +0.057 HD
ATOM     34  H   UNL     1     137.998 174.747 191.742  0.00  0.00    +0.059 HD
ATOM     35  H   UNL     1     140.019 174.573 193.244  0.00  0.00    +0.064 HD
ATOM     36  H   UNL     1     137.705 173.752 193.877  0.00  0.00    +0.032 HD
ATOM     37  H   UNL     1     138.893 173.908 195.140  0.00  0.00    +0.032 HD
ATOM     38  H   UNL     1     137.571 176.416 195.163  0.00  0.00    +0.060 HD
ATOM     39  H   UNL     1     135.311 175.897 195.782  0.00  0.00    +0.036 HD
ATOM     40  H   UNL     1     133.974 174.137 195.347  0.00  0.00    +0.074 HD
ATOM     41  H   UNL     1     136.204 172.505 194.015  0.00  0.00    +0.035 HD
ATOM     42  H   UNL     1     134.757 173.212 193.272  0.00  0.00    +0.035 HD
ATOM     43  H   UNL     1     133.736 170.415 196.248  0.00  0.00    +0.069 HD
ATOM     44  H   UNL     1     133.700 169.635 194.041  0.00  0.00    +0.034 HD
ATOM     45  H   UNL     1     135.007 170.187 193.063  0.00  0.00    +0.034 HD
ATOM     46  H   UNL     1     132.236 171.497 192.930  0.00  0.00    +0.060 HD
ATOM     47  H   UNL     1     133.641 172.774 191.535  0.00  0.00    +0.034 HD
ATOM     48  H   UNL     1     132.853 171.708 190.415  0.00  0.00    +0.034 HD
ATOM     49  H   UNL     1     135.862 173.065 191.180  0.00  0.00    +0.062 HD
ATOM     50  H   UNL     1     137.812 172.653 189.796  0.00  0.00    +0.062 HD
ATOM     51  H   UNL     1     137.652 169.919 191.232  0.00  0.00    +0.069 HD
ATOM     52  H   UNL     1     141.940 170.921 189.821  0.00  0.00    +0.074 HD
ATOM     53  H   UNL     1     142.653 172.602 187.996  0.00  0.00    +0.038 HD
ATOM     54  H   UNL     1     139.732 173.329 187.539  0.00  0.00    +0.057 HD
ATOM     55  H   UNL     1     142.214 175.033 188.129  0.00  0.00    +0.059 HD
ATOM     56  H   UNL     1     139.608 175.692 186.641  0.00  0.00    +0.064 HD
ATOM     57  H   UNL     1     139.565 177.803 188.180  0.00  0.00    +0.032 HD
ATOM     58  H   UNL     1     140.475 176.852 189.341  0.00  0.00    +0.032 HD
ATOM     59  H   UNL     1     138.623 175.133 189.349  0.00  0.00    +0.060 HD
ENDROOT
BRANCH   1  60
ATOM     60  C   UNL     1     136.344 176.867 190.373  0.00  0.00    -0.057 C 
ATOM     61  H   UNL     1     135.811 177.524 189.678  0.00  0.00    +0.024 HD
ATOM     62  H   UNL     1     136.027 177.119 191.387  0.00  0.00    +0.024 HD
ATOM     63  H   UNL     1     136.014 175.845 190.158  0.00  0.00    +0.024 HD
ENDBRANCH   1  60
BRANCH  26  64
ATOM     64  C   UNL     1     141.267 171.190 187.269  0.00  0.00    -0.056 C 
ATOM     65  H   UNL     1     140.281 170.769 187.488  0.00  0.00    +0.024 HD
ATOM     66  H   UNL     1     142.007 170.387 187.359  0.00  0.00    +0.024 HD
ATOM     67  H   UNL     1     141.264 171.526 186.226  0.00  0.00    +0.024 HD
ENDBRANCH  26  64
BRANCH  18  68
ATOM     68  C   UNL     1     134.902 169.916 189.998  0.00  0.00    -0.043 C 
ATOM     69  H   UNL     1     135.924 169.524 189.914  0.00  0.00    +0.027 HD
ATOM     70  H   UNL     1     134.327 169.166 190.555  0.00  0.00    +0.027 HD
ATOM     71  H   UNL     1     134.475 169.986 188.990  0.00  0.00    +0.027 HD
ENDBRANCH  18  68
BRANCH   7  72
ATOM     72  C   UNL     1     135.401 175.816 193.679  0.00  0.00    -0.057 C 
ATOM     73  H   UNL     1     134.638 176.596 193.794  0.00  0.00    +0.023 HD
ATOM     74  H   UNL     1     134.982 175.044 193.020  0.00  0.00    +0.023 HD
ATOM     75  H   UNL     1     136.265 176.255 193.175  0.00  0.00    +0.023 HD
ENDBRANCH   7  72
BRANCH  25  76
ATOM     76  C   UNL     1     142.026 172.859 190.792  0.00  0.00    +0.020 C 
ATOM     77  H   UNL     1     141.374 173.738 190.826  0.00  0.00    +0.036 HD
BRANCH  76  78
ATOM     78  C   UNL     1     141.920 172.186 192.180  0.00  0.00    -0.057 C 
ATOM     79  H   UNL     1     142.876 172.200 192.708  0.00  0.00    +0.023 HD
ATOM     80  H   UNL     1     141.178 172.698 192.806  0.00  0.00    +0.023 HD
ATOM     81  H   UNL     1     141.624 171.138 192.111  0.00  0.00    +0.023 HD
ENDBRANCH  76  78
BRANCH  76  82
ATOM     82  C   UNL     1     143.512 173.302 190.579  0.00  0.00    +0.067 C 
ATOM     83  H   UNL     1     143.664 173.392 189.495  0.00  0.00    +0.060 HD
BRANCH  82  84
ATOM     84  C   UNL     1     144.553 172.268 191.125  0.00  0.00    -0.017 C 
ATOM     85  H   UNL     1     144.070 171.653 191.893  0.00  0.00    +0.032 HD
BRANCH  84  86
ATOM     86  C   UNL     1     144.974 171.309 189.999  0.00  0.00    -0.060 C 
ATOM     87  H   UNL     1     144.550 171.622 189.041  0.00  0.00    +0.023 HD
ATOM     88  H   UNL     1     144.611 170.294 190.188  0.00  0.00    +0.023 HD
ATOM     89  H   UNL     1     146.064 171.263 189.894  0.00  0.00    +0.023 HD
ENDBRANCH  84  86
BRANCH  84  90
ATOM     90  C   UNL     1     145.797 172.941 191.753  0.00  0.00    -0.041 C 
ATOM     91  H   UNL     1     146.262 172.272 192.483  0.00  0.00    +0.027 HD
ATOM     92  H   UNL     1     145.500 173.837 192.311  0.00  0.00    +0.027 HD
BRANCH  90  93
ATOM     93  C   UNL     1     146.861 173.316 190.724  0.00  0.00    +0.007 C 
ATOM     94  H   UNL     1     146.741 172.734 189.806  0.00  0.00    +0.034 HD
ATOM     95  H   UNL     1     146.786 174.372 190.439  0.00  0.00    +0.034 HD
BRANCH  93  96
ATOM     96  C   UNL     1     148.254 173.109 191.286  0.00  0.00    +0.139 C 
ATOM     97  O   UNL     1     149.218 173.691 190.780  0.00  0.00    -0.297 OA
BRANCH  96  98
ATOM     98  C   UNL     1     148.406 172.194 192.498  0.00  0.00    +0.041 C 
ATOM     99  H   UNL     1     147.394 172.004 192.880  0.00  0.00    +0.040 HD
BRANCH  98 100
ATOM    100  C   UNL     1     149.137 172.928 193.630  0.00  0.00    -0.053 C 
ATOM    101  H   UNL     1     149.425 173.942 193.331  0.00  0.00    +0.024 HD
ATOM    102  H   UNL     1     150.056 172.394 193.900  0.00  0.00    +0.024 HD
ATOM    103  H   UNL     1     148.524 172.997 194.534  0.00  0.00    +0.024 HD
ENDBRANCH  98 100
BRANCH  98 104
ATOM    104  C   UNL     1     149.034 170.825 192.143  0.00  0.00    +0.071 C 
ATOM    105  H   UNL     1     149.159 170.263 193.080  0.00  0.00    +0.061 HD
BRANCH 104 106
ATOM    106  C   UNL     1     148.205 169.980 191.142  0.00  0.00    -0.006 C 
ATOM    107  H   UNL     1     147.260 170.482 190.899  0.00  0.00    +0.033 HD
ATOM    108  H   UNL     1     148.734 169.897 190.185  0.00  0.00    +0.033 HD
BRANCH 106 109
ATOM    109  C   UNL     1     147.975 168.584 191.646  0.00  0.00    -0.067 C 
ATOM    110  C   UNL     1     148.332 168.165 192.867  0.00  0.00    -0.005 C 
ATOM    111  H   UNL     1     147.494 167.910 190.943  0.00  0.00    +0.059 HD
ATOM    112  H   UNL     1     148.784 168.882 193.552  0.00  0.00    +0.078 HD
BRANCH 110 113
ATOM    113  N   UNL     1     148.203 166.884 193.375  0.00  0.00    -0.284 N 
ATOM    114  C   UNL     1     146.995 166.257 193.676  0.00  0.00    +0.206 C 
ATOM    115  O   UNL     1     145.853 166.656 193.486  0.00  0.00    -0.279 OA
ATOM    116  H   UNL     1     147.153 165.261 194.125  0.00  0.00    +0.126 HD
BRANCH 113 117
ATOM    117  C   UNL     1     149.430 166.104 193.484  0.00  0.00    +0.007 C 
ATOM    118  H   UNL     1     149.622 165.899 194.543  0.00  0.00    +0.043 HD
ATOM    119  H   UNL     1     149.319 165.166 192.935  0.00  0.00    +0.043 HD
ATOM    120  H   UNL     1     150.290 166.648 193.081  0.00  0.00    +0.043 HD
ENDBRANCH 113 117
ENDBRANCH 110 113
ENDBRANCH 106 109
ENDBRANCH 104 106
BRANCH 104 121
ATOM    121  O   UNL     1     150.343 171.065 191.592  0.00  0.00    -0.379 OA
BRANCH 121 122
ATOM    122  C   UNL     1     151.348 170.213 192.130  0.00  0.00    +0.037 C 
ATOM    123  H   UNL     1     150.938 169.211 192.289  0.00  0.00    +0.052 HD
ATOM    124  H   UNL     1     152.225 170.152 191.477  0.00  0.00    +0.052 HD
ATOM    125  H   UNL     1     151.655 170.619 193.097  0.00  0.00    +0.052 HD
ENDBRANCH 121 122
ENDBRANCH 104 121
ENDBRANCH  98 104
ENDBRANCH  96  98
ENDBRANCH  93  96
ENDBRANCH  90  93
ENDBRANCH  84  90
ENDBRANCH  82  84
BRANCH  82 126
ATOM    126  O   UNL     1     143.781 174.557 191.203  0.00  0.00    -0.379 OA
BRANCH 126 127
ATOM    127  C   UNL     1     142.750 175.517 191.005  0.00  0.00    +0.037 C 
ATOM    128  H   UNL     1     143.219 176.491 190.840  0.00  0.00    +0.052 HD
ATOM    129  H   UNL     1     142.146 175.267 190.132  0.00  0.00    +0.052 HD
ATOM    130  H   UNL     1     142.114 175.584 191.894  0.00  0.00    +0.052 HD
ENDBRANCH 126 127
ENDBRANCH  82 126
ENDBRANCH  76  82
ENDBRANCH  25  76
BRANCH  31 131
ATOM    131  O   UNL     1     137.511 176.167 187.919  0.00  0.00    -0.379 OA
BRANCH 131 132
ATOM    132  C   UNL     1     137.056 174.869 187.554  0.00  0.00    +0.037 C 
ATOM    133  H   UNL     1     136.324 174.916 186.744  0.00  0.00    +0.052 HD
ATOM    134  H   UNL     1     137.918 174.288 187.210  0.00  0.00    +0.052 HD
ATOM    135  H   UNL     1     136.622 174.360 188.419  0.00  0.00    +0.052 HD
ENDBRANCH 131 132
ENDBRANCH  31 131
BRANCH  29 136
ATOM    136  O   UNL     1     141.305 176.887 186.698  0.00  0.00    -0.376 OA
BRANCH 136 137
ATOM    137  C   UNL     1     141.282 178.197 187.255  0.00  0.00    +0.037 C 
ATOM    138  H   UNL     1     140.303 178.416 187.695  0.00  0.00    +0.052 HD
ATOM    139  H   UNL     1     141.472 178.914 186.452  0.00  0.00    +0.052 HD
ATOM    140  H   UNL     1     142.068 178.304 188.012  0.00  0.00    +0.052 HD
ENDBRANCH 136 137
ENDBRANCH  29 136
BRANCH  16 141
ATOM    141  O   UNL     1     132.451 169.669 191.992  0.00  0.00    -0.379 OA
BRANCH 141 142
ATOM    142  C   UNL     1     131.310 169.835 191.156  0.00  0.00    +0.037 C 
ATOM    143  H   UNL     1     130.452 170.192 191.732  0.00  0.00    +0.052 HD
ATOM    144  H   UNL     1     131.549 170.587 190.402  0.00  0.00    +0.052 HD
ATOM    145  H   UNL     1     131.059 168.902 190.644  0.00  0.00    +0.052 HD
ENDBRANCH 141 142
ENDBRANCH  16 141
BRANCH   6 146
ATOM    146  O   UNL     1     137.588 175.023 196.681  0.00  0.00    -0.379 OA
BRANCH 146 147
ATOM    147  C   UNL     1     137.832 176.150 197.514  0.00  0.00    +0.037 C 
ATOM    148  H   UNL     1     138.222 175.852 198.492  0.00  0.00    +0.052 HD
ATOM    149  H   UNL     1     138.575 176.782 197.024  0.00  0.00    +0.052 HD
ATOM    150  H   UNL     1     136.914 176.734 197.642  0.00  0.00    +0.052 HD
ENDBRANCH 146 147
ENDBRANCH   6 146
BRANCH   4 151
ATOM    151  O   UNL     1     139.766 176.424 194.089  0.00  0.00    -0.376 OA
BRANCH 151 152
ATOM    152  C   UNL     1     140.903 176.152 194.902  0.00  0.00    +0.037 C 
ATOM    153  H   UNL     1     141.005 175.076 195.076  0.00  0.00    +0.052 HD
ATOM    154  H   UNL     1     141.794 176.500 194.371  0.00  0.00    +0.052 HD
ATOM    155  H   UNL     1     140.841 176.686 195.853  0.00  0.00    +0.052 HD
ENDBRANCH 151 152
ENDBRANCH   4 151
TORSDOF 33
ENDMDL
MODEL 8
REMARK VINA RESULT:      -4.8      3.249     10.599
REMARK  Name = Reidispongiolide A_conf2
REMARK  33 active torsions:
REMARK  status: ('A' for Active; 'I' for Inactive)
REMARK    1  A    between atoms: C_1  and  C_2
REMARK    2  A    between atoms: C_5  and  O_67
REMARK    3  A    between atoms: C_7  and  O_65
REMARK    4  A    between atoms: C_8  and  C_64
REMARK    5  A    between atoms: C_17  and  O_62
REMARK    6  A    between atoms: C_19  and  C_61
REMARK    7  A    between atoms: C_26  and  C_38
REMARK    8  A    between atoms: C_27  and  C_37
REMARK    9  A    between atoms: C_30  and  O_35
REMARK   10  A    between atoms: C_32  and  O_33
REMARK   11  A    between atoms: O_33  and  C_34
REMARK   12  A    between atoms: O_35  and  C_36
REMARK   13  A    between atoms: C_38  and  C_39
REMARK   14  A    between atoms: C_38  and  C_40
REMARK   15  A    between atoms: C_40  and  C_41
REMARK   16  A    between atoms: C_40  and  O_59
REMARK   17  A    between atoms: C_41  and  C_42
REMARK   18  A    between atoms: C_41  and  C_43
REMARK   19  A    between atoms: C_43  and  C_44
REMARK   20  A    between atoms: C_44  and  C_45
REMARK   21  A    between atoms: C_45  and  C_47
REMARK   22  A    between atoms: C_47  and  C_48
REMARK   23  A    between atoms: C_47  and  C_49
REMARK   24  A    between atoms: C_49  and  C_50
REMARK   25  A    between atoms: C_49  and  O_57
REMARK   26  A    between atoms: C_50  and  C_51
REMARK   27  A    between atoms: C_52  and  N_53
REMARK   28  A    between atoms: N_53  and  C_54
REMARK   29  A    between atoms: O_57  and  C_58
REMARK   30  A    between atoms: O_59  and  C_60
REMARK   31  A    between atoms: O_62  and  C_63
REMARK   32  A    between atoms: O_65  and  C_66
REMARK   33  A    between atoms: O_67  and  C_68
REMARK                            x       y       z     vdW  Elec       q    Type
REMARK                         _______ _______ _______ _____ _____    ______ ____
ROOT
ATOM      1  C   UNL     1     145.969 171.309 186.055  0.00  0.00    +0.001 C 
ATOM      2  C   UNL     1     146.419 171.247 187.505  0.00  0.00    -0.080 C 
ATOM      3  C   UNL     1     145.623 170.934 188.546  0.00  0.00    -0.059 C 
ATOM      4  C   UNL     1     145.999 170.865 190.006  0.00  0.00    +0.079 C 
ATOM      5  C   UNL     1     144.940 171.547 190.906  0.00  0.00    +0.004 C 
ATOM      6  C   UNL     1     145.077 173.072 191.080  0.00  0.00    +0.067 C 
ATOM      7  C   UNL     1     143.935 173.962 190.503  0.00  0.00    +0.020 C 
ATOM      8  C   UNL     1     142.487 173.848 191.065  0.00  0.00    +0.112 C 
ATOM      9  C   UNL     1     141.630 172.688 190.541  0.00  0.00    +0.006 C 
ATOM     10  C   UNL     1     140.273 172.707 191.181  0.00  0.00    -0.057 C 
ATOM     11  C   UNL     1     140.133 173.305 192.380  0.00  0.00    +0.022 C 
ATOM     12  C   UNL     1     141.277 173.857 193.136  0.00  0.00    +0.332 C 
ATOM     13  O   UNL     1     141.142 174.207 194.299  0.00  0.00    -0.246 OA
ATOM     14  O   UNL     1     142.476 173.883 192.499  0.00  0.00    -0.458 OA
ATOM     15  C   UNL     1     139.135 171.924 190.554  0.00  0.00    -0.004 C 
ATOM     16  C   UNL     1     138.580 172.392 189.186  0.00  0.00    +0.066 C 
ATOM     17  C   UNL     1     139.376 171.912 187.941  0.00  0.00    -0.005 C 
ATOM     18  C   UNL     1     139.840 170.461 187.947  0.00  0.00    -0.070 C 
ATOM     19  C   UNL     1     141.156 170.177 187.982  0.00  0.00    -0.062 C 
ATOM     20  C   UNL     1     141.809 168.893 188.053  0.00  0.00    -0.055 C 
ATOM     21  C   UNL     1     141.531 167.935 188.956  0.00  0.00    +0.023 C 
ATOM     22  C   UNL     1     142.333 166.697 189.103  0.00  0.00    +0.332 C 
ATOM     23  O   UNL     1     142.007 165.781 189.838  0.00  0.00    -0.246 OA
ATOM     24  O   UNL     1     143.471 166.788 188.382  0.00  0.00    -0.457 OA
ATOM     25  C   UNL     1     144.477 165.739 188.505  0.00  0.00    +0.114 C 
ATOM     26  C   UNL     1     144.717 165.217 187.057  0.00  0.00    +0.012 C 
ATOM     27  C   UNL     1     144.985 166.316 186.042  0.00  0.00    -0.079 C 
ATOM     28  C   UNL     1     146.210 166.695 185.646  0.00  0.00    -0.059 C 
ATOM     29  C   UNL     1     146.495 167.703 184.566  0.00  0.00    +0.079 C 
ATOM     30  C   UNL     1     146.814 169.091 185.136  0.00  0.00    +0.004 C 
ATOM     31  C   UNL     1     145.559 169.917 185.483  0.00  0.00    +0.067 C 
ATOM     32  H   UNL     1     146.829 171.670 185.471  0.00  0.00    +0.037 HD
ATOM     33  H   UNL     1     147.464 171.495 187.687  0.00  0.00    +0.057 HD
ATOM     34  H   UNL     1     144.594 170.658 188.333  0.00  0.00    +0.059 HD
ATOM     35  H   UNL     1     145.998 169.796 190.244  0.00  0.00    +0.064 HD
ATOM     36  H   UNL     1     143.955 171.268 190.536  0.00  0.00    +0.032 HD
ATOM     37  H   UNL     1     145.023 171.071 191.896  0.00  0.00    +0.032 HD
ATOM     38  H   UNL     1     146.016 173.393 190.607  0.00  0.00    +0.060 HD
ATOM     39  H   UNL     1     144.230 174.986 190.783  0.00  0.00    +0.036 HD
ATOM     40  H   UNL     1     141.987 174.778 190.741  0.00  0.00    +0.074 HD
ATOM     41  H   UNL     1     142.063 171.711 190.760  0.00  0.00    +0.035 HD
ATOM     42  H   UNL     1     141.534 172.796 189.461  0.00  0.00    +0.035 HD
ATOM     43  H   UNL     1     139.195 173.307 192.924  0.00  0.00    +0.069 HD
ATOM     44  H   UNL     1     138.293 171.927 191.261  0.00  0.00    +0.034 HD
ATOM     45  H   UNL     1     139.428 170.868 190.513  0.00  0.00    +0.034 HD
ATOM     46  H   UNL     1     138.559 173.492 189.183  0.00  0.00    +0.060 HD
ATOM     47  H   UNL     1     140.240 172.576 187.809  0.00  0.00    +0.034 HD
ATOM     48  H   UNL     1     138.778 172.055 187.030  0.00  0.00    +0.034 HD
ATOM     49  H   UNL     1     141.867 171.003 187.945  0.00  0.00    +0.062 HD
ATOM     50  H   UNL     1     142.655 168.780 187.374  0.00  0.00    +0.062 HD
ATOM     51  H   UNL     1     140.719 168.033 189.668  0.00  0.00    +0.069 HD
ATOM     52  H   UNL     1     144.089 164.915 189.118  0.00  0.00    +0.074 HD
ATOM     53  H   UNL     1     145.555 164.520 187.030  0.00  0.00    +0.038 HD
ATOM     54  H   UNL     1     144.111 166.788 185.601  0.00  0.00    +0.057 HD
ATOM     55  H   UNL     1     147.086 166.222 186.093  0.00  0.00    +0.059 HD
ATOM     56  H   UNL     1     145.659 167.772 183.857  0.00  0.00    +0.064 HD
ATOM     57  H   UNL     1     147.405 169.642 184.390  0.00  0.00    +0.032 HD
ATOM     58  H   UNL     1     147.456 168.990 186.018  0.00  0.00    +0.032 HD
ATOM     59  H   UNL     1     144.965 169.366 186.222  0.00  0.00    +0.060 HD
ENDROOT
BRANCH   1  60
ATOM     60  C   UNL     1     144.892 172.386 185.877  0.00  0.00    -0.057 C 
ATOM     61  H   UNL     1     145.347 173.369 185.715  0.00  0.00    +0.024 HD
ATOM     62  H   UNL     1     144.239 172.455 186.749  0.00  0.00    +0.024 HD
ATOM     63  H   UNL     1     144.267 172.179 185.001  0.00  0.00    +0.024 HD
ENDBRANCH   1  60
BRANCH  26  64
ATOM     64  C   UNL     1     143.498 164.407 186.582  0.00  0.00    -0.056 C 
ATOM     65  H   UNL     1     143.797 163.515 186.025  0.00  0.00    +0.024 HD
ATOM     66  H   UNL     1     142.861 165.017 185.932  0.00  0.00    +0.024 HD
ATOM     67  H   UNL     1     142.892 164.084 187.435  0.00  0.00    +0.024 HD
ENDBRANCH  26  64
BRANCH  18  68
ATOM     68  C   UNL     1     138.741 169.435 187.876  0.00  0.00    -0.043 C 
ATOM     69  H   UNL     1     137.805 169.904 187.542  0.00  0.00    +0.027 HD
ATOM     70  H   UNL     1     138.953 168.627 187.165  0.00  0.00    +0.027 HD
ATOM     71  H   UNL     1     138.568 168.982 188.859  0.00  0.00    +0.027 HD
ENDBRANCH  18  68
BRANCH   7  72
ATOM     72  C   UNL     1     143.943 173.946 188.974  0.00  0.00    -0.057 C 
ATOM     73  H   UNL     1     144.174 172.941 188.601  0.00  0.00    +0.023 HD
ATOM     74  H   UNL     1     144.710 174.625 188.580  0.00  0.00    +0.023 HD
ATOM     75  H   UNL     1     142.979 174.251 188.559  0.00  0.00    +0.023 HD
ENDBRANCH   7  72
BRANCH  25  76
ATOM     76  C   UNL     1     145.714 166.346 189.248  0.00  0.00    +0.020 C 
ATOM     77  H   UNL     1     146.385 166.752 188.484  0.00  0.00    +0.036 HD
BRANCH  76  78
ATOM     78  C   UNL     1     145.264 167.546 190.111  0.00  0.00    -0.057 C 
ATOM     79  H   UNL     1     145.427 168.496 189.596  0.00  0.00    +0.023 HD
ATOM     80  H   UNL     1     144.197 167.472 190.356  0.00  0.00    +0.023 HD
ATOM     81  H   UNL     1     145.813 167.610 191.052  0.00  0.00    +0.023 HD
ENDBRANCH  76  78
BRANCH  76  82
ATOM     82  C   UNL     1     146.492 165.348 190.170  0.00  0.00    +0.067 C 
ATOM     83  H   UNL     1     145.976 165.345 191.140  0.00  0.00    +0.060 HD
BRANCH  82  84
ATOM     84  C   UNL     1     147.980 165.764 190.420  0.00  0.00    -0.017 C 
ATOM     85  H   UNL     1     148.597 164.859 190.468  0.00  0.00    +0.032 HD
BRANCH  84  86
ATOM     86  C   UNL     1     148.499 166.584 189.227  0.00  0.00    -0.060 C 
ATOM     87  H   UNL     1     148.142 167.616 189.278  0.00  0.00    +0.023 HD
ATOM     88  H   UNL     1     148.138 166.172 188.279  0.00  0.00    +0.023 HD
ATOM     89  H   UNL     1     149.594 166.599 189.192  0.00  0.00    +0.023 HD
ENDBRANCH  84  86
BRANCH  84  90
ATOM     90  C   UNL     1     148.171 166.552 191.738  0.00  0.00    -0.041 C 
ATOM     91  H   UNL     1     147.523 167.434 191.750  0.00  0.00    +0.027 HD
ATOM     92  H   UNL     1     149.198 166.932 191.805  0.00  0.00    +0.027 HD
BRANCH  90  93
ATOM     93  C   UNL     1     147.853 165.729 192.984  0.00  0.00    +0.007 C 
ATOM     94  H   UNL     1     146.870 165.256 192.901  0.00  0.00    +0.034 HD
ATOM     95  H   UNL     1     148.580 164.919 193.122  0.00  0.00    +0.034 HD
BRANCH  93  96
ATOM     96  C   UNL     1     147.908 166.588 194.231  0.00  0.00    +0.139 C 
ATOM     97  O   UNL     1     147.525 167.761 194.191  0.00  0.00    -0.297 OA
BRANCH  96  98
ATOM     98  C   UNL     1     148.415 165.946 195.519  0.00  0.00    +0.041 C 
ATOM     99  H   UNL     1     147.703 165.152 195.779  0.00  0.00    +0.040 HD
BRANCH  98 100
ATOM    100  C   UNL     1     148.348 166.950 196.677  0.00  0.00    -0.053 C 
ATOM    101  H   UNL     1     149.199 167.640 196.660  0.00  0.00    +0.024 HD
ATOM    102  H   UNL     1     148.373 166.426 197.639  0.00  0.00    +0.024 HD
ATOM    103  H   UNL     1     147.427 167.541 196.652  0.00  0.00    +0.024 HD
ENDBRANCH  98 100
BRANCH  98 104
ATOM    104  C   UNL     1     149.806 165.287 195.354  0.00  0.00    +0.071 C 
ATOM    105  H   UNL     1     149.739 164.571 194.523  0.00  0.00    +0.061 HD
BRANCH 104 106
ATOM    106  C   UNL     1     150.960 166.286 195.082  0.00  0.00    -0.006 C 
ATOM    107  H   UNL     1     150.667 167.305 195.364  0.00  0.00    +0.033 HD
ATOM    108  H   UNL     1     151.821 166.054 195.719  0.00  0.00    +0.033 HD
BRANCH 106 109
ATOM    109  C   UNL     1     151.430 166.221 193.657  0.00  0.00    -0.067 C 
ATOM    110  C   UNL     1     151.371 167.255 192.807  0.00  0.00    -0.005 C 
ATOM    111  H   UNL     1     151.826 165.261 193.342  0.00  0.00    +0.059 HD
ATOM    112  H   UNL     1     150.996 168.210 193.173  0.00  0.00    +0.078 HD
BRANCH 110 113
ATOM    113  N   UNL     1     151.732 167.250 191.470  0.00  0.00    -0.284 N 
ATOM    114  C   UNL     1     151.862 168.383 190.669  0.00  0.00    +0.206 C 
ATOM    115  O   UNL     1     151.773 169.563 190.985  0.00  0.00    -0.279 OA
ATOM    116  H   UNL     1     152.100 168.119 189.624  0.00  0.00    +0.126 HD
BRANCH 113 117
ATOM    117  C   UNL     1     152.114 165.960 190.908  0.00  0.00    +0.007 C 
ATOM    118  H   UNL     1     151.232 165.505 190.444  0.00  0.00    +0.043 HD
ATOM    119  H   UNL     1     152.898 166.103 190.160  0.00  0.00    +0.043 HD
ATOM    120  H   UNL     1     152.484 165.278 191.679  0.00  0.00    +0.043 HD
ENDBRANCH 113 117
ENDBRANCH 110 113
ENDBRANCH 106 109
ENDBRANCH 104 106
BRANCH 104 121
ATOM    121  O   UNL     1     150.093 164.547 196.556  0.00  0.00    -0.379 OA
BRANCH 121 122
ATOM    122  C   UNL     1     151.305 163.804 196.487  0.00  0.00    +0.037 C 
ATOM    123  H   UNL     1     152.028 164.333 195.859  0.00  0.00    +0.052 HD
ATOM    124  H   UNL     1     151.736 163.632 197.479  0.00  0.00    +0.052 HD
ATOM    125  H   UNL     1     151.086 162.839 196.024  0.00  0.00    +0.052 HD
ENDBRANCH 121 122
ENDBRANCH 104 121
ENDBRANCH  98 104
ENDBRANCH  96  98
ENDBRANCH  93  96
ENDBRANCH  90  93
ENDBRANCH  84  90
ENDBRANCH  82  84
BRANCH  82 126
ATOM    126  O   UNL     1     146.496 164.029 189.630  0.00  0.00    -0.379 OA
BRANCH 126 127
ATOM    127  C   UNL     1     147.613 163.252 190.046  0.00  0.00    +0.037 C 
ATOM    128  H   UNL     1     148.503 163.639 189.545  0.00  0.00    +0.052 HD
ATOM    129  H   UNL     1     147.759 163.325 191.125  0.00  0.00    +0.052 HD
ATOM    130  H   UNL     1     147.480 162.204 189.757  0.00  0.00    +0.052 HD
ENDBRANCH 126 127
ENDBRANCH  82 126
ENDBRANCH  76  82
ENDBRANCH  25  76
BRANCH  31 131
ATOM    131  O   UNL     1     144.806 170.086 184.271  0.00  0.00    -0.379 OA
BRANCH 131 132
ATOM    132  C   UNL     1     143.496 169.535 184.336  0.00  0.00    +0.037 C 
ATOM    133  H   UNL     1     143.040 169.704 185.316  0.00  0.00    +0.052 HD
ATOM    134  H   UNL     1     142.879 170.027 183.577  0.00  0.00    +0.052 HD
ATOM    135  H   UNL     1     143.521 168.464 184.118  0.00  0.00    +0.052 HD
ENDBRANCH 131 132
ENDBRANCH  31 131
BRANCH  29 136
ATOM    136  O   UNL     1     147.668 167.249 183.874  0.00  0.00    -0.376 OA
BRANCH 136 137
ATOM    137  C   UNL     1     147.426 166.074 183.109  0.00  0.00    +0.037 C 
ATOM    138  H   UNL     1     147.733 165.179 183.661  0.00  0.00    +0.052 HD
ATOM    139  H   UNL     1     148.013 166.137 182.189  0.00  0.00    +0.052 HD
ATOM    140  H   UNL     1     146.365 166.005 182.842  0.00  0.00    +0.052 HD
ENDBRANCH 136 137
ENDBRANCH  29 136
BRANCH  16 141
ATOM    141  O   UNL     1     137.218 171.923 189.116  0.00  0.00    -0.379 OA
BRANCH 141 142
ATOM    142  C   UNL     1     136.307 172.663 189.921  0.00  0.00    +0.037 C 
ATOM    143  H   UNL     1     135.628 173.254 189.301  0.00  0.00    +0.052 HD
ATOM    144  H   UNL     1     135.708 171.953 190.495  0.00  0.00    +0.052 HD
ATOM    145  H   UNL     1     136.838 173.311 190.623  0.00  0.00    +0.052 HD
ENDBRANCH 141 142
ENDBRANCH  16 141
BRANCH   6 146
ATOM    146  O   UNL     1     145.202 173.291 192.497  0.00  0.00    -0.379 OA
BRANCH 146 147
ATOM    147  C   UNL     1     146.547 173.357 192.954  0.00  0.00    +0.037 C 
ATOM    148  H   UNL     1     147.225 172.811 192.292  0.00  0.00    +0.052 HD
ATOM    149  H   UNL     1     146.850 174.406 192.971  0.00  0.00    +0.052 HD
ATOM    150  H   UNL     1     146.622 172.962 193.973  0.00  0.00    +0.052 HD
ENDBRANCH 146 147
ENDBRANCH   6 146
BRANCH   4 151
ATOM    151  O   UNL     1     147.319 171.364 190.210  0.00  0.00    -0.376 OA
BRANCH 151 152
ATOM    152  C   UNL     1     148.129 170.497 190.998  0.00  0.00    +0.037 C 
ATOM    153  H   UNL     1     147.895 169.449 190.784  0.00  0.00    +0.052 HD
ATOM    154  H   UNL     1     149.176 170.677 190.737  0.00  0.00    +0.052 HD
ATOM    155  H   UNL     1     148.002 170.704 192.064  0.00  0.00    +0.052 HD
ENDBRANCH 151 152
ENDBRANCH   4 151
TORSDOF 33
ENDMDL
MODEL 9
REMARK VINA RESULT:      -4.8      6.519     13.876
REMARK  Name = Reidispongiolide A_conf2
REMARK  33 active torsions:
REMARK  status: ('A' for Active; 'I' for Inactive)
REMARK    1  A    between atoms: C_1  and  C_2
REMARK    2  A    between atoms: C_5  and  O_67
REMARK    3  A    between atoms: C_7  and  O_65
REMARK    4  A    between atoms: C_8  and  C_64
REMARK    5  A    between atoms: C_17  and  O_62
REMARK    6  A    between atoms: C_19  and  C_61
REMARK    7  A    between atoms: C_26  and  C_38
REMARK    8  A    between atoms: C_27  and  C_37
REMARK    9  A    between atoms: C_30  and  O_35
REMARK   10  A    between atoms: C_32  and  O_33
REMARK   11  A    between atoms: O_33  and  C_34
REMARK   12  A    between atoms: O_35  and  C_36
REMARK   13  A    between atoms: C_38  and  C_39
REMARK   14  A    between atoms: C_38  and  C_40
REMARK   15  A    between atoms: C_40  and  C_41
REMARK   16  A    between atoms: C_40  and  O_59
REMARK   17  A    between atoms: C_41  and  C_42
REMARK   18  A    between atoms: C_41  and  C_43
REMARK   19  A    between atoms: C_43  and  C_44
REMARK   20  A    between atoms: C_44  and  C_45
REMARK   21  A    between atoms: C_45  and  C_47
REMARK   22  A    between atoms: C_47  and  C_48
REMARK   23  A    between atoms: C_47  and  C_49
REMARK   24  A    between atoms: C_49  and  C_50
REMARK   25  A    between atoms: C_49  and  O_57
REMARK   26  A    between atoms: C_50  and  C_51
REMARK   27  A    between atoms: C_52  and  N_53
REMARK   28  A    between atoms: N_53  and  C_54
REMARK   29  A    between atoms: O_57  and  C_58
REMARK   30  A    between atoms: O_59  and  C_60
REMARK   31  A    between atoms: O_62  and  C_63
REMARK   32  A    between atoms: O_65  and  C_66
REMARK   33  A    between atoms: O_67  and  C_68
REMARK                            x       y       z     vdW  Elec       q    Type
REMARK                         _______ _______ _______ _____ _____    ______ ____
ROOT
ATOM      1  C   UNL     1     137.492 177.095 190.650  0.00  0.00    +0.001 C 
ATOM      2  C   UNL     1     138.241 176.765 191.930  0.00  0.00    -0.080 C 
ATOM      3  C   UNL     1     138.182 175.584 192.575  0.00  0.00    -0.059 C 
ATOM      4  C   UNL     1     138.886 175.193 193.851  0.00  0.00    +0.079 C 
ATOM      5  C   UNL     1     137.943 174.445 194.824  0.00  0.00    +0.004 C 
ATOM      6  C   UNL     1     137.068 175.329 195.735  0.00  0.00    +0.067 C 
ATOM      7  C   UNL     1     135.526 175.266 195.523  0.00  0.00    +0.020 C 
ATOM      8  C   UNL     1     134.750 173.938 195.766  0.00  0.00    +0.112 C 
ATOM      9  C   UNL     1     134.787 172.897 194.639  0.00  0.00    +0.006 C 
ATOM     10  C   UNL     1     134.007 171.675 195.026  0.00  0.00    -0.057 C 
ATOM     11  C   UNL     1     133.838 171.405 196.335  0.00  0.00    +0.022 C 
ATOM     12  C   UNL     1     134.470 172.208 197.404  0.00  0.00    +0.332 C 
ATOM     13  O   UNL     1     134.460 171.816 198.562  0.00  0.00    -0.246 OA
ATOM     14  O   UNL     1     135.110 173.342 197.021  0.00  0.00    -0.458 OA
ATOM     15  C   UNL     1     133.570 170.692 193.957  0.00  0.00    -0.004 C 
ATOM     16  C   UNL     1     132.499 171.142 192.932  0.00  0.00    +0.066 C 
ATOM     17  C   UNL     1     133.033 171.963 191.725  0.00  0.00    -0.005 C 
ATOM     18  C   UNL     1     134.324 171.470 191.083  0.00  0.00    -0.070 C 
ATOM     19  C   UNL     1     135.435 172.229 191.145  0.00  0.00    -0.062 C 
ATOM     20  C   UNL     1     136.763 171.937 190.664  0.00  0.00    -0.055 C 
ATOM     21  C   UNL     1     137.456 170.817 190.942  0.00  0.00    +0.023 C 
ATOM     22  C   UNL     1     138.877 170.625 190.570  0.00  0.00    +0.332 C 
ATOM     23  O   UNL     1     139.463 169.566 190.716  0.00  0.00    -0.246 OA
ATOM     24  O   UNL     1     139.410 171.788 190.138  0.00  0.00    -0.457 OA
ATOM     25  C   UNL     1     140.840 171.858 189.863  0.00  0.00    +0.114 C 
ATOM     26  C   UNL     1     140.960 172.347 188.388  0.00  0.00    +0.012 C 
ATOM     27  C   UNL     1     140.137 173.587 188.081  0.00  0.00    -0.079 C 
ATOM     28  C   UNL     1     140.626 174.837 188.081  0.00  0.00    -0.059 C 
ATOM     29  C   UNL     1     139.856 176.065 187.675  0.00  0.00    +0.079 C 
ATOM     30  C   UNL     1     139.308 176.833 188.885  0.00  0.00    +0.004 C 
ATOM     31  C   UNL     1     137.981 176.261 189.425  0.00  0.00    +0.067 C 
ATOM     32  H   UNL     1     137.689 178.155 190.432  0.00  0.00    +0.037 HD
ATOM     33  H   UNL     1     138.850 177.569 192.343  0.00  0.00    +0.057 HD
ATOM     34  H   UNL     1     137.594 174.789 192.124  0.00  0.00    +0.059 HD
ATOM     35  H   UNL     1     139.664 174.488 193.536  0.00  0.00    +0.064 HD
ATOM     36  H   UNL     1     137.345 173.746 194.242  0.00  0.00    +0.032 HD
ATOM     37  H   UNL     1     138.588 173.817 195.458  0.00  0.00    +0.032 HD
ATOM     38  H   UNL     1     137.376 176.376 195.604  0.00  0.00    +0.060 HD
ATOM     39  H   UNL     1     135.123 175.934 196.301  0.00  0.00    +0.036 HD
ATOM     40  H   UNL     1     133.695 174.244 195.875  0.00  0.00    +0.074 HD
ATOM     41  H   UNL     1     135.799 172.560 194.408  0.00  0.00    +0.035 HD
ATOM     42  H   UNL     1     134.354 173.348 193.746  0.00  0.00    +0.035 HD
ATOM     43  H   UNL     1     133.335 170.512 196.685  0.00  0.00    +0.069 HD
ATOM     44  H   UNL     1     133.176 169.797 194.461  0.00  0.00    +0.034 HD
ATOM     45  H   UNL     1     134.466 170.322 193.445  0.00  0.00    +0.034 HD
ATOM     46  H   UNL     1     131.751 171.749 193.462  0.00  0.00    +0.060 HD
ATOM     47  H   UNL     1     133.152 173.006 192.045  0.00  0.00    +0.034 HD
ATOM     48  H   UNL     1     132.274 172.006 190.930  0.00  0.00    +0.034 HD
ATOM     49  H   UNL     1     135.367 173.214 191.606  0.00  0.00    +0.062 HD
ATOM     50  H   UNL     1     137.241 172.761 190.132  0.00  0.00    +0.062 HD
ATOM     51  H   UNL     1     137.022 169.996 191.500  0.00  0.00    +0.069 HD
ATOM     52  H   UNL     1     141.288 170.859 189.940  0.00  0.00    +0.074 HD
ATOM     53  H   UNL     1     141.999 172.560 188.133  0.00  0.00    +0.038 HD
ATOM     54  H   UNL     1     139.095 173.420 187.817  0.00  0.00    +0.057 HD
ATOM     55  H   UNL     1     141.670 175.002 188.349  0.00  0.00    +0.059 HD
ATOM     56  H   UNL     1     139.037 175.811 186.989  0.00  0.00    +0.064 HD
ATOM     57  H   UNL     1     139.146 177.878 188.584  0.00  0.00    +0.032 HD
ATOM     58  H   UNL     1     140.061 176.857 189.680  0.00  0.00    +0.032 HD
ATOM     59  H   UNL     1     138.138 175.217 189.719  0.00  0.00    +0.060 HD
ENDROOT
BRANCH   1  60
ATOM     60  C   UNL     1     135.979 177.015 190.882  0.00  0.00    -0.057 C 
ATOM     61  H   UNL     1     135.739 176.248 191.627  0.00  0.00    +0.024 HD
ATOM     62  H   UNL     1     135.440 176.774 189.963  0.00  0.00    +0.024 HD
ATOM     63  H   UNL     1     135.587 177.963 191.266  0.00  0.00    +0.024 HD
ENDBRANCH   1  60
BRANCH  26  64
ATOM     64  C   UNL     1     140.525 171.227 187.427  0.00  0.00    -0.056 C 
ATOM     65  H   UNL     1     141.378 170.798 186.893  0.00  0.00    +0.024 HD
ATOM     66  H   UNL     1     139.818 171.611 186.683  0.00  0.00    +0.024 HD
ATOM     67  H   UNL     1     140.028 170.418 187.973  0.00  0.00    +0.024 HD
ENDBRANCH  26  64
BRANCH  18  68
ATOM     68  C   UNL     1     134.226 170.143 190.381  0.00  0.00    -0.043 C 
ATOM     69  H   UNL     1     134.176 169.328 191.115  0.00  0.00    +0.027 HD
ATOM     70  H   UNL     1     133.329 170.052 189.756  0.00  0.00    +0.027 HD
ATOM     71  H   UNL     1     135.100 169.978 189.740  0.00  0.00    +0.027 HD
ENDBRANCH  18  68
BRANCH   7  72
ATOM     72  C   UNL     1     135.125 175.910 194.195  0.00  0.00    -0.057 C 
ATOM     73  H   UNL     1     135.281 175.210 193.365  0.00  0.00    +0.023 HD
ATOM     74  H   UNL     1     135.735 176.799 193.991  0.00  0.00    +0.023 HD
ATOM     75  H   UNL     1     134.076 176.215 194.191  0.00  0.00    +0.023 HD
ENDBRANCH   7  72
BRANCH  25  76
ATOM     76  C   UNL     1     141.496 172.763 190.959  0.00  0.00    +0.020 C 
ATOM     77  H   UNL     1     141.466 173.793 190.591  0.00  0.00    +0.036 HD
BRANCH  76  78
ATOM     78  C   UNL     1     140.632 172.735 192.240  0.00  0.00    -0.057 C 
ATOM     79  H   UNL     1     140.975 173.469 192.973  0.00  0.00    +0.023 HD
ATOM     80  H   UNL     1     139.582 172.953 192.007  0.00  0.00    +0.023 HD
ATOM     81  H   UNL     1     140.663 171.765 192.740  0.00  0.00    +0.023 HD
ENDBRANCH  76  78
BRANCH  76  82
ATOM     82  C   UNL     1     142.961 172.376 191.352  0.00  0.00    +0.067 C 
ATOM     83  H   UNL     1     142.962 172.198 192.437  0.00  0.00    +0.060 HD
BRANCH  82  84
ATOM     84  C   UNL     1     144.004 173.503 191.049  0.00  0.00    -0.017 C 
ATOM     85  H   UNL     1     144.605 173.204 190.183  0.00  0.00    +0.032 HD
BRANCH  84  86
ATOM     86  C   UNL     1     143.273 174.795 190.649  0.00  0.00    -0.060 C 
ATOM     87  H   UNL     1     142.590 175.118 191.440  0.00  0.00    +0.023 HD
ATOM     88  H   UNL     1     142.665 174.643 189.751  0.00  0.00    +0.023 HD
ATOM     89  H   UNL     1     143.975 175.611 190.446  0.00  0.00    +0.023 HD
ENDBRANCH  84  86
BRANCH  84  90
ATOM     90  C   UNL     1     144.961 173.771 192.236  0.00  0.00    -0.041 C 
ATOM     91  H   UNL     1     144.603 173.259 193.134  0.00  0.00    +0.027 HD
ATOM     92  H   UNL     1     144.968 174.840 192.481  0.00  0.00    +0.027 HD
BRANCH  90  93
ATOM     93  C   UNL     1     146.390 173.302 191.974  0.00  0.00    +0.007 C 
ATOM     94  H   UNL     1     146.400 172.308 191.518  0.00  0.00    +0.034 HD
ATOM     95  H   UNL     1     146.908 173.971 191.277  0.00  0.00    +0.034 HD
BRANCH  93  96
ATOM     96  C   UNL     1     147.200 173.289 193.256  0.00  0.00    +0.139 C 
ATOM     97  O   UNL     1     146.920 174.066 194.172  0.00  0.00    -0.297 OA
BRANCH  96  98
ATOM     98  C   UNL     1     148.332 172.272 193.373  0.00  0.00    +0.041 C 
ATOM     99  H   UNL     1     148.024 171.541 194.132  0.00  0.00    +0.040 HD
BRANCH  98 100
ATOM    100  C   UNL     1     149.591 172.941 193.941  0.00  0.00    -0.053 C 
ATOM    101  H   UNL     1     150.164 172.249 194.569  0.00  0.00    +0.024 HD
ATOM    102  H   UNL     1     149.319 173.799 194.566  0.00  0.00    +0.024 HD
ATOM    103  H   UNL     1     150.249 173.311 193.149  0.00  0.00    +0.024 HD
ENDBRANCH  98 100
BRANCH  98 104
ATOM    104  C   UNL     1     148.585 171.498 192.057  0.00  0.00    +0.071 C 
ATOM    105  H   UNL     1     148.144 172.083 191.237  0.00  0.00    +0.061 HD
BRANCH 104 106
ATOM    106  C   UNL     1     150.081 171.228 191.751  0.00  0.00    -0.006 C 
ATOM    107  H   UNL     1     150.378 171.707 190.809  0.00  0.00    +0.033 HD
ATOM    108  H   UNL     1     150.715 171.692 192.515  0.00  0.00    +0.033 HD
BRANCH 106 109
ATOM    109  C   UNL     1     150.393 169.759 191.746  0.00  0.00    -0.067 C 
ATOM    110  C   UNL     1     151.635 169.262 191.675  0.00  0.00    -0.005 C 
ATOM    111  H   UNL     1     149.531 169.101 191.797  0.00  0.00    +0.059 HD
ATOM    112  H   UNL     1     152.474 169.958 191.656  0.00  0.00    +0.078 HD
BRANCH 110 113
ATOM    113  N   UNL     1     151.992 167.926 191.608  0.00  0.00    -0.284 N 
ATOM    114  C   UNL     1     152.356 167.249 190.446  0.00  0.00    +0.206 C 
ATOM    115  O   UNL     1     152.511 167.691 189.314  0.00  0.00    -0.279 OA
ATOM    116  H   UNL     1     152.538 166.177 190.638  0.00  0.00    +0.126 HD
BRANCH 113 117
ATOM    117  C   UNL     1     152.102 167.222 192.880  0.00  0.00    +0.007 C 
ATOM    118  H   UNL     1     153.123 166.842 192.984  0.00  0.00    +0.043 HD
ATOM    119  H   UNL     1     151.873 167.908 193.701  0.00  0.00    +0.043 HD
ATOM    120  H   UNL     1     151.415 166.372 192.931  0.00  0.00    +0.043 HD
ENDBRANCH 113 117
ENDBRANCH 110 113
ENDBRANCH 106 109
ENDBRANCH 104 106
BRANCH 104 121
ATOM    121  O   UNL     1     147.883 170.243 192.136  0.00  0.00    -0.379 OA
BRANCH 121 122
ATOM    122  C   UNL     1     147.057 169.986 191.006  0.00  0.00    +0.037 C 
ATOM    123  H   UNL     1     146.476 169.074 191.171  0.00  0.00    +0.052 HD
ATOM    124  H   UNL     1     146.380 170.821 190.797  0.00  0.00    +0.052 HD
ATOM    125  H   UNL     1     147.705 169.831 190.140  0.00  0.00    +0.052 HD
ENDBRANCH 121 122
ENDBRANCH 104 121
ENDBRANCH  98 104
ENDBRANCH  96  98
ENDBRANCH  93  96
ENDBRANCH  90  93
ENDBRANCH  84  90
ENDBRANCH  82  84
BRANCH  82 126
ATOM    126  O   UNL     1     143.391 171.195 190.677  0.00  0.00    -0.379 OA
BRANCH 126 127
ATOM    127  C   UNL     1     143.082 169.998 191.381  0.00  0.00    +0.037 C 
ATOM    128  H   UNL     1     142.562 169.324 190.695  0.00  0.00    +0.052 HD
ATOM    129  H   UNL     1     143.991 169.506 191.732  0.00  0.00    +0.052 HD
ATOM    130  H   UNL     1     142.421 170.211 192.227  0.00  0.00    +0.052 HD
ENDBRANCH 126 127
ENDBRANCH  82 126
ENDBRANCH  76  82
ENDBRANCH  25  76
BRANCH  31 131
ATOM    131  O   UNL     1     137.015 176.336 188.364  0.00  0.00    -0.379 OA
BRANCH 131 132
ATOM    132  C   UNL     1     136.491 175.069 187.984  0.00  0.00    +0.037 C 
ATOM    133  H   UNL     1     136.475 174.954 186.896  0.00  0.00    +0.052 HD
ATOM    134  H   UNL     1     137.136 174.291 188.405  0.00  0.00    +0.052 HD
ATOM    135  H   UNL     1     135.484 174.936 188.387  0.00  0.00    +0.052 HD
ENDBRANCH 131 132
ENDBRANCH  31 131
BRANCH  29 136
ATOM    136  O   UNL     1     140.784 176.933 187.008  0.00  0.00    -0.376 OA
BRANCH 136 137
ATOM    137  C   UNL     1     141.012 178.139 187.727  0.00  0.00    +0.037 C 
ATOM    138  H   UNL     1     141.019 177.954 188.806  0.00  0.00    +0.052 HD
ATOM    139  H   UNL     1     140.200 178.835 187.496  0.00  0.00    +0.052 HD
ATOM    140  H   UNL     1     141.960 178.595 187.417  0.00  0.00    +0.052 HD
ENDBRANCH 136 137
ENDBRANCH  29 136
BRANCH  16 141
ATOM    141  O   UNL     1     131.849 169.942 192.467  0.00  0.00    -0.379 OA
BRANCH 141 142
ATOM    142  C   UNL     1     130.674 170.178 191.699  0.00  0.00    +0.037 C 
ATOM    143  H   UNL     1     129.948 169.372 191.835  0.00  0.00    +0.052 HD
ATOM    144  H   UNL     1     130.219 171.106 192.050  0.00  0.00    +0.052 HD
ATOM    145  H   UNL     1     130.915 170.294 190.638  0.00  0.00    +0.052 HD
ENDBRANCH 141 142
ENDBRANCH  16 141
BRANCH   6 146
ATOM    146  O   UNL     1     137.395 174.941 197.082  0.00  0.00    -0.379 OA
BRANCH 146 147
ATOM    147  C   UNL     1     137.457 176.028 197.997  0.00  0.00    +0.037 C 
ATOM    148  H   UNL     1     136.474 176.482 198.151  0.00  0.00    +0.052 HD
ATOM    149  H   UNL     1     137.816 175.647 198.955  0.00  0.00    +0.052 HD
ATOM    150  H   UNL     1     138.164 176.785 197.641  0.00  0.00    +0.052 HD
ENDBRANCH 146 147
ENDBRANCH   6 146
BRANCH   4 151
ATOM    151  O   UNL     1     139.525 176.323 194.440  0.00  0.00    -0.376 OA
BRANCH 151 152
ATOM    152  C   UNL     1     140.717 175.989 195.144  0.00  0.00    +0.037 C 
ATOM    153  H   UNL     1     141.583 176.017 194.473  0.00  0.00    +0.052 HD
ATOM    154  H   UNL     1     140.869 176.732 195.932  0.00  0.00    +0.052 HD
ATOM    155  H   UNL     1     140.632 175.005 195.612  0.00  0.00    +0.052 HD
ENDBRANCH 151 152
ENDBRANCH   4 151
TORSDOF 33
ENDMDL
MODEL 10
REMARK VINA RESULT:      -4.7      5.532     13.560
REMARK  Name = Reidispongiolide A_conf2
REMARK  33 active torsions:
REMARK  status: ('A' for Active; 'I' for Inactive)
REMARK    1  A    between atoms: C_1  and  C_2
REMARK    2  A    between atoms: C_5  and  O_67
REMARK    3  A    between atoms: C_7  and  O_65
REMARK    4  A    between atoms: C_8  and  C_64
REMARK    5  A    between atoms: C_17  and  O_62
REMARK    6  A    between atoms: C_19  and  C_61
REMARK    7  A    between atoms: C_26  and  C_38
REMARK    8  A    between atoms: C_27  and  C_37
REMARK    9  A    between atoms: C_30  and  O_35
REMARK   10  A    between atoms: C_32  and  O_33
REMARK   11  A    between atoms: O_33  and  C_34
REMARK   12  A    between atoms: O_35  and  C_36
REMARK   13  A    between atoms: C_38  and  C_39
REMARK   14  A    between atoms: C_38  and  C_40
REMARK   15  A    between atoms: C_40  and  C_41
REMARK   16  A    between atoms: C_40  and  O_59
REMARK   17  A    between atoms: C_41  and  C_42
REMARK   18  A    between atoms: C_41  and  C_43
REMARK   19  A    between atoms: C_43  and  C_44
REMARK   20  A    between atoms: C_44  and  C_45
REMARK   21  A    between atoms: C_45  and  C_47
REMARK   22  A    between atoms: C_47  and  C_48
REMARK   23  A    between atoms: C_47  and  C_49
REMARK   24  A    between atoms: C_49  and  C_50
REMARK   25  A    between atoms: C_49  and  O_57
REMARK   26  A    between atoms: C_50  and  C_51
REMARK   27  A    between atoms: C_52  and  N_53
REMARK   28  A    between atoms: N_53  and  C_54
REMARK   29  A    between atoms: O_57  and  C_58
REMARK   30  A    between atoms: O_59  and  C_60
REMARK   31  A    between atoms: O_62  and  C_63
REMARK   32  A    between atoms: O_65  and  C_66
REMARK   33  A    between atoms: O_67  and  C_68
REMARK                            x       y       z     vdW  Elec       q    Type
REMARK                         _______ _______ _______ _____ _____    ______ ____
ROOT
ATOM      1  C   UNL     1     140.456 177.117 189.458  0.00  0.00    +0.001 C 
ATOM      2  C   UNL     1     141.118 176.726 190.768  0.00  0.00    -0.080 C 
ATOM      3  C   UNL     1     140.642 175.804 191.627  0.00  0.00    -0.059 C 
ATOM      4  C   UNL     1     141.239 175.376 192.945  0.00  0.00    +0.079 C 
ATOM      5  C   UNL     1     140.166 175.267 194.055  0.00  0.00    +0.004 C 
ATOM      6  C   UNL     1     139.814 176.575 194.791  0.00  0.00    +0.067 C 
ATOM      7  C   UNL     1     138.368 177.126 194.615  0.00  0.00    +0.020 C 
ATOM      8  C   UNL     1     137.144 176.305 195.117  0.00  0.00    +0.112 C 
ATOM      9  C   UNL     1     136.651 175.170 194.209  0.00  0.00    +0.006 C 
ATOM     10  C   UNL     1     135.479 174.470 194.833  0.00  0.00    -0.057 C 
ATOM     11  C   UNL     1     135.335 174.520 196.171  0.00  0.00    +0.022 C 
ATOM     12  C   UNL     1     136.334 175.153 197.059  0.00  0.00    +0.332 C 
ATOM     13  O   UNL     1     136.270 175.003 198.271  0.00  0.00    -0.246 OA
ATOM     14  O   UNL     1     137.343 175.834 196.458  0.00  0.00    -0.458 OA
ATOM     15  C   UNL     1     134.584 173.594 193.978  0.00  0.00    -0.004 C 
ATOM     16  C   UNL     1     133.701 174.270 192.898  0.00  0.00    +0.066 C 
ATOM     17  C   UNL     1     134.411 174.577 191.550  0.00  0.00    -0.005 C 
ATOM     18  C   UNL     1     135.324 173.490 190.998  0.00  0.00    -0.070 C 
ATOM     19  C   UNL     1     136.648 173.714 190.900  0.00  0.00    -0.062 C 
ATOM     20  C   UNL     1     137.693 172.818 190.467  0.00  0.00    -0.055 C 
ATOM     21  C   UNL     1     137.892 171.575 190.946  0.00  0.00    +0.023 C 
ATOM     22  C   UNL     1     139.071 170.748 190.599  0.00  0.00    +0.332 C 
ATOM     23  O   UNL     1     139.185 169.583 190.938  0.00  0.00    -0.246 OA
ATOM     24  O   UNL     1     139.989 171.492 189.945  0.00  0.00    -0.457 OA
ATOM     25  C   UNL     1     141.292 170.911 189.644  0.00  0.00    +0.114 C 
ATOM     26  C   UNL     1     141.466 171.049 188.102  0.00  0.00    +0.012 C 
ATOM     27  C   UNL     1     141.195 172.447 187.574  0.00  0.00    -0.079 C 
ATOM     28  C   UNL     1     142.149 173.359 187.328  0.00  0.00    -0.059 C 
ATOM     29  C   UNL     1     141.913 174.709 186.705  0.00  0.00    +0.079 C 
ATOM     30  C   UNL     1     141.838 175.828 187.752  0.00  0.00    +0.004 C 
ATOM     31  C   UNL     1     140.449 175.962 188.409  0.00  0.00    +0.067 C 
ATOM     32  H   UNL     1     141.047 177.945 189.039  0.00  0.00    +0.037 HD
ATOM     33  H   UNL     1     142.037 177.259 191.011  0.00  0.00    +0.057 HD
ATOM     34  H   UNL     1     139.743 175.264 191.344  0.00  0.00    +0.059 HD
ATOM     35  H   UNL     1     141.630 174.370 192.762  0.00  0.00    +0.064 HD
ATOM     36  H   UNL     1     139.285 174.794 193.626  0.00  0.00    +0.032 HD
ATOM     37  H   UNL     1     140.553 174.544 194.790  0.00  0.00    +0.032 HD
ATOM     38  H   UNL     1     140.509 177.359 194.458  0.00  0.00    +0.060 HD
ATOM     39  H   UNL     1     138.345 178.022 195.256  0.00  0.00    +0.036 HD
ATOM     40  H   UNL     1     136.320 177.037 195.179  0.00  0.00    +0.074 HD
ATOM     41  H   UNL     1     137.411 174.408 194.035  0.00  0.00    +0.035 HD
ATOM     42  H   UNL     1     136.359 175.603 193.252  0.00  0.00    +0.035 HD
ATOM     43  H   UNL     1     134.545 173.991 196.692  0.00  0.00    +0.069 HD
ATOM     44  H   UNL     1     133.908 173.044 194.648  0.00  0.00    +0.034 HD
ATOM     45  H   UNL     1     135.200 172.803 193.534  0.00  0.00    +0.034 HD
ATOM     46  H   UNL     1     133.316 175.214 193.312  0.00  0.00    +0.060 HD
ATOM     47  H   UNL     1     134.973 175.512 191.663  0.00  0.00    +0.034 HD
ATOM     48  H   UNL     1     133.666 174.797 190.772  0.00  0.00    +0.034 HD
ATOM     49  H   UNL     1     137.030 174.700 191.165  0.00  0.00    +0.062 HD
ATOM     50  H   UNL     1     138.414 173.264 189.781  0.00  0.00    +0.062 HD
ATOM     51  H   UNL     1     137.213 171.118 191.656  0.00  0.00    +0.069 HD
ATOM     52  H   UNL     1     141.299 169.844 189.906  0.00  0.00    +0.074 HD
ATOM     53  H   UNL     1     142.474 170.762 187.798  0.00  0.00    +0.038 HD
ATOM     54  H   UNL     1     140.157 172.689 187.360  0.00  0.00    +0.057 HD
ATOM     55  H   UNL     1     143.190 173.116 187.547  0.00  0.00    +0.059 HD
ATOM     56  H   UNL     1     141.003 174.708 186.090  0.00  0.00    +0.064 HD
ATOM     57  H   UNL     1     142.089 176.778 187.260  0.00  0.00    +0.032 HD
ATOM     58  H   UNL     1     142.604 175.669 188.519  0.00  0.00    +0.032 HD
ATOM     59  H   UNL     1     140.192 175.013 188.895  0.00  0.00    +0.060 HD
ENDROOT
BRANCH   1  60
ATOM     60  C   UNL     1     139.069 177.716 189.720  0.00  0.00    -0.057 C 
ATOM     61  H   UNL     1     139.152 178.734 190.116  0.00  0.00    +0.024 HD
ATOM     62  H   UNL     1     138.498 177.120 190.435  0.00  0.00    +0.024 HD
ATOM     63  H   UNL     1     138.486 177.783 188.794  0.00  0.00    +0.024 HD
ENDBRANCH   1  60
BRANCH  26  64
ATOM     64  C   UNL     1     140.528 170.068 187.378  0.00  0.00    -0.056 C 
ATOM     65  H   UNL     1     139.850 169.567 188.074  0.00  0.00    +0.024 HD
ATOM     66  H   UNL     1     141.105 169.299 186.853  0.00  0.00    +0.024 HD
ATOM     67  H   UNL     1     139.918 170.593 186.634  0.00  0.00    +0.024 HD
ENDBRANCH  26  64
BRANCH  18  68
ATOM     68  C   UNL     1     134.631 172.227 190.564  0.00  0.00    -0.043 C 
ATOM     69  H   UNL     1     135.118 171.352 191.015  0.00  0.00    +0.027 HD
ATOM     70  H   UNL     1     133.579 172.187 190.871  0.00  0.00    +0.027 HD
ATOM     71  H   UNL     1     134.667 172.119 189.474  0.00  0.00    +0.027 HD
ENDBRANCH  18  68
BRANCH   7  72
ATOM     72  C   UNL     1     138.144 177.645 193.193  0.00  0.00    -0.057 C 
ATOM     73  H   UNL     1     137.949 176.812 192.507  0.00  0.00    +0.023 HD
ATOM     74  H   UNL     1     139.035 178.170 192.824  0.00  0.00    +0.023 HD
ATOM     75  H   UNL     1     137.301 178.336 193.141  0.00  0.00    +0.023 HD
ENDBRANCH   7  72
BRANCH  25  76
ATOM     76  C   UNL     1     142.357 171.630 190.539  0.00  0.00    +0.020 C 
ATOM     77  H   UNL     1     142.760 172.465 189.957  0.00  0.00    +0.036 HD
BRANCH  76  78
ATOM     78  C   UNL     1     141.663 172.254 191.771  0.00  0.00    -0.057 C 
ATOM     79  H   UNL     1     141.731 173.344 191.762  0.00  0.00    +0.023 HD
ATOM     80  H   UNL     1     140.601 171.980 191.800  0.00  0.00    +0.023 HD
ATOM     81  H   UNL     1     142.112 171.927 192.710  0.00  0.00    +0.023 HD
ENDBRANCH  76  78
BRANCH  76  82
ATOM     82  C   UNL     1     143.524 170.719 191.048  0.00  0.00    +0.067 C 
ATOM     83  H   UNL     1     143.468 170.715 192.145  0.00  0.00    +0.060 HD
BRANCH  82  84
ATOM     84  C   UNL     1     144.942 171.240 190.641  0.00  0.00    -0.017 C 
ATOM     85  H   UNL     1     145.673 170.439 190.801  0.00  0.00    +0.032 HD
BRANCH  84  86
ATOM     86  C   UNL     1     144.968 171.561 189.137  0.00  0.00    -0.060 C 
ATOM     87  H   UNL     1     144.873 170.648 188.542  0.00  0.00    +0.023 HD
ATOM     88  H   UNL     1     145.916 172.028 188.850  0.00  0.00    +0.023 HD
ATOM     89  H   UNL     1     144.158 172.242 188.855  0.00  0.00    +0.023 HD
ENDBRANCH  84  86
BRANCH  84  90
ATOM     90  C   UNL     1     145.387 172.475 191.462  0.00  0.00    -0.041 C 
ATOM     91  H   UNL     1     145.795 172.161 192.428  0.00  0.00    +0.027 HD
ATOM     92  H   UNL     1     144.520 173.106 191.693  0.00  0.00    +0.027 HD
BRANCH  90  93
ATOM     93  C   UNL     1     146.451 173.314 190.759  0.00  0.00    +0.007 C 
ATOM     94  H   UNL     1     146.525 173.047 189.701  0.00  0.00    +0.034 HD
ATOM     95  H   UNL     1     146.205 174.382 190.796  0.00  0.00    +0.034 HD
BRANCH  93  96
ATOM     96  C   UNL     1     147.801 173.148 191.428  0.00  0.00    +0.139 C 
ATOM     97  O   UNL     1     148.796 173.709 190.961  0.00  0.00    -0.297 OA
BRANCH  96  98
ATOM     98  C   UNL     1     147.870 172.300 192.695  0.00  0.00    +0.041 C 
ATOM     99  H   UNL     1     146.847 171.959 192.904  0.00  0.00    +0.040 HD
BRANCH  98 100
ATOM    100  C   UNL     1     148.262 173.170 193.897  0.00  0.00    -0.053 C 
ATOM    101  H   UNL     1     148.544 174.182 193.585  0.00  0.00    +0.024 HD
ATOM    102  H   UNL     1     149.125 172.737 194.417  0.00  0.00    +0.024 HD
ATOM    103  H   UNL     1     147.449 173.249 194.626  0.00  0.00    +0.024 HD
ENDBRANCH  98 100
BRANCH  98 104
ATOM    104  C   UNL     1     148.756 171.042 192.530  0.00  0.00    +0.071 C 
ATOM    105  H   UNL     1     148.579 170.393 193.400  0.00  0.00    +0.061 HD
BRANCH 104 106
ATOM    106  C   UNL     1     148.493 170.240 191.228  0.00  0.00    -0.006 C 
ATOM    107  H   UNL     1     147.941 170.850 190.501  0.00  0.00    +0.033 HD
ATOM    108  H   UNL     1     149.440 169.999 190.733  0.00  0.00    +0.033 HD
BRANCH 106 109
ATOM    109  C   UNL     1     147.791 168.941 191.505  0.00  0.00    -0.067 C 
ATOM    110  C   UNL     1     148.190 168.063 192.434  0.00  0.00    -0.005 C 
ATOM    111  H   UNL     1     146.920 168.744 190.888  0.00  0.00    +0.059 HD
ATOM    112  H   UNL     1     149.051 168.314 193.053  0.00  0.00    +0.078 HD
BRANCH 110 113
ATOM    113  N   UNL     1     147.627 166.826 192.702  0.00  0.00    -0.284 N 
ATOM    114  C   UNL     1     148.088 165.925 193.660  0.00  0.00    +0.206 C 
ATOM    115  O   UNL     1     148.987 166.065 194.479  0.00  0.00    -0.279 OA
ATOM    116  H   UNL     1     147.511 164.983 193.644  0.00  0.00    +0.126 HD
BRANCH 113 117
ATOM    117  C   UNL     1     146.388 166.514 191.999  0.00  0.00    +0.007 C 
ATOM    118  H   UNL     1     145.559 167.013 192.512  0.00  0.00    +0.043 HD
ATOM    119  H   UNL     1     146.454 166.864 190.966  0.00  0.00    +0.043 HD
ATOM    120  H   UNL     1     146.188 165.438 191.993  0.00  0.00    +0.043 HD
ENDBRANCH 113 117
ENDBRANCH 110 113
ENDBRANCH 106 109
ENDBRANCH 104 106
BRANCH 104 121
ATOM    121  O   UNL     1     150.133 171.460 192.559  0.00  0.00    -0.379 OA
BRANCH 121 122
ATOM    122  C   UNL     1     151.015 170.547 191.914  0.00  0.00    +0.037 C 
ATOM    123  H   UNL     1     151.208 169.693 192.570  0.00  0.00    +0.052 HD
ATOM    124  H   UNL     1     150.609 170.193 190.960  0.00  0.00    +0.052 HD
ATOM    125  H   UNL     1     151.960 171.061 191.727  0.00  0.00    +0.052 HD
ENDBRANCH 121 122
ENDBRANCH 104 121
ENDBRANCH  98 104
ENDBRANCH  96  98
ENDBRANCH  93  96
ENDBRANCH  90  93
ENDBRANCH  84  90
ENDBRANCH  82  84
BRANCH  82 126
ATOM    126  O   UNL     1     143.398 169.384 190.560  0.00  0.00    -0.379 OA
BRANCH 126 127
ATOM    127  C   UNL     1     142.987 168.455 191.557  0.00  0.00    +0.037 C 
ATOM    128  H   UNL     1     143.029 168.956 192.527  0.00  0.00    +0.052 HD
ATOM    129  H   UNL     1     141.964 168.119 191.379  0.00  0.00    +0.052 HD
ATOM    130  H   UNL     1     143.665 167.595 191.581  0.00  0.00    +0.052 HD
ENDBRANCH 126 127
ENDBRANCH  82 126
ENDBRANCH  76  82
ENDBRANCH  25  76
BRANCH  31 131
ATOM    131  O   UNL     1     139.505 176.253 187.365  0.00  0.00    -0.379 OA
BRANCH 131 132
ATOM    132  C   UNL     1     138.478 175.276 187.241  0.00  0.00    +0.037 C 
ATOM    133  H   UNL     1     137.544 175.618 187.695  0.00  0.00    +0.052 HD
ATOM    134  H   UNL     1     138.301 175.100 186.175  0.00  0.00    +0.052 HD
ATOM    135  H   UNL     1     138.791 174.334 187.698  0.00  0.00    +0.052 HD
ENDBRANCH 131 132
ENDBRANCH  31 131
BRANCH  29 136
ATOM    136  O   UNL     1     143.049 174.984 185.872  0.00  0.00    -0.376 OA
BRANCH 136 137
ATOM    137  C   UNL     1     144.209 174.271 186.284  0.00  0.00    +0.037 C 
ATOM    138  H   UNL     1     145.103 174.660 185.786  0.00  0.00    +0.052 HD
ATOM    139  H   UNL     1     144.083 173.221 186.006  0.00  0.00    +0.052 HD
ATOM    140  H   UNL     1     144.328 174.332 187.372  0.00  0.00    +0.052 HD
ENDBRANCH 136 137
ENDBRANCH  29 136
BRANCH  16 141
ATOM    141  O   UNL     1     132.579 173.391 192.680  0.00  0.00    -0.379 OA
BRANCH 141 142
ATOM    142  C   UNL     1     132.460 172.350 193.644  0.00  0.00    +0.037 C 
ATOM    143  H   UNL     1     133.303 171.657 193.578  0.00  0.00    +0.052 HD
ATOM    144  H   UNL     1     132.472 172.804 194.637  0.00  0.00    +0.052 HD
ATOM    145  H   UNL     1     131.517 171.809 193.525  0.00  0.00    +0.052 HD
ENDBRANCH 141 142
ENDBRANCH  16 141
BRANCH   6 146
ATOM    146  O   UNL     1     140.076 176.319 196.183  0.00  0.00    -0.379 OA
BRANCH 146 147
ATOM    147  C   UNL     1     140.225 177.496 196.968  0.00  0.00    +0.037 C 
ATOM    148  H   UNL     1     139.270 177.822 197.390  0.00  0.00    +0.052 HD
ATOM    149  H   UNL     1     140.909 177.273 197.790  0.00  0.00    +0.052 HD
ATOM    150  H   UNL     1     140.661 178.300 196.367  0.00  0.00    +0.052 HD
ENDBRANCH 146 147
ENDBRANCH   6 146
BRANCH   4 151
ATOM    151  O   UNL     1     142.334 176.219 193.299  0.00  0.00    -0.376 OA
BRANCH 151 152
ATOM    152  C   UNL     1     143.335 175.547 194.057  0.00  0.00    +0.037 C 
ATOM    153  H   UNL     1     143.785 176.224 194.790  0.00  0.00    +0.052 HD
ATOM    154  H   UNL     1     142.858 174.723 194.597  0.00  0.00    +0.052 HD
ATOM    155  H   UNL     1     144.104 175.128 193.405  0.00  0.00    +0.052 HD
ENDBRANCH 151 152
ENDBRANCH   4 151
TORSDOF 33
ENDMDL
