MODEL 1
REMARK VINA RESULT:      -4.7      0.000      0.000
REMARK  Name = Reidispongiolide A_conf3
REMARK  33 active torsions:
REMARK  status: ('A' for Active; 'I' for Inactive)
REMARK    1  A    between atoms: C_1  and  C_2
REMARK    2  A    between atoms: C_5  and  O_67
REMARK    3  A    between atoms: C_7  and  O_65
REMARK    4  A    between atoms: C_8  and  C_64
REMARK    5  A    between atoms: C_17  and  O_62
REMARK    6  A    between atoms: C_19  and  C_61
REMARK    7  A    between atoms: C_26  and  C_38
REMARK    8  A    between atoms: C_27  and  C_37
REMARK    9  A    between atoms: C_30  and  O_35
REMARK   10  A    between atoms: C_32  and  O_33
REMARK   11  A    between atoms: O_33  and  C_34
REMARK   12  A    between atoms: O_35  and  C_36
REMARK   13  A    between atoms: C_38  and  C_39
REMARK   14  A    between atoms: C_38  and  C_40
REMARK   15  A    between atoms: C_40  and  C_41
REMARK   16  A    between atoms: C_40  and  O_59
REMARK   17  A    between atoms: C_41  and  C_42
REMARK   18  A    between atoms: C_41  and  C_43
REMARK   19  A    between atoms: C_43  and  C_44
REMARK   20  A    between atoms: C_44  and  C_45
REMARK   21  A    between atoms: C_45  and  C_47
REMARK   22  A    between atoms: C_47  and  C_48
REMARK   23  A    between atoms: C_47  and  C_49
REMARK   24  A    between atoms: C_49  and  C_50
REMARK   25  A    between atoms: C_49  and  O_57
REMARK   26  A    between atoms: C_50  and  C_51
REMARK   27  A    between atoms: C_52  and  N_53
REMARK   28  A    between atoms: N_53  and  C_54
REMARK   29  A    between atoms: O_57  and  C_58
REMARK   30  A    between atoms: O_59  and  C_60
REMARK   31  A    between atoms: O_62  and  C_63
REMARK   32  A    between atoms: O_65  and  C_66
REMARK   33  A    between atoms: O_67  and  C_68
REMARK                            x       y       z     vdW  Elec       q    Type
REMARK                         _______ _______ _______ _____ _____    ______ ____
ROOT
ATOM      1  C   UNL     1     143.901 168.807 189.264  0.00  0.00    +0.001 C 
ATOM      2  C   UNL     1     144.646 168.239 188.061  0.00  0.00    -0.080 C 
ATOM      3  C   UNL     1     144.769 168.829 186.858  0.00  0.00    -0.059 C 
ATOM      4  C   UNL     1     145.420 168.337 185.591  0.00  0.00    +0.079 C 
ATOM      5  C   UNL     1     145.954 166.892 185.542  0.00  0.00    +0.004 C 
ATOM      6  C   UNL     1     147.260 166.601 186.316  0.00  0.00    +0.067 C 
ATOM      7  C   UNL     1     147.470 165.083 186.608  0.00  0.00    +0.020 C 
ATOM      8  C   UNL     1     147.505 164.189 185.326  0.00  0.00    +0.112 C 
ATOM      9  C   UNL     1     148.882 164.048 184.642  0.00  0.00    +0.006 C 
ATOM     10  C   UNL     1     149.698 162.898 185.169  0.00  0.00    -0.057 C 
ATOM     11  C   UNL     1     149.102 161.931 185.888  0.00  0.00    +0.022 C 
ATOM     12  C   UNL     1     147.650 161.895 186.136  0.00  0.00    +0.332 C 
ATOM     13  O   UNL     1     147.137 160.966 186.747  0.00  0.00    -0.246 OA
ATOM     14  O   UNL     1     146.915 162.889 185.586  0.00  0.00    -0.458 OA
ATOM     15  C   UNL     1     151.135 162.752 184.684  0.00  0.00    -0.004 C 
ATOM     16  C   UNL     1     152.334 162.596 185.668  0.00  0.00    +0.066 C 
ATOM     17  C   UNL     1     152.977 163.933 186.125  0.00  0.00    -0.005 C 
ATOM     18  C   UNL     1     152.519 164.579 187.421  0.00  0.00    -0.070 C 
ATOM     19  C   UNL     1     153.425 164.988 188.337  0.00  0.00    -0.062 C 
ATOM     20  C   UNL     1     153.115 165.647 189.589  0.00  0.00    -0.055 C 
ATOM     21  C   UNL     1     152.484 166.829 189.665  0.00  0.00    +0.023 C 
ATOM     22  C   UNL     1     152.068 167.340 190.980  0.00  0.00    +0.332 C 
ATOM     23  O   UNL     1     152.580 167.038 192.048  0.00  0.00    -0.246 OA
ATOM     24  O   UNL     1     150.976 168.119 190.796  0.00  0.00    -0.457 OA
ATOM     25  C   UNL     1     150.128 168.308 191.952  0.00  0.00    +0.114 C 
ATOM     26  C   UNL     1     149.749 169.813 192.127  0.00  0.00    +0.012 C 
ATOM     27  C   UNL     1     148.702 170.356 191.183  0.00  0.00    -0.079 C 
ATOM     28  C   UNL     1     147.524 170.862 191.604  0.00  0.00    -0.059 C 
ATOM     29  C   UNL     1     146.476 171.465 190.712  0.00  0.00    +0.079 C 
ATOM     30  C   UNL     1     145.810 170.505 189.707  0.00  0.00    +0.004 C 
ATOM     31  C   UNL     1     144.821 169.494 190.321  0.00  0.00    +0.067 C 
ATOM     32  H   UNL     1     143.440 167.933 189.750  0.00  0.00    +0.037 HD
ATOM     33  H   UNL     1     145.089 167.263 188.238  0.00  0.00    +0.057 HD
ATOM     34  H   UNL     1     144.333 169.818 186.728  0.00  0.00    +0.059 HD
ATOM     35  H   UNL     1     144.618 168.392 184.839  0.00  0.00    +0.064 HD
ATOM     36  H   UNL     1     146.135 166.664 184.486  0.00  0.00    +0.032 HD
ATOM     37  H   UNL     1     145.149 166.230 185.872  0.00  0.00    +0.032 HD
ATOM     38  H   UNL     1     147.233 167.130 187.276  0.00  0.00    +0.060 HD
ATOM     39  H   UNL     1     148.443 164.984 187.094  0.00  0.00    +0.036 HD
ATOM     40  H   UNL     1     146.838 164.631 184.579  0.00  0.00    +0.074 HD
ATOM     41  H   UNL     1     149.448 164.981 184.712  0.00  0.00    +0.035 HD
ATOM     42  H   UNL     1     148.719 163.859 183.572  0.00  0.00    +0.035 HD
ATOM     43  H   UNL     1     149.636 161.051 186.235  0.00  0.00    +0.069 HD
ATOM     44  H   UNL     1     151.364 163.558 183.970  0.00  0.00    +0.034 HD
ATOM     45  H   UNL     1     151.131 161.838 184.066  0.00  0.00    +0.034 HD
ATOM     46  H   UNL     1     153.102 162.095 185.059  0.00  0.00    +0.060 HD
ATOM     47  H   UNL     1     152.884 164.675 185.318  0.00  0.00    +0.034 HD
ATOM     48  H   UNL     1     154.054 163.739 186.210  0.00  0.00    +0.034 HD
ATOM     49  H   UNL     1     154.488 164.801 188.177  0.00  0.00    +0.062 HD
ATOM     50  H   UNL     1     153.415 165.119 190.493  0.00  0.00    +0.062 HD
ATOM     51  H   UNL     1     152.170 167.385 188.793  0.00  0.00    +0.069 HD
ATOM     52  H   UNL     1     150.703 168.081 192.857  0.00  0.00    +0.074 HD
ATOM     53  H   UNL     1     149.356 169.895 193.150  0.00  0.00    +0.038 HD
ATOM     54  H   UNL     1     148.941 170.354 190.119  0.00  0.00    +0.057 HD
ATOM     55  H   UNL     1     147.312 170.879 192.675  0.00  0.00    +0.059 HD
ATOM     56  H   UNL     1     146.952 172.275 190.139  0.00  0.00    +0.064 HD
ATOM     57  H   UNL     1     146.592 169.984 189.142  0.00  0.00    +0.032 HD
ATOM     58  H   UNL     1     145.256 171.136 189.000  0.00  0.00    +0.032 HD
ATOM     59  H   UNL     1     144.167 170.020 191.030  0.00  0.00    +0.060 HD
ENDROOT
BRANCH   1  60
ATOM     60  C   UNL     1     142.733 169.731 188.884  0.00  0.00    -0.057 C 
ATOM     61  H   UNL     1     142.093 169.251 188.137  0.00  0.00    +0.024 HD
ATOM     62  H   UNL     1     143.099 170.665 188.447  0.00  0.00    +0.024 HD
ATOM     63  H   UNL     1     142.103 169.983 189.741  0.00  0.00    +0.024 HD
ENDBRANCH   1  60
BRANCH  26  64
ATOM     64  C   UNL     1     151.005 170.693 192.049  0.00  0.00    -0.056 C 
ATOM     65  H   UNL     1     151.772 170.355 192.757  0.00  0.00    +0.024 HD
ATOM     66  H   UNL     1     150.769 171.735 192.279  0.00  0.00    +0.024 HD
ATOM     67  H   UNL     1     151.429 170.670 191.042  0.00  0.00    +0.024 HD
ENDBRANCH  26  64
BRANCH  18  68
ATOM     68  C   UNL     1     151.037 164.740 187.580  0.00  0.00    -0.043 C 
ATOM     69  H   UNL     1     150.664 164.083 188.368  0.00  0.00    +0.027 HD
ATOM     70  H   UNL     1     150.722 165.747 187.859  0.00  0.00    +0.027 HD
ATOM     71  H   UNL     1     150.557 164.498 186.631  0.00  0.00    +0.027 HD
ENDBRANCH  18  68
BRANCH   7  72
ATOM     72  C   UNL     1     146.443 164.607 187.645  0.00  0.00    -0.057 C 
ATOM     73  H   UNL     1     146.921 163.993 188.410  0.00  0.00    +0.023 HD
ATOM     74  H   UNL     1     145.941 165.441 188.144  0.00  0.00    +0.023 HD
ATOM     75  H   UNL     1     145.680 163.982 187.174  0.00  0.00    +0.023 HD
ENDBRANCH   7  72
BRANCH  25  76
ATOM     76  C   UNL     1     148.918 167.313 191.868  0.00  0.00    +0.020 C 
ATOM     77  H   UNL     1     148.046 167.847 192.263  0.00  0.00    +0.036 HD
BRANCH  76  78
ATOM     78  C   UNL     1     148.605 166.931 190.416  0.00  0.00    -0.057 C 
ATOM     79  H   UNL     1     147.571 167.151 190.137  0.00  0.00    +0.023 HD
ATOM     80  H   UNL     1     149.277 167.447 189.730  0.00  0.00    +0.023 HD
ATOM     81  H   UNL     1     148.759 165.867 190.229  0.00  0.00    +0.023 HD
ENDBRANCH  76  78
BRANCH  76  82
ATOM     82  C   UNL     1     149.168 166.089 192.821  0.00  0.00    +0.067 C 
ATOM     83  H   UNL     1     149.840 166.410 193.625  0.00  0.00    +0.060 HD
BRANCH  82  84
ATOM     84  C   UNL     1     149.826 164.788 192.269  0.00  0.00    -0.017 C 
ATOM     85  H   UNL     1     150.384 165.056 191.365  0.00  0.00    +0.032 HD
BRANCH  84  86
ATOM     86  C   UNL     1     150.886 164.295 193.272  0.00  0.00    -0.060 C 
ATOM     87  H   UNL     1     151.867 164.709 193.020  0.00  0.00    +0.023 HD
ATOM     88  H   UNL     1     150.979 163.203 193.247  0.00  0.00    +0.023 HD
ATOM     89  H   UNL     1     150.647 164.589 194.302  0.00  0.00    +0.023 HD
ENDBRANCH  84  86
BRANCH  84  90
ATOM     90  C   UNL     1     148.914 163.597 191.888  0.00  0.00    -0.041 C 
ATOM     91  H   UNL     1     147.870 163.912 192.019  0.00  0.00    +0.027 HD
ATOM     92  H   UNL     1     149.038 162.795 192.620  0.00  0.00    +0.027 HD
BRANCH  90  93
ATOM     93  C   UNL     1     149.076 163.010 190.488  0.00  0.00    +0.007 C 
ATOM     94  H   UNL     1     150.002 163.343 190.012  0.00  0.00    +0.034 HD
ATOM     95  H   UNL     1     148.243 163.320 189.846  0.00  0.00    +0.034 HD
BRANCH  93  96
ATOM     96  C   UNL     1     149.077 161.485 190.504  0.00  0.00    +0.139 C 
ATOM     97  O   UNL     1     148.352 160.883 191.303  0.00  0.00    -0.297 OA
BRANCH  96  98
ATOM     98  C   UNL     1     150.012 160.746 189.538  0.00  0.00    +0.041 C 
ATOM     99  H   UNL     1     150.207 161.453 188.730  0.00  0.00    +0.040 HD
BRANCH  98 100
ATOM    100  C   UNL     1     149.338 159.530 188.899  0.00  0.00    -0.053 C 
ATOM    101  H   UNL     1     149.812 159.241 187.956  0.00  0.00    +0.024 HD
ATOM    102  H   UNL     1     149.400 158.662 189.566  0.00  0.00    +0.024 HD
ATOM    103  H   UNL     1     148.273 159.719 188.719  0.00  0.00    +0.024 HD
ENDBRANCH  98 100
BRANCH  98 104
ATOM    104  C   UNL     1     151.382 160.417 190.182  0.00  0.00    +0.071 C 
ATOM    105  H   UNL     1     152.081 160.035 189.426  0.00  0.00    +0.061 HD
BRANCH 104 106
ATOM    106  C   UNL     1     152.079 161.578 190.932  0.00  0.00    -0.006 C 
ATOM    107  H   UNL     1     151.342 162.353 191.178  0.00  0.00    +0.033 HD
ATOM    108  H   UNL     1     152.411 161.198 191.907  0.00  0.00    +0.033 HD
BRANCH 106 109
ATOM    109  C   UNL     1     153.283 162.164 190.242  0.00  0.00    -0.067 C 
ATOM    110  C   UNL     1     154.119 161.433 189.492  0.00  0.00    -0.005 C 
ATOM    111  H   UNL     1     153.416 163.233 190.388  0.00  0.00    +0.059 HD
ATOM    112  H   UNL     1     153.903 160.376 189.347  0.00  0.00    +0.078 HD
BRANCH 110 113
ATOM    113  N   UNL     1     155.267 161.872 188.853  0.00  0.00    -0.284 N 
ATOM    114  C   UNL     1     155.597 161.612 187.523  0.00  0.00    +0.206 C 
ATOM    115  O   UNL     1     156.614 161.996 186.952  0.00  0.00    -0.279 OA
ATOM    116  H   UNL     1     154.850 161.021 186.981  0.00  0.00    +0.126 HD
BRANCH 113 117
ATOM    117  C   UNL     1     156.184 162.708 189.623  0.00  0.00    +0.007 C 
ATOM    118  H   UNL     1     156.660 162.081 190.387  0.00  0.00    +0.043 HD
ATOM    119  H   UNL     1     155.671 163.536 190.119  0.00  0.00    +0.043 HD
ATOM    120  H   UNL     1     156.950 163.120 188.957  0.00  0.00    +0.043 HD
ENDBRANCH 113 117
ENDBRANCH 110 113
ENDBRANCH 106 109
ENDBRANCH 104 106
BRANCH 104 121
ATOM    121  O   UNL     1     151.184 159.390 191.181  0.00  0.00    -0.379 OA
BRANCH 121 122
ATOM    122  C   UNL     1     152.228 158.418 191.207  0.00  0.00    +0.037 C 
ATOM    123  H   UNL     1     151.966 157.648 191.939  0.00  0.00    +0.052 HD
ATOM    124  H   UNL     1     152.342 157.943 190.231  0.00  0.00    +0.052 HD
ATOM    125  H   UNL     1     153.172 158.881 191.508  0.00  0.00    +0.052 HD
ENDBRANCH 121 122
ENDBRANCH 104 121
ENDBRANCH  98 104
ENDBRANCH  96  98
ENDBRANCH  93  96
ENDBRANCH  90  93
ENDBRANCH  84  90
ENDBRANCH  82  84
BRANCH  82 126
ATOM    126  O   UNL     1     147.913 165.735 193.435  0.00  0.00    -0.379 OA
BRANCH 126 127
ATOM    127  C   UNL     1     147.787 166.206 194.774  0.00  0.00    +0.037 C 
ATOM    128  H   UNL     1     146.828 166.717 194.908  0.00  0.00    +0.052 HD
ATOM    129  H   UNL     1     147.880 165.379 195.486  0.00  0.00    +0.052 HD
ATOM    130  H   UNL     1     148.592 166.924 194.965  0.00  0.00    +0.052 HD
ENDBRANCH 126 127
ENDBRANCH  82 126
ENDBRANCH  76  82
ENDBRANCH  25  76
BRANCH  31 131
ATOM    131  O   UNL     1     145.562 168.475 191.016  0.00  0.00    -0.379 OA
BRANCH 131 132
ATOM    132  C   UNL     1     144.735 167.380 191.403  0.00  0.00    +0.037 C 
ATOM    133  H   UNL     1     143.720 167.726 191.619  0.00  0.00    +0.052 HD
ATOM    134  H   UNL     1     144.698 166.666 190.575  0.00  0.00    +0.052 HD
ATOM    135  H   UNL     1     145.157 166.877 192.281  0.00  0.00    +0.052 HD
ENDBRANCH 131 132
ENDBRANCH  31 131
BRANCH  29 136
ATOM    136  O   UNL     1     145.458 172.009 191.571  0.00  0.00    -0.376 OA
BRANCH 136 137
ATOM    137  C   UNL     1     145.786 173.296 192.079  0.00  0.00    +0.037 C 
ATOM    138  H   UNL     1     145.218 174.072 191.554  0.00  0.00    +0.052 HD
ATOM    139  H   UNL     1     145.513 173.322 193.140  0.00  0.00    +0.052 HD
ATOM    140  H   UNL     1     146.859 173.482 191.992  0.00  0.00    +0.052 HD
ENDBRANCH 136 137
ENDBRANCH  29 136
BRANCH  16 141
ATOM    141  O   UNL     1     152.000 161.711 186.740  0.00  0.00    -0.379 OA
BRANCH 141 142
ATOM    142  C   UNL     1     152.313 160.350 186.482  0.00  0.00    +0.037 C 
ATOM    143  H   UNL     1     151.939 159.751 187.320  0.00  0.00    +0.052 HD
ATOM    144  H   UNL     1     153.394 160.193 186.400  0.00  0.00    +0.052 HD
ATOM    145  H   UNL     1     151.811 160.015 185.566  0.00  0.00    +0.052 HD
ENDBRANCH 141 142
ENDBRANCH  16 141
BRANCH   6 146
ATOM    146  O   UNL     1     148.373 167.061 185.540  0.00  0.00    -0.379 OA
BRANCH 146 147
ATOM    147  C   UNL     1     149.370 167.693 186.339  0.00  0.00    +0.037 C 
ATOM    148  H   UNL     1     150.322 167.162 186.241  0.00  0.00    +0.052 HD
ATOM    149  H   UNL     1     149.072 167.721 187.393  0.00  0.00    +0.052 HD
ATOM    150  H   UNL     1     149.501 168.721 185.986  0.00  0.00    +0.052 HD
ENDBRANCH 146 147
ENDBRANCH   6 146
BRANCH   4 151
ATOM    151  O   UNL     1     146.415 169.312 185.265  0.00  0.00    -0.376 OA
BRANCH 151 152
ATOM    152  C   UNL     1     146.148 170.597 185.819  0.00  0.00    +0.037 C 
ATOM    153  H   UNL     1     146.414 170.622 186.880  0.00  0.00    +0.052 HD
ATOM    154  H   UNL     1     146.766 171.324 185.294  0.00  0.00    +0.052 HD
ATOM    155  H   UNL     1     145.097 170.867 185.690  0.00  0.00    +0.052 HD
ENDBRANCH 151 152
ENDBRANCH   4 151
TORSDOF 33
ENDMDL
MODEL 2
REMARK VINA RESULT:      -4.6      3.110      5.809
REMARK  Name = Reidispongiolide A_conf3
REMARK  33 active torsions:
REMARK  status: ('A' for Active; 'I' for Inactive)
REMARK    1  A    between atoms: C_1  and  C_2
REMARK    2  A    between atoms: C_5  and  O_67
REMARK    3  A    between atoms: C_7  and  O_65
REMARK    4  A    between atoms: C_8  and  C_64
REMARK    5  A    between atoms: C_17  and  O_62
REMARK    6  A    between atoms: C_19  and  C_61
REMARK    7  A    between atoms: C_26  and  C_38
REMARK    8  A    between atoms: C_27  and  C_37
REMARK    9  A    between atoms: C_30  and  O_35
REMARK   10  A    between atoms: C_32  and  O_33
REMARK   11  A    between atoms: O_33  and  C_34
REMARK   12  A    between atoms: O_35  and  C_36
REMARK   13  A    between atoms: C_38  and  C_39
REMARK   14  A    between atoms: C_38  and  C_40
REMARK   15  A    between atoms: C_40  and  C_41
REMARK   16  A    between atoms: C_40  and  O_59
REMARK   17  A    between atoms: C_41  and  C_42
REMARK   18  A    between atoms: C_41  and  C_43
REMARK   19  A    between atoms: C_43  and  C_44
REMARK   20  A    between atoms: C_44  and  C_45
REMARK   21  A    between atoms: C_45  and  C_47
REMARK   22  A    between atoms: C_47  and  C_48
REMARK   23  A    between atoms: C_47  and  C_49
REMARK   24  A    between atoms: C_49  and  C_50
REMARK   25  A    between atoms: C_49  and  O_57
REMARK   26  A    between atoms: C_50  and  C_51
REMARK   27  A    between atoms: C_52  and  N_53
REMARK   28  A    between atoms: N_53  and  C_54
REMARK   29  A    between atoms: O_57  and  C_58
REMARK   30  A    between atoms: O_59  and  C_60
REMARK   31  A    between atoms: O_62  and  C_63
REMARK   32  A    between atoms: O_65  and  C_66
REMARK   33  A    between atoms: O_67  and  C_68
REMARK                            x       y       z     vdW  Elec       q    Type
REMARK                         _______ _______ _______ _____ _____    ______ ____
ROOT
ATOM      1  C   UNL     1     143.383 173.180 189.875  0.00  0.00    +0.001 C 
ATOM      2  C   UNL     1     143.719 172.961 188.404  0.00  0.00    -0.080 C 
ATOM      3  C   UNL     1     144.292 173.859 187.583  0.00  0.00    -0.059 C 
ATOM      4  C   UNL     1     144.608 173.776 186.112  0.00  0.00    +0.079 C 
ATOM      5  C   UNL     1     144.129 172.545 185.317  0.00  0.00    +0.004 C 
ATOM      6  C   UNL     1     144.892 171.221 185.549  0.00  0.00    +0.067 C 
ATOM      7  C   UNL     1     144.085 169.965 185.098  0.00  0.00    +0.020 C 
ATOM      8  C   UNL     1     143.673 169.983 183.589  0.00  0.00    +0.112 C 
ATOM      9  C   UNL     1     144.719 169.424 182.600  0.00  0.00    +0.006 C 
ATOM     10  C   UNL     1     144.590 167.942 182.365  0.00  0.00    -0.057 C 
ATOM     11  C   UNL     1     143.459 167.307 182.718  0.00  0.00    +0.022 C 
ATOM     12  C   UNL     1     142.285 168.005 183.270  0.00  0.00    +0.332 C 
ATOM     13  O   UNL     1     141.252 167.399 183.525  0.00  0.00    -0.246 OA
ATOM     14  O   UNL     1     142.381 169.348 183.398  0.00  0.00    -0.458 OA
ATOM     15  C   UNL     1     145.661 167.249 181.533  0.00  0.00    -0.004 C 
ATOM     16  C   UNL     1     146.406 165.974 182.030  0.00  0.00    +0.066 C 
ATOM     17  C   UNL     1     147.695 166.253 182.847  0.00  0.00    -0.005 C 
ATOM     18  C   UNL     1     147.623 166.311 184.363  0.00  0.00    -0.070 C 
ATOM     19  C   UNL     1     148.499 165.608 185.116  0.00  0.00    -0.062 C 
ATOM     20  C   UNL     1     148.553 165.611 186.564  0.00  0.00    -0.055 C 
ATOM     21  C   UNL     1     148.790 166.713 187.292  0.00  0.00    +0.023 C 
ATOM     22  C   UNL     1     148.664 166.649 188.755  0.00  0.00    +0.332 C 
ATOM     23  O   UNL     1     148.776 165.636 189.430  0.00  0.00    -0.246 OA
ATOM     24  O   UNL     1     148.317 167.881 189.197  0.00  0.00    -0.457 OA
ATOM     25  C   UNL     1     147.669 167.936 190.488  0.00  0.00    +0.114 C 
ATOM     26  C   UNL     1     148.295 169.054 191.381  0.00  0.00    +0.012 C 
ATOM     27  C   UNL     1     147.904 170.476 191.047  0.00  0.00    -0.079 C 
ATOM     28  C   UNL     1     147.264 171.285 191.917  0.00  0.00    -0.059 C 
ATOM     29  C   UNL     1     146.906 172.721 191.655  0.00  0.00    +0.079 C 
ATOM     30  C   UNL     1     145.883 172.967 190.530  0.00  0.00    +0.004 C 
ATOM     31  C   UNL     1     144.429 172.582 190.867  0.00  0.00    +0.067 C 
ATOM     32  H   UNL     1     142.436 172.640 190.034  0.00  0.00    +0.037 HD
ATOM     33  H   UNL     1     143.440 171.980 188.031  0.00  0.00    +0.057 HD
ATOM     34  H   UNL     1     144.580 174.822 188.001  0.00  0.00    +0.059 HD
ATOM     35  H   UNL     1     144.087 174.642 185.676  0.00  0.00    +0.064 HD
ATOM     36  H   UNL     1     144.224 172.804 184.257  0.00  0.00    +0.032 HD
ATOM     37  H   UNL     1     143.061 172.418 185.514  0.00  0.00    +0.032 HD
ATOM     38  H   UNL     1     145.113 171.116 186.618  0.00  0.00    +0.060 HD
ATOM     39  H   UNL     1     144.735 169.100 185.242  0.00  0.00    +0.036 HD
ATOM     40  H   UNL     1     143.498 171.022 183.292  0.00  0.00    +0.074 HD
ATOM     41  H   UNL     1     145.733 169.671 182.926  0.00  0.00    +0.035 HD
ATOM     42  H   UNL     1     144.572 169.915 181.629  0.00  0.00    +0.035 HD
ATOM     43  H   UNL     1     143.295 166.254 182.511  0.00  0.00    +0.069 HD
ATOM     44  H   UNL     1     146.405 167.990 181.204  0.00  0.00    +0.034 HD
ATOM     45  H   UNL     1     145.146 166.954 180.602  0.00  0.00    +0.034 HD
ATOM     46  H   UNL     1     146.747 165.497 181.099  0.00  0.00    +0.060 HD
ATOM     47  H   UNL     1     148.159 167.183 182.488  0.00  0.00    +0.034 HD
ATOM     48  H   UNL     1     148.405 165.460 182.577  0.00  0.00    +0.034 HD
ATOM     49  H   UNL     1     149.223 164.947 184.639  0.00  0.00    +0.062 HD
ATOM     50  H   UNL     1     148.375 164.652 187.049  0.00  0.00    +0.062 HD
ATOM     51  H   UNL     1     148.971 167.682 186.849  0.00  0.00    +0.069 HD
ATOM     52  H   UNL     1     147.892 167.014 191.037  0.00  0.00    +0.074 HD
ATOM     53  H   UNL     1     147.946 168.839 192.401  0.00  0.00    +0.038 HD
ATOM     54  H   UNL     1     148.186 170.852 190.064  0.00  0.00    +0.057 HD
ATOM     55  H   UNL     1     147.012 170.899 192.907  0.00  0.00    +0.059 HD
ATOM     56  H   UNL     1     147.832 173.252 191.390  0.00  0.00    +0.064 HD
ATOM     57  H   UNL     1     146.219 172.448 189.624  0.00  0.00    +0.032 HD
ATOM     58  H   UNL     1     145.909 174.045 190.321  0.00  0.00    +0.032 HD
ATOM     59  H   UNL     1     144.183 172.961 191.869  0.00  0.00    +0.060 HD
ENDROOT
BRANCH   1  60
ATOM     60  C   UNL     1     143.084 174.646 190.226  0.00  0.00    -0.057 C 
ATOM     61  H   UNL     1     143.911 175.291 189.910  0.00  0.00    +0.024 HD
ATOM     62  H   UNL     1     142.965 174.774 191.307  0.00  0.00    +0.024 HD
ATOM     63  H   UNL     1     142.177 175.016 189.741  0.00  0.00    +0.024 HD
ENDBRANCH   1  60
BRANCH  26  64
ATOM     64  C   UNL     1     149.826 168.939 191.388  0.00  0.00    -0.056 C 
ATOM     65  H   UNL     1     150.146 167.907 191.581  0.00  0.00    +0.024 HD
ATOM     66  H   UNL     1     150.264 169.579 192.157  0.00  0.00    +0.024 HD
ATOM     67  H   UNL     1     150.239 169.255 190.427  0.00  0.00    +0.024 HD
ENDBRANCH  26  64
BRANCH  18  68
ATOM     68  C   UNL     1     146.556 167.199 184.930  0.00  0.00    -0.043 C 
ATOM     69  H   UNL     1     146.444 167.024 186.002  0.00  0.00    +0.027 HD
ATOM     70  H   UNL     1     146.756 168.266 184.822  0.00  0.00    +0.027 HD
ATOM     71  H   UNL     1     145.618 166.987 184.416  0.00  0.00    +0.027 HD
ENDBRANCH  18  68
BRANCH   7  72
ATOM     72  C   UNL     1     142.895 169.746 186.043  0.00  0.00    -0.057 C 
ATOM     73  H   UNL     1     143.211 169.223 186.948  0.00  0.00    +0.023 HD
ATOM     74  H   UNL     1     142.424 170.687 186.341  0.00  0.00    +0.023 HD
ATOM     75  H   UNL     1     142.136 169.119 185.569  0.00  0.00    +0.023 HD
ENDBRANCH   7  72
BRANCH  25  76
ATOM     76  C   UNL     1     146.117 168.028 190.279  0.00  0.00    +0.020 C 
ATOM     77  H   UNL     1     145.784 168.933 190.801  0.00  0.00    +0.036 HD
BRANCH  76  78
ATOM     78  C   UNL     1     145.758 168.193 188.798  0.00  0.00    -0.057 C 
ATOM     79  H   UNL     1     145.154 169.083 188.608  0.00  0.00    +0.023 HD
ATOM     80  H   UNL     1     146.661 168.238 188.187  0.00  0.00    +0.023 HD
ATOM     81  H   UNL     1     145.190 167.344 188.415  0.00  0.00    +0.023 HD
ENDBRANCH  76  78
BRANCH  76  82
ATOM     82  C   UNL     1     145.412 166.814 190.986  0.00  0.00    +0.067 C 
ATOM     83  H   UNL     1     144.379 166.759 190.626  0.00  0.00    +0.060 HD
BRANCH  82  84
ATOM     84  C   UNL     1     145.280 166.780 192.539  0.00  0.00    -0.017 C 
ATOM     85  H   UNL     1     145.624 167.748 192.922  0.00  0.00    +0.032 HD
BRANCH  84  86
ATOM     86  C   UNL     1     143.789 166.699 192.916  0.00  0.00    -0.060 C 
ATOM     87  H   UNL     1     143.385 165.715 192.656  0.00  0.00    +0.023 HD
ATOM     88  H   UNL     1     143.201 167.446 192.369  0.00  0.00    +0.023 HD
ATOM     89  H   UNL     1     143.625 166.862 193.989  0.00  0.00    +0.023 HD
ENDBRANCH  84  86
BRANCH  84  90
ATOM     90  C   UNL     1     146.049 165.694 193.328  0.00  0.00    -0.041 C 
ATOM     91  H   UNL     1     145.848 164.722 192.856  0.00  0.00    +0.027 HD
ATOM     92  H   UNL     1     145.616 165.594 194.326  0.00  0.00    +0.027 HD
BRANCH  90  93
ATOM     93  C   UNL     1     147.560 165.866 193.467  0.00  0.00    +0.007 C 
ATOM     94  H   UNL     1     148.000 166.326 192.579  0.00  0.00    +0.034 HD
ATOM     95  H   UNL     1     148.043 164.891 193.609  0.00  0.00    +0.034 HD
BRANCH  93  96
ATOM     96  C   UNL     1     147.930 166.721 194.673  0.00  0.00    +0.139 C 
ATOM     97  O   UNL     1     147.656 167.926 194.675  0.00  0.00    -0.297 OA
BRANCH  96  98
ATOM     98  C   UNL     1     148.667 166.054 195.843  0.00  0.00    +0.041 C 
ATOM     99  H   UNL     1     148.063 165.183 196.102  0.00  0.00    +0.040 HD
BRANCH  98 100
ATOM    100  C   UNL     1     148.702 166.946 197.086  0.00  0.00    -0.053 C 
ATOM    101  H   UNL     1     147.701 167.258 197.400  0.00  0.00    +0.024 HD
ATOM    102  H   UNL     1     149.148 166.408 197.931  0.00  0.00    +0.024 HD
ATOM    103  H   UNL     1     149.315 167.838 196.915  0.00  0.00    +0.024 HD
ENDBRANCH  98 100
BRANCH  98 104
ATOM    104  C   UNL     1     150.063 165.523 195.432  0.00  0.00    +0.071 C 
ATOM    105  H   UNL     1     149.963 164.660 194.761  0.00  0.00    +0.061 HD
BRANCH 104 106
ATOM    106  C   UNL     1     151.010 166.545 194.757  0.00  0.00    -0.006 C 
ATOM    107  H   UNL     1     150.560 167.545 194.793  0.00  0.00    +0.033 HD
ATOM    108  H   UNL     1     151.911 166.629 195.379  0.00  0.00    +0.033 HD
BRANCH 106 109
ATOM    109  C   UNL     1     151.455 166.192 193.363  0.00  0.00    -0.067 C 
ATOM    110  C   UNL     1     151.012 165.109 192.709  0.00  0.00    -0.005 C 
ATOM    111  H   UNL     1     152.156 166.893 192.917  0.00  0.00    +0.059 HD
ATOM    112  H   UNL     1     150.274 164.472 193.193  0.00  0.00    +0.078 HD
BRANCH 110 113
ATOM    113  N   UNL     1     151.390 164.683 191.446  0.00  0.00    -0.284 N 
ATOM    114  C   UNL     1     152.184 165.406 190.557  0.00  0.00    +0.206 C 
ATOM    115  O   UNL     1     152.520 165.034 189.436  0.00  0.00    -0.279 OA
ATOM    116  H   UNL     1     152.521 166.376 190.941  0.00  0.00    +0.126 HD
BRANCH 113 117
ATOM    117  C   UNL     1     150.954 163.352 191.031  0.00  0.00    +0.007 C 
ATOM    118  H   UNL     1     150.433 163.447 190.071  0.00  0.00    +0.043 HD
ATOM    119  H   UNL     1     150.275 162.895 191.755  0.00  0.00    +0.043 HD
ATOM    120  H   UNL     1     151.828 162.702 190.912  0.00  0.00    +0.043 HD
ENDBRANCH 113 117
ENDBRANCH 110 113
ENDBRANCH 106 109
ENDBRANCH 104 106
BRANCH 104 121
ATOM    121  O   UNL     1     150.760 165.095 196.625  0.00  0.00    -0.379 OA
BRANCH 121 122
ATOM    122  C   UNL     1     151.208 163.743 196.563  0.00  0.00    +0.037 C 
ATOM    123  H   UNL     1     152.249 163.707 196.902  0.00  0.00    +0.052 HD
ATOM    124  H   UNL     1     150.611 163.104 197.215  0.00  0.00    +0.052 HD
ATOM    125  H   UNL     1     151.161 163.372 195.535  0.00  0.00    +0.052 HD
ENDBRANCH 121 122
ENDBRANCH 104 121
ENDBRANCH  98 104
ENDBRANCH  96  98
ENDBRANCH  93  96
ENDBRANCH  90  93
ENDBRANCH  84  90
ENDBRANCH  82  84
BRANCH  82 126
ATOM    126  O   UNL     1     146.073 165.604 190.563  0.00  0.00    -0.379 OA
BRANCH 126 127
ATOM    127  C   UNL     1     145.255 164.771 189.746  0.00  0.00    +0.037 C 
ATOM    128  H   UNL     1     144.387 165.330 189.382  0.00  0.00    +0.052 HD
ATOM    129  H   UNL     1     145.830 164.370 188.904  0.00  0.00    +0.052 HD
ATOM    130  H   UNL     1     144.898 163.933 190.354  0.00  0.00    +0.052 HD
ENDBRANCH 126 127
ENDBRANCH  82 126
ENDBRANCH  76  82
ENDBRANCH  25  76
BRANCH  31 131
ATOM    131  O   UNL     1     144.308 171.148 190.854  0.00  0.00    -0.379 OA
BRANCH 131 132
ATOM    132  C   UNL     1     143.008 170.716 191.249  0.00  0.00    +0.037 C 
ATOM    133  H   UNL     1     142.412 170.449 190.372  0.00  0.00    +0.052 HD
ATOM    134  H   UNL     1     143.116 169.834 191.887  0.00  0.00    +0.052 HD
ATOM    135  H   UNL     1     142.505 171.503 191.823  0.00  0.00    +0.052 HD
ENDBRANCH 131 132
ENDBRANCH  31 131
BRANCH  29 136
ATOM    136  O   UNL     1     146.375 173.250 192.883  0.00  0.00    -0.376 OA
BRANCH 136 137
ATOM    137  C   UNL     1     147.383 173.615 193.816  0.00  0.00    +0.037 C 
ATOM    138  H   UNL     1     147.599 174.687 193.749  0.00  0.00    +0.052 HD
ATOM    139  H   UNL     1     147.009 173.397 194.823  0.00  0.00    +0.052 HD
ATOM    140  H   UNL     1     148.292 173.031 193.649  0.00  0.00    +0.052 HD
ENDBRANCH 136 137
ENDBRANCH  29 136
BRANCH  16 141
ATOM    141  O   UNL     1     145.497 165.068 182.662  0.00  0.00    -0.379 OA
BRANCH 141 142
ATOM    142  C   UNL     1     145.765 163.700 182.389  0.00  0.00    +0.037 C 
ATOM    143  H   UNL     1     146.853 163.569 182.350  0.00  0.00    +0.052 HD
ATOM    144  H   UNL     1     145.344 163.390 181.427  0.00  0.00    +0.052 HD
ATOM    145  H   UNL     1     145.370 163.071 183.197  0.00  0.00    +0.052 HD
ENDBRANCH 141 142
ENDBRANCH  16 141
BRANCH   6 146
ATOM    146  O   UNL     1     146.115 171.253 184.803  0.00  0.00    -0.379 OA
BRANCH 146 147
ATOM    147  C   UNL     1     147.209 170.694 185.525  0.00  0.00    +0.037 C 
ATOM    148  H   UNL     1     148.146 170.884 184.993  0.00  0.00    +0.052 HD
ATOM    149  H   UNL     1     147.078 169.614 185.665  0.00  0.00    +0.052 HD
ATOM    150  H   UNL     1     147.258 171.170 186.509  0.00  0.00    +0.052 HD
ENDBRANCH 146 147
ENDBRANCH   6 146
BRANCH   4 151
ATOM    151  O   UNL     1     146.018 173.994 186.008  0.00  0.00    -0.376 OA
BRANCH 151 152
ATOM    152  C   UNL     1     146.353 175.216 185.357  0.00  0.00    +0.037 C 
ATOM    153  H   UNL     1     147.235 175.669 185.819  0.00  0.00    +0.052 HD
ATOM    154  H   UNL     1     146.589 174.989 184.318  0.00  0.00    +0.052 HD
ATOM    155  H   UNL     1     145.515 175.916 185.385  0.00  0.00    +0.052 HD
ENDBRANCH 151 152
ENDBRANCH   4 151
TORSDOF 33
ENDMDL
MODEL 3
REMARK VINA RESULT:      -4.6      1.543      2.897
REMARK  Name = Reidispongiolide A_conf3
REMARK  33 active torsions:
REMARK  status: ('A' for Active; 'I' for Inactive)
REMARK    1  A    between atoms: C_1  and  C_2
REMARK    2  A    between atoms: C_5  and  O_67
REMARK    3  A    between atoms: C_7  and  O_65
REMARK    4  A    between atoms: C_8  and  C_64
REMARK    5  A    between atoms: C_17  and  O_62
REMARK    6  A    between atoms: C_19  and  C_61
REMARK    7  A    between atoms: C_26  and  C_38
REMARK    8  A    between atoms: C_27  and  C_37
REMARK    9  A    between atoms: C_30  and  O_35
REMARK   10  A    between atoms: C_32  and  O_33
REMARK   11  A    between atoms: O_33  and  C_34
REMARK   12  A    between atoms: O_35  and  C_36
REMARK   13  A    between atoms: C_38  and  C_39
REMARK   14  A    between atoms: C_38  and  C_40
REMARK   15  A    between atoms: C_40  and  C_41
REMARK   16  A    between atoms: C_40  and  O_59
REMARK   17  A    between atoms: C_41  and  C_42
REMARK   18  A    between atoms: C_41  and  C_43
REMARK   19  A    between atoms: C_43  and  C_44
REMARK   20  A    between atoms: C_44  and  C_45
REMARK   21  A    between atoms: C_45  and  C_47
REMARK   22  A    between atoms: C_47  and  C_48
REMARK   23  A    between atoms: C_47  and  C_49
REMARK   24  A    between atoms: C_49  and  C_50
REMARK   25  A    between atoms: C_49  and  O_57
REMARK   26  A    between atoms: C_50  and  C_51
REMARK   27  A    between atoms: C_52  and  N_53
REMARK   28  A    between atoms: N_53  and  C_54
REMARK   29  A    between atoms: O_57  and  C_58
REMARK   30  A    between atoms: O_59  and  C_60
REMARK   31  A    between atoms: O_62  and  C_63
REMARK   32  A    between atoms: O_65  and  C_66
REMARK   33  A    between atoms: O_67  and  C_68
REMARK                            x       y       z     vdW  Elec       q    Type
REMARK                         _______ _______ _______ _____ _____    ______ ____
ROOT
ATOM      1  C   UNL     1     143.762 168.705 189.266  0.00  0.00    +0.001 C 
ATOM      2  C   UNL     1     144.523 168.181 188.053  0.00  0.00    -0.080 C 
ATOM      3  C   UNL     1     144.596 168.778 186.849  0.00  0.00    -0.059 C 
ATOM      4  C   UNL     1     145.258 168.324 185.573  0.00  0.00    +0.079 C 
ATOM      5  C   UNL     1     145.874 166.912 185.516  0.00  0.00    +0.004 C 
ATOM      6  C   UNL     1     147.204 166.696 186.273  0.00  0.00    +0.067 C 
ATOM      7  C   UNL     1     147.505 165.193 186.562  0.00  0.00    +0.020 C 
ATOM      8  C   UNL     1     147.575 164.302 185.278  0.00  0.00    +0.112 C 
ATOM      9  C   UNL     1     148.949 164.241 184.576  0.00  0.00    +0.006 C 
ATOM     10  C   UNL     1     149.837 163.140 185.092  0.00  0.00    -0.057 C 
ATOM     11  C   UNL     1     149.306 162.140 185.818  0.00  0.00    +0.022 C 
ATOM     12  C   UNL     1     147.862 162.021 186.084  0.00  0.00    +0.332 C 
ATOM     13  O   UNL     1     147.412 161.064 186.701  0.00  0.00    -0.246 OA
ATOM     14  O   UNL     1     147.064 162.970 185.545  0.00  0.00    -0.458 OA
ATOM     15  C   UNL     1     151.273 163.077 184.589  0.00  0.00    -0.004 C 
ATOM     16  C   UNL     1     152.491 162.991 185.557  0.00  0.00    +0.066 C 
ATOM     17  C   UNL     1     153.062 164.362 186.006  0.00  0.00    -0.005 C 
ATOM     18  C   UNL     1     152.585 164.981 187.308  0.00  0.00    -0.070 C 
ATOM     19  C   UNL     1     153.477 165.442 188.213  0.00  0.00    -0.062 C 
ATOM     20  C   UNL     1     153.147 166.082 189.469  0.00  0.00    -0.055 C 
ATOM     21  C   UNL     1     152.449 167.225 189.554  0.00  0.00    +0.023 C 
ATOM     22  C   UNL     1     152.022 167.712 190.875  0.00  0.00    +0.332 C 
ATOM     23  O   UNL     1     152.563 167.439 191.936  0.00  0.00    -0.246 OA
ATOM     24  O   UNL     1     150.885 168.427 190.706  0.00  0.00    -0.457 OA
ATOM     25  C   UNL     1     150.042 168.566 191.872  0.00  0.00    +0.114 C 
ATOM     26  C   UNL     1     149.579 170.047 192.054  0.00  0.00    +0.012 C 
ATOM     27  C   UNL     1     148.490 170.529 191.123  0.00  0.00    -0.079 C 
ATOM     28  C   UNL     1     147.290 170.966 191.560  0.00  0.00    -0.059 C 
ATOM     29  C   UNL     1     146.198 171.508 190.682  0.00  0.00    +0.079 C 
ATOM     30  C   UNL     1     145.575 170.510 189.685  0.00  0.00    +0.004 C 
ATOM     31  C   UNL     1     144.655 169.444 190.311  0.00  0.00    +0.067 C 
ATOM     32  H   UNL     1     143.358 167.806 189.757  0.00  0.00    +0.037 HD
ATOM     33  H   UNL     1     145.023 167.233 188.223  0.00  0.00    +0.057 HD
ATOM     34  H   UNL     1     144.103 169.739 186.725  0.00  0.00    +0.059 HD
ATOM     35  H   UNL     1     144.444 168.332 184.831  0.00  0.00    +0.064 HD
ATOM     36  H   UNL     1     146.054 166.695 184.458  0.00  0.00    +0.032 HD
ATOM     37  H   UNL     1     145.113 166.205 185.856  0.00  0.00    +0.032 HD
ATOM     38  H   UNL     1     147.159 167.223 187.234  0.00  0.00    +0.060 HD
ATOM     39  H   UNL     1     148.488 165.151 187.035  0.00  0.00    +0.036 HD
ATOM     40  H   UNL     1     146.874 164.706 184.540  0.00  0.00    +0.074 HD
ATOM     41  H   UNL     1     149.461 165.205 184.640  0.00  0.00    +0.035 HD
ATOM     42  H   UNL     1     148.782 164.043 183.509  0.00  0.00    +0.035 HD
ATOM     43  H   UNL     1     149.895 161.293 186.157  0.00  0.00    +0.069 HD
ATOM     44  H   UNL     1     151.446 163.895 183.872  0.00  0.00    +0.034 HD
ATOM     45  H   UNL     1     151.314 162.165 183.970  0.00  0.00    +0.034 HD
ATOM     46  H   UNL     1     153.279 162.535 184.937  0.00  0.00    +0.060 HD
ATOM     47  H   UNL     1     152.917 165.098 185.202  0.00  0.00    +0.034 HD
ATOM     48  H   UNL     1     154.150 164.231 186.077  0.00  0.00    +0.034 HD
ATOM     49  H   UNL     1     154.547 165.316 188.039  0.00  0.00    +0.062 HD
ATOM     50  H   UNL     1     153.488 165.572 190.369  0.00  0.00    +0.062 HD
ATOM     51  H   UNL     1     152.092 167.762 188.686  0.00  0.00    +0.069 HD
ATOM     52  H   UNL     1     150.641 168.373 192.770  0.00  0.00    +0.074 HD
ATOM     53  H   UNL     1     149.195 170.106 193.082  0.00  0.00    +0.038 HD
ATOM     54  H   UNL     1     148.715 170.540 190.056  0.00  0.00    +0.057 HD
ATOM     55  H   UNL     1     147.092 170.971 192.634  0.00  0.00    +0.059 HD
ATOM     56  H   UNL     1     146.619 172.343 190.104  0.00  0.00    +0.064 HD
ATOM     57  H   UNL     1     146.379 170.036 189.110  0.00  0.00    +0.032 HD
ATOM     58  H   UNL     1     144.977 171.109 188.986  0.00  0.00    +0.032 HD
ATOM     59  H   UNL     1     143.981 169.932 191.029  0.00  0.00    +0.060 HD
ENDROOT
BRANCH   1  60
ATOM     60  C   UNL     1     142.538 169.560 188.901  0.00  0.00    -0.057 C 
ATOM     61  H   UNL     1     141.800 168.961 188.360  0.00  0.00    +0.024 HD
ATOM     62  H   UNL     1     142.822 170.394 188.250  0.00  0.00    +0.024 HD
ATOM     63  H   UNL     1     142.041 169.976 189.782  0.00  0.00    +0.024 HD
ENDBRANCH   1  60
BRANCH  26  64
ATOM     64  C   UNL     1     150.781 170.998 191.960  0.00  0.00    -0.056 C 
ATOM     65  H   UNL     1     150.524 171.911 191.407  0.00  0.00    +0.024 HD
ATOM     66  H   UNL     1     151.621 170.520 191.452  0.00  0.00    +0.024 HD
ATOM     67  H   UNL     1     151.124 171.284 192.958  0.00  0.00    +0.024 HD
ENDBRANCH  26  64
BRANCH  18  68
ATOM     68  C   UNL     1     151.098 165.057 187.487  0.00  0.00    -0.043 C 
ATOM     69  H   UNL     1     150.682 165.870 186.889  0.00  0.00    +0.027 HD
ATOM     70  H   UNL     1     150.563 164.157 187.179  0.00  0.00    +0.027 HD
ATOM     71  H   UNL     1     150.883 165.220 188.544  0.00  0.00    +0.027 HD
ENDBRANCH  18  68
BRANCH   7  72
ATOM     72  C   UNL     1     146.521 164.659 187.611  0.00  0.00    -0.057 C 
ATOM     73  H   UNL     1     146.582 163.572 187.682  0.00  0.00    +0.023 HD
ATOM     74  H   UNL     1     146.708 165.076 188.605  0.00  0.00    +0.023 HD
ATOM     75  H   UNL     1     145.491 164.896 187.331  0.00  0.00    +0.023 HD
ENDBRANCH   7  72
BRANCH  25  76
ATOM     76  C   UNL     1     148.890 167.503 191.804  0.00  0.00    +0.020 C 
ATOM     77  H   UNL     1     147.947 168.062 191.824  0.00  0.00    +0.036 HD
BRANCH  76  78
ATOM     78  C   UNL     1     148.930 166.717 190.488  0.00  0.00    -0.057 C 
ATOM     79  H   UNL     1     149.935 166.656 190.064  0.00  0.00    +0.023 HD
ATOM     80  H   UNL     1     148.541 165.708 190.631  0.00  0.00    +0.023 HD
ATOM     81  H   UNL     1     148.296 167.166 189.722  0.00  0.00    +0.023 HD
ENDBRANCH  76  78
BRANCH  76  82
ATOM     82  C   UNL     1     148.914 166.609 193.095  0.00  0.00    +0.067 C 
ATOM     83  H   UNL     1     148.645 167.235 193.953  0.00  0.00    +0.060 HD
BRANCH  82  84
ATOM     84  C   UNL     1     150.232 165.901 193.534  0.00  0.00    -0.017 C 
ATOM     85  H   UNL     1     151.070 166.483 193.134  0.00  0.00    +0.032 HD
BRANCH  84  86
ATOM     86  C   UNL     1     150.366 165.994 195.066  0.00  0.00    -0.060 C 
ATOM     87  H   UNL     1     150.894 165.117 195.454  0.00  0.00    +0.023 HD
ATOM     88  H   UNL     1     149.382 166.020 195.550  0.00  0.00    +0.023 HD
ATOM     89  H   UNL     1     150.919 166.890 195.378  0.00  0.00    +0.023 HD
ENDBRANCH  84  86
BRANCH  84  90
ATOM     90  C   UNL     1     150.468 164.434 193.105  0.00  0.00    -0.041 C 
ATOM     91  H   UNL     1     149.508 163.902 193.165  0.00  0.00    +0.027 HD
ATOM     92  H   UNL     1     151.092 163.933 193.849  0.00  0.00    +0.027 HD
BRANCH  90  93
ATOM     93  C   UNL     1     151.072 164.196 191.722  0.00  0.00    +0.007 C 
ATOM     94  H   UNL     1     152.162 164.273 191.736  0.00  0.00    +0.034 HD
ATOM     95  H   UNL     1     150.696 164.940 191.010  0.00  0.00    +0.034 HD
BRANCH  93  96
ATOM     96  C   UNL     1     150.703 162.826 191.165  0.00  0.00    +0.139 C 
ATOM     97  O   UNL     1     149.520 162.563 190.924  0.00  0.00    -0.297 OA
BRANCH  96  98
ATOM     98  C   UNL     1     151.823 161.799 190.951  0.00  0.00    +0.041 C 
ATOM     99  H   UNL     1     152.305 161.695 191.926  0.00  0.00    +0.040 HD
BRANCH  98 100
ATOM    100  C   UNL     1     152.896 162.308 189.987  0.00  0.00    -0.053 C 
ATOM    101  H   UNL     1     153.261 161.521 189.319  0.00  0.00    +0.024 HD
ATOM    102  H   UNL     1     152.492 163.104 189.350  0.00  0.00    +0.024 HD
ATOM    103  H   UNL     1     153.747 162.735 190.531  0.00  0.00    +0.024 HD
ENDBRANCH  98 100
BRANCH  98 104
ATOM    104  C   UNL     1     151.275 160.401 190.574  0.00  0.00    +0.071 C 
ATOM    105  H   UNL     1     150.568 160.046 191.335  0.00  0.00    +0.061 HD
BRANCH 104 106
ATOM    106  C   UNL     1     150.583 160.289 189.193  0.00  0.00    -0.006 C 
ATOM    107  H   UNL     1     150.385 161.294 188.798  0.00  0.00    +0.033 HD
ATOM    108  H   UNL     1     151.306 159.857 188.489  0.00  0.00    +0.033 HD
BRANCH 106 109
ATOM    109  C   UNL     1     149.346 159.431 189.156  0.00  0.00    -0.067 C 
ATOM    110  C   UNL     1     148.498 159.331 190.189  0.00  0.00    -0.005 C 
ATOM    111  H   UNL     1     149.185 158.906 188.218  0.00  0.00    +0.059 HD
ATOM    112  H   UNL     1     148.692 159.920 191.083  0.00  0.00    +0.078 HD
BRANCH 110 113
ATOM    113  N   UNL     1     147.362 158.542 190.263  0.00  0.00    -0.284 N 
ATOM    114  C   UNL     1     147.284 157.204 189.877  0.00  0.00    +0.206 C 
ATOM    115  O   UNL     1     146.279 156.501 189.938  0.00  0.00    -0.279 OA
ATOM    116  H   UNL     1     148.227 156.788 189.505  0.00  0.00    +0.126 HD
BRANCH 113 117
ATOM    117  C   UNL     1     146.161 159.151 190.829  0.00  0.00    +0.007 C 
ATOM    118  H   UNL     1     145.504 159.446 190.002  0.00  0.00    +0.043 HD
ATOM    119  H   UNL     1     146.389 160.036 191.428  0.00  0.00    +0.043 HD
ATOM    120  H   UNL     1     145.646 158.421 191.464  0.00  0.00    +0.043 HD
ENDBRANCH 113 117
ENDBRANCH 110 113
ENDBRANCH 106 109
ENDBRANCH 104 106
BRANCH 104 121
ATOM    121  O   UNL     1     152.384 159.474 190.514  0.00  0.00    -0.379 OA
BRANCH 121 122
ATOM    122  C   UNL     1     152.203 158.322 191.335  0.00  0.00    +0.037 C 
ATOM    123  H   UNL     1     152.232 157.434 190.696  0.00  0.00    +0.052 HD
ATOM    124  H   UNL     1     153.001 158.242 192.075  0.00  0.00    +0.052 HD
ATOM    125  H   UNL     1     151.232 158.362 191.838  0.00  0.00    +0.052 HD
ENDBRANCH 121 122
ENDBRANCH 104 121
ENDBRANCH  98 104
ENDBRANCH  96  98
ENDBRANCH  93  96
ENDBRANCH  90  93
ENDBRANCH  84  90
ENDBRANCH  82  84
BRANCH  82 126
ATOM    126  O   UNL     1     147.886 165.606 192.965  0.00  0.00    -0.379 OA
BRANCH 126 127
ATOM    127  C   UNL     1     146.836 165.748 193.918  0.00  0.00    +0.037 C 
ATOM    128  H   UNL     1     146.960 166.675 194.486  0.00  0.00    +0.052 HD
ATOM    129  H   UNL     1     145.859 165.732 193.424  0.00  0.00    +0.052 HD
ATOM    130  H   UNL     1     146.887 164.905 194.616  0.00  0.00    +0.052 HD
ENDBRANCH 126 127
ENDBRANCH  82 126
ENDBRANCH  76  82
ENDBRANCH  25  76
BRANCH  31 131
ATOM    131  O   UNL     1     145.462 168.470 190.996  0.00  0.00    -0.379 OA
BRANCH 131 132
ATOM    132  C   UNL     1     144.705 167.328 191.389  0.00  0.00    +0.037 C 
ATOM    133  H   UNL     1     144.094 166.969 190.555  0.00  0.00    +0.052 HD
ATOM    134  H   UNL     1     145.401 166.537 191.685  0.00  0.00    +0.052 HD
ATOM    135  H   UNL     1     144.067 167.571 192.247  0.00  0.00    +0.052 HD
ENDBRANCH 131 132
ENDBRANCH  31 131
BRANCH  29 136
ATOM    136  O   UNL     1     145.162 171.993 191.554  0.00  0.00    -0.376 OA
BRANCH 136 137
ATOM    137  C   UNL     1     144.897 173.380 191.390  0.00  0.00    +0.037 C 
ATOM    138  H   UNL     1     143.866 173.611 191.679  0.00  0.00    +0.052 HD
ATOM    139  H   UNL     1     145.576 173.935 192.047  0.00  0.00    +0.052 HD
ATOM    140  H   UNL     1     145.083 173.687 190.358  0.00  0.00    +0.052 HD
ENDBRANCH 136 137
ENDBRANCH  29 136
BRANCH  16 141
ATOM    141  O   UNL     1     152.222 162.088 186.632  0.00  0.00    -0.379 OA
BRANCH 141 142
ATOM    142  C   UNL     1     152.829 160.813 186.479  0.00  0.00    +0.037 C 
ATOM    143  H   UNL     1     152.779 160.539 185.419  0.00  0.00    +0.052 HD
ATOM    144  H   UNL     1     152.308 160.045 187.060  0.00  0.00    +0.052 HD
ATOM    145  H   UNL     1     153.885 160.860 186.775  0.00  0.00    +0.052 HD
ENDBRANCH 141 142
ENDBRANCH  16 141
BRANCH   6 146
ATOM    146  O   UNL     1     148.279 167.220 185.483  0.00  0.00    -0.379 OA
BRANCH 146 147
ATOM    147  C   UNL     1     149.219 167.956 186.261  0.00  0.00    +0.037 C 
ATOM    148  H   UNL     1     150.209 167.497 186.185  0.00  0.00    +0.052 HD
ATOM    149  H   UNL     1     148.914 167.998 187.313  0.00  0.00    +0.052 HD
ATOM    150  H   UNL     1     149.271 168.977 185.872  0.00  0.00    +0.052 HD
ENDBRANCH 146 147
ENDBRANCH   6 146
BRANCH   4 151
ATOM    151  O   UNL     1     146.191 169.354 185.235  0.00  0.00    -0.376 OA
BRANCH 151 152
ATOM    152  C   UNL     1     146.278 169.600 183.835  0.00  0.00    +0.037 C 
ATOM    153  H   UNL     1     146.648 168.713 183.311  0.00  0.00    +0.052 HD
ATOM    154  H   UNL     1     145.276 169.820 183.469  0.00  0.00    +0.052 HD
ATOM    155  H   UNL     1     146.926 170.455 183.627  0.00  0.00    +0.052 HD
ENDBRANCH 151 152
ENDBRANCH   4 151
TORSDOF 33
ENDMDL
MODEL 4
REMARK VINA RESULT:      -4.5      2.980      9.090
REMARK  Name = Reidispongiolide A_conf3
REMARK  33 active torsions:
REMARK  status: ('A' for Active; 'I' for Inactive)
REMARK    1  A    between atoms: C_1  and  C_2
REMARK    2  A    between atoms: C_5  and  O_67
REMARK    3  A    between atoms: C_7  and  O_65
REMARK    4  A    between atoms: C_8  and  C_64
REMARK    5  A    between atoms: C_17  and  O_62
REMARK    6  A    between atoms: C_19  and  C_61
REMARK    7  A    between atoms: C_26  and  C_38
REMARK    8  A    between atoms: C_27  and  C_37
REMARK    9  A    between atoms: C_30  and  O_35
REMARK   10  A    between atoms: C_32  and  O_33
REMARK   11  A    between atoms: O_33  and  C_34
REMARK   12  A    between atoms: O_35  and  C_36
REMARK   13  A    between atoms: C_38  and  C_39
REMARK   14  A    between atoms: C_38  and  C_40
REMARK   15  A    between atoms: C_40  and  C_41
REMARK   16  A    between atoms: C_40  and  O_59
REMARK   17  A    between atoms: C_41  and  C_42
REMARK   18  A    between atoms: C_41  and  C_43
REMARK   19  A    between atoms: C_43  and  C_44
REMARK   20  A    between atoms: C_44  and  C_45
REMARK   21  A    between atoms: C_45  and  C_47
REMARK   22  A    between atoms: C_47  and  C_48
REMARK   23  A    between atoms: C_47  and  C_49
REMARK   24  A    between atoms: C_49  and  C_50
REMARK   25  A    between atoms: C_49  and  O_57
REMARK   26  A    between atoms: C_50  and  C_51
REMARK   27  A    between atoms: C_52  and  N_53
REMARK   28  A    between atoms: N_53  and  C_54
REMARK   29  A    between atoms: O_57  and  C_58
REMARK   30  A    between atoms: O_59  and  C_60
REMARK   31  A    between atoms: O_62  and  C_63
REMARK   32  A    between atoms: O_65  and  C_66
REMARK   33  A    between atoms: O_67  and  C_68
REMARK                            x       y       z     vdW  Elec       q    Type
REMARK                         _______ _______ _______ _____ _____    ______ ____
ROOT
ATOM      1  C   UNL     1     149.434 166.980 192.853  0.00  0.00    +0.001 C 
ATOM      2  C   UNL     1     150.228 166.048 191.946  0.00  0.00    -0.080 C 
ATOM      3  C   UNL     1     150.446 164.737 192.158  0.00  0.00    -0.059 C 
ATOM      4  C   UNL     1     151.262 163.743 191.371  0.00  0.00    +0.079 C 
ATOM      5  C   UNL     1     152.107 164.247 190.185  0.00  0.00    +0.004 C 
ATOM      6  C   UNL     1     151.346 164.632 188.896  0.00  0.00    +0.067 C 
ATOM      7  C   UNL     1     152.179 165.549 187.947  0.00  0.00    +0.020 C 
ATOM      8  C   UNL     1     153.538 164.924 187.491  0.00  0.00    +0.112 C 
ATOM      9  C   UNL     1     153.476 164.018 186.242  0.00  0.00    +0.006 C 
ATOM     10  C   UNL     1     153.667 164.767 184.950  0.00  0.00    -0.057 C 
ATOM     11  C   UNL     1     154.186 166.006 184.967  0.00  0.00    +0.022 C 
ATOM     12  C   UNL     1     154.654 166.663 186.200  0.00  0.00    +0.332 C 
ATOM     13  O   UNL     1     155.174 167.772 186.167  0.00  0.00    -0.246 OA
ATOM     14  O   UNL     1     154.555 165.949 187.345  0.00  0.00    -0.458 OA
ATOM     15  C   UNL     1     153.471 164.009 183.643  0.00  0.00    -0.004 C 
ATOM     16  C   UNL     1     152.537 164.531 182.510  0.00  0.00    +0.066 C 
ATOM     17  C   UNL     1     151.062 164.060 182.616  0.00  0.00    -0.005 C 
ATOM     18  C   UNL     1     150.042 164.944 183.313  0.00  0.00    -0.070 C 
ATOM     19  C   UNL     1     148.861 165.222 182.718  0.00  0.00    -0.062 C 
ATOM     20  C   UNL     1     147.797 166.020 183.293  0.00  0.00    -0.055 C 
ATOM     21  C   UNL     1     147.164 165.696 184.431  0.00  0.00    +0.023 C 
ATOM     22  C   UNL     1     146.213 166.648 185.023  0.00  0.00    +0.332 C 
ATOM     23  O   UNL     1     145.611 167.518 184.409  0.00  0.00    -0.246 OA
ATOM     24  O   UNL     1     146.201 166.446 186.361  0.00  0.00    -0.457 OA
ATOM     25  C   UNL     1     145.745 167.555 187.169  0.00  0.00    +0.114 C 
ATOM     26  C   UNL     1     144.722 167.079 188.249  0.00  0.00    +0.012 C 
ATOM     27  C   UNL     1     145.297 166.354 189.444  0.00  0.00    -0.079 C 
ATOM     28  C   UNL     1     145.168 166.807 190.709  0.00  0.00    -0.059 C 
ATOM     29  C   UNL     1     145.670 166.096 191.934  0.00  0.00    +0.079 C 
ATOM     30  C   UNL     1     147.199 165.942 192.046  0.00  0.00    +0.004 C 
ATOM     31  C   UNL     1     147.967 167.235 192.383  0.00  0.00    +0.067 C 
ATOM     32  H   UNL     1     149.965 167.944 192.805  0.00  0.00    +0.037 HD
ATOM     33  H   UNL     1     150.646 166.536 191.071  0.00  0.00    +0.057 HD
ATOM     34  H   UNL     1     149.990 164.279 193.033  0.00  0.00    +0.059 HD
ATOM     35  H   UNL     1     151.976 163.341 192.106  0.00  0.00    +0.064 HD
ATOM     36  H   UNL     1     152.802 163.439 189.933  0.00  0.00    +0.032 HD
ATOM     37  H   UNL     1     152.715 165.083 190.543  0.00  0.00    +0.032 HD
ATOM     38  H   UNL     1     150.429 165.168 189.167  0.00  0.00    +0.060 HD
ATOM     39  H   UNL     1     151.579 165.703 187.047  0.00  0.00    +0.036 HD
ATOM     40  H   UNL     1     153.918 164.296 188.304  0.00  0.00    +0.074 HD
ATOM     41  H   UNL     1     152.542 163.451 186.220  0.00  0.00    +0.035 HD
ATOM     42  H   UNL     1     154.289 163.283 186.309  0.00  0.00    +0.035 HD
ATOM     43  H   UNL     1     154.401 166.560 184.058  0.00  0.00    +0.069 HD
ATOM     44  H   UNL     1     153.213 162.961 183.862  0.00  0.00    +0.034 HD
ATOM     45  H   UNL     1     154.480 163.949 183.199  0.00  0.00    +0.034 HD
ATOM     46  H   UNL     1     152.935 164.045 181.606  0.00  0.00    +0.060 HD
ATOM     47  H   UNL     1     151.031 163.064 183.084  0.00  0.00    +0.034 HD
ATOM     48  H   UNL     1     150.718 163.900 181.586  0.00  0.00    +0.034 HD
ATOM     49  H   UNL     1     148.659 164.864 181.708  0.00  0.00    +0.062 HD
ATOM     50  H   UNL     1     147.536 166.929 182.752  0.00  0.00    +0.062 HD
ATOM     51  H   UNL     1     147.393 164.804 184.998  0.00  0.00    +0.069 HD
ATOM     52  H   UNL     1     145.158 168.235 186.541  0.00  0.00    +0.074 HD
ATOM     53  H   UNL     1     144.236 167.996 188.611  0.00  0.00    +0.038 HD
ATOM     54  H   UNL     1     145.812 165.412 189.256  0.00  0.00    +0.057 HD
ATOM     55  H   UNL     1     144.628 167.740 190.881  0.00  0.00    +0.059 HD
ATOM     56  H   UNL     1     145.228 165.088 191.939  0.00  0.00    +0.064 HD
ATOM     57  H   UNL     1     147.580 165.497 191.119  0.00  0.00    +0.032 HD
ATOM     58  H   UNL     1     147.376 165.221 192.855  0.00  0.00    +0.032 HD
ATOM     59  H   UNL     1     147.448 167.756 193.200  0.00  0.00    +0.060 HD
ENDROOT
BRANCH   1  60
ATOM     60  C   UNL     1     149.461 166.569 194.334  0.00  0.00    -0.057 C 
ATOM     61  H   UNL     1     148.469 166.684 194.782  0.00  0.00    +0.024 HD
ATOM     62  H   UNL     1     150.151 167.200 194.903  0.00  0.00    +0.024 HD
ATOM     63  H   UNL     1     149.764 165.528 194.473  0.00  0.00    +0.024 HD
ENDBRANCH   1  60
BRANCH  26  64
ATOM     64  C   UNL     1     143.633 166.208 187.606  0.00  0.00    -0.056 C 
ATOM     65  H   UNL     1     142.632 166.528 187.920  0.00  0.00    +0.024 HD
ATOM     66  H   UNL     1     143.755 165.158 187.883  0.00  0.00    +0.024 HD
ATOM     67  H   UNL     1     143.689 166.265 186.516  0.00  0.00    +0.024 HD
ENDBRANCH  26  64
BRANCH  18  68
ATOM     68  C   UNL     1     150.432 165.441 184.672  0.00  0.00    -0.043 C 
ATOM     69  H   UNL     1     150.276 166.519 184.744  0.00  0.00    +0.027 HD
ATOM     70  H   UNL     1     149.860 165.003 185.492  0.00  0.00    +0.027 HD
ATOM     71  H   UNL     1     151.483 165.202 184.842  0.00  0.00    +0.027 HD
ENDBRANCH  18  68
BRANCH   7  72
ATOM     72  C   UNL     1     152.338 166.939 188.578  0.00  0.00    -0.057 C 
ATOM     73  H   UNL     1     151.438 167.538 188.426  0.00  0.00    +0.023 HD
ATOM     74  H   UNL     1     152.535 166.887 189.652  0.00  0.00    +0.023 HD
ATOM     75  H   UNL     1     153.159 167.485 188.106  0.00  0.00    +0.023 HD
ENDBRANCH   7  72
BRANCH  25  76
ATOM     76  C   UNL     1     146.991 168.336 187.717  0.00  0.00    +0.020 C 
ATOM     77  H   UNL     1     146.951 168.261 188.810  0.00  0.00    +0.036 HD
BRANCH  76  78
ATOM     78  C   UNL     1     148.304 167.690 187.261  0.00  0.00    -0.057 C 
ATOM     79  H   UNL     1     148.259 166.598 187.262  0.00  0.00    +0.023 HD
ATOM     80  H   UNL     1     148.575 168.034 186.262  0.00  0.00    +0.023 HD
ATOM     81  H   UNL     1     149.143 167.968 187.901  0.00  0.00    +0.023 HD
ENDBRANCH  76  78
BRANCH  76  82
ATOM     82  C   UNL     1     146.861 169.861 187.364  0.00  0.00    +0.067 C 
ATOM     83  H   UNL     1     147.868 170.289 187.311  0.00  0.00    +0.060 HD
BRANCH  82  84
ATOM     84  C   UNL     1     146.085 170.823 188.314  0.00  0.00    -0.017 C 
ATOM     85  H   UNL     1     146.800 171.561 188.695  0.00  0.00    +0.032 HD
BRANCH  84  86
ATOM     86  C   UNL     1     145.065 171.631 187.490  0.00  0.00    -0.060 C 
ATOM     87  H   UNL     1     144.578 172.382 188.120  0.00  0.00    +0.023 HD
ATOM     88  H   UNL     1     144.276 170.983 187.090  0.00  0.00    +0.023 HD
ATOM     89  H   UNL     1     145.536 172.149 186.645  0.00  0.00    +0.023 HD
ENDBRANCH  84  86
BRANCH  84  90
ATOM     90  C   UNL     1     145.364 170.229 189.548  0.00  0.00    -0.041 C 
ATOM     91  H   UNL     1     145.670 170.807 190.432  0.00  0.00    +0.027 HD
ATOM     92  H   UNL     1     145.749 169.226 189.746  0.00  0.00    +0.027 HD
BRANCH  90  93
ATOM     93  C   UNL     1     143.839 170.169 189.508  0.00  0.00    +0.007 C 
ATOM     94  H   UNL     1     143.480 169.189 189.185  0.00  0.00    +0.034 HD
ATOM     95  H   UNL     1     143.447 170.914 188.805  0.00  0.00    +0.034 HD
BRANCH  93  96
ATOM     96  C   UNL     1     143.219 170.474 190.867  0.00  0.00    +0.139 C 
ATOM     97  O   UNL     1     143.242 169.616 191.756  0.00  0.00    -0.297 OA
BRANCH  96  98
ATOM     98  C   UNL     1     142.551 171.840 191.074  0.00  0.00    +0.041 C 
ATOM     99  H   UNL     1     141.738 171.657 191.780  0.00  0.00    +0.040 HD
BRANCH  98 100
ATOM    100  C   UNL     1     141.904 172.366 189.791  0.00  0.00    -0.053 C 
ATOM    101  H   UNL     1     140.899 172.764 189.967  0.00  0.00    +0.024 HD
ATOM    102  H   UNL     1     142.500 173.182 189.368  0.00  0.00    +0.024 HD
ATOM    103  H   UNL     1     141.847 171.582 189.027  0.00  0.00    +0.024 HD
ENDBRANCH  98 100
BRANCH  98 104
ATOM    104  C   UNL     1     143.501 172.863 191.744  0.00  0.00    +0.071 C 
ATOM    105  H   UNL     1     144.154 172.363 192.470  0.00  0.00    +0.061 HD
BRANCH 104 106
ATOM    106  C   UNL     1     144.395 173.691 190.789  0.00  0.00    -0.006 C 
ATOM    107  H   UNL     1     144.105 173.495 189.749  0.00  0.00    +0.033 HD
ATOM    108  H   UNL     1     144.159 174.752 190.942  0.00  0.00    +0.033 HD
BRANCH 106 109
ATOM    109  C   UNL     1     145.879 173.525 190.985  0.00  0.00    -0.067 C 
ATOM    110  C   UNL     1     146.435 173.316 192.186  0.00  0.00    -0.005 C 
ATOM    111  H   UNL     1     146.467 173.574 190.073  0.00  0.00    +0.059 HD
ATOM    112  H   UNL     1     145.786 173.230 193.056  0.00  0.00    +0.078 HD
BRANCH 110 113
ATOM    113  N   UNL     1     147.785 173.190 192.471  0.00  0.00    -0.284 N 
ATOM    114  C   UNL     1     148.329 173.051 193.747  0.00  0.00    +0.206 C 
ATOM    115  O   UNL     1     149.525 172.941 194.005  0.00  0.00    -0.279 OA
ATOM    116  H   UNL     1     147.586 173.034 194.553  0.00  0.00    +0.126 HD
BRANCH 113 117
ATOM    117  C   UNL     1     148.707 173.158 191.339  0.00  0.00    +0.007 C 
ATOM    118  H   UNL     1     148.330 173.843 190.570  0.00  0.00    +0.043 HD
ATOM    119  H   UNL     1     148.795 172.159 190.904  0.00  0.00    +0.043 HD
ATOM    120  H   UNL     1     149.701 173.484 191.667  0.00  0.00    +0.043 HD
ENDBRANCH 113 117
ENDBRANCH 110 113
ENDBRANCH 106 109
ENDBRANCH 104 106
BRANCH 104 121
ATOM    121  O   UNL     1     142.699 173.840 192.448  0.00  0.00    -0.379 OA
BRANCH 121 122
ATOM    122  C   UNL     1     142.945 175.181 192.029  0.00  0.00    +0.037 C 
ATOM    123  H   UNL     1     143.876 175.523 192.492  0.00  0.00    +0.052 HD
ATOM    124  H   UNL     1     143.057 175.236 190.946  0.00  0.00    +0.052 HD
ATOM    125  H   UNL     1     142.131 175.836 192.353  0.00  0.00    +0.052 HD
ENDBRANCH 121 122
ENDBRANCH 104 121
ENDBRANCH  98 104
ENDBRANCH  96  98
ENDBRANCH  93  96
ENDBRANCH  90  93
ENDBRANCH  84  90
ENDBRANCH  82  84
BRANCH  82 126
ATOM    126  O   UNL     1     146.286 169.969 186.047  0.00  0.00    -0.379 OA
BRANCH 126 127
ATOM    127  C   UNL     1     147.207 170.436 185.065  0.00  0.00    +0.037 C 
ATOM    128  H   UNL     1     147.836 171.231 185.481  0.00  0.00    +0.052 HD
ATOM    129  H   UNL     1     147.828 169.615 184.693  0.00  0.00    +0.052 HD
ATOM    130  H   UNL     1     146.637 170.850 184.225  0.00  0.00    +0.052 HD
ENDBRANCH 126 127
ENDBRANCH  82 126
ENDBRANCH  76  82
ENDBRANCH  25  76
BRANCH  31 131
ATOM    131  O   UNL     1     147.999 168.079 191.219  0.00  0.00    -0.379 OA
BRANCH 131 132
ATOM    132  C   UNL     1     148.420 169.405 191.529  0.00  0.00    +0.037 C 
ATOM    133  H   UNL     1     147.555 170.068 191.626  0.00  0.00    +0.052 HD
ATOM    134  H   UNL     1     148.959 169.384 192.481  0.00  0.00    +0.052 HD
ATOM    135  H   UNL     1     149.098 169.780 190.752  0.00  0.00    +0.052 HD
ENDBRANCH 131 132
ENDBRANCH  31 131
BRANCH  29 136
ATOM    136  O   UNL     1     145.199 166.840 193.072  0.00  0.00    -0.376 OA
BRANCH 136 137
ATOM    137  C   UNL     1     143.842 166.566 193.395  0.00  0.00    +0.037 C 
ATOM    138  H   UNL     1     143.596 165.523 193.165  0.00  0.00    +0.052 HD
ATOM    139  H   UNL     1     143.709 166.727 194.471  0.00  0.00    +0.052 HD
ATOM    140  H   UNL     1     143.174 167.244 192.858  0.00  0.00    +0.052 HD
ENDBRANCH 136 137
ENDBRANCH  29 136
BRANCH  16 141
ATOM    141  O   UNL     1     152.689 165.942 182.336  0.00  0.00    -0.379 OA
BRANCH 141 142
ATOM    142  C   UNL     1     153.271 166.308 181.092  0.00  0.00    +0.037 C 
ATOM    143  H   UNL     1     153.009 167.353 180.891  0.00  0.00    +0.052 HD
ATOM    144  H   UNL     1     152.891 165.691 180.271  0.00  0.00    +0.052 HD
ATOM    145  H   UNL     1     154.364 166.231 181.151  0.00  0.00    +0.052 HD
ENDBRANCH 141 142
ENDBRANCH  16 141
BRANCH   6 146
ATOM    146  O   UNL     1     151.014 163.437 188.178  0.00  0.00    -0.379 OA
BRANCH 146 147
ATOM    147  C   UNL     1     149.679 163.453 187.680  0.00  0.00    +0.037 C 
ATOM    148  H   UNL     1     149.150 162.549 187.995  0.00  0.00    +0.052 HD
ATOM    149  H   UNL     1     149.667 163.524 186.586  0.00  0.00    +0.052 HD
ATOM    150  H   UNL     1     149.164 164.327 188.092  0.00  0.00    +0.052 HD
ENDBRANCH 146 147
ENDBRANCH   6 146
BRANCH   4 151
ATOM    151  O   UNL     1     150.352 162.702 191.006  0.00  0.00    -0.376 OA
BRANCH 151 152
ATOM    152  C   UNL     1     149.082 162.814 191.641  0.00  0.00    +0.037 C 
ATOM    153  H   UNL     1     148.725 163.849 191.609  0.00  0.00    +0.052 HD
ATOM    154  H   UNL     1     148.375 162.192 191.093  0.00  0.00    +0.052 HD
ATOM    155  H   UNL     1     149.130 162.467 192.676  0.00  0.00    +0.052 HD
ENDBRANCH 151 152
ENDBRANCH   4 151
TORSDOF 33
ENDMDL
MODEL 5
REMARK VINA RESULT:      -4.4      2.989      4.840
REMARK  Name = Reidispongiolide A_conf3
REMARK  33 active torsions:
REMARK  status: ('A' for Active; 'I' for Inactive)
REMARK    1  A    between atoms: C_1  and  C_2
REMARK    2  A    between atoms: C_5  and  O_67
REMARK    3  A    between atoms: C_7  and  O_65
REMARK    4  A    between atoms: C_8  and  C_64
REMARK    5  A    between atoms: C_17  and  O_62
REMARK    6  A    between atoms: C_19  and  C_61
REMARK    7  A    between atoms: C_26  and  C_38
REMARK    8  A    between atoms: C_27  and  C_37
REMARK    9  A    between atoms: C_30  and  O_35
REMARK   10  A    between atoms: C_32  and  O_33
REMARK   11  A    between atoms: O_33  and  C_34
REMARK   12  A    between atoms: O_35  and  C_36
REMARK   13  A    between atoms: C_38  and  C_39
REMARK   14  A    between atoms: C_38  and  C_40
REMARK   15  A    between atoms: C_40  and  C_41
REMARK   16  A    between atoms: C_40  and  O_59
REMARK   17  A    between atoms: C_41  and  C_42
REMARK   18  A    between atoms: C_41  and  C_43
REMARK   19  A    between atoms: C_43  and  C_44
REMARK   20  A    between atoms: C_44  and  C_45
REMARK   21  A    between atoms: C_45  and  C_47
REMARK   22  A    between atoms: C_47  and  C_48
REMARK   23  A    between atoms: C_47  and  C_49
REMARK   24  A    between atoms: C_49  and  C_50
REMARK   25  A    between atoms: C_49  and  O_57
REMARK   26  A    between atoms: C_50  and  C_51
REMARK   27  A    between atoms: C_52  and  N_53
REMARK   28  A    between atoms: N_53  and  C_54
REMARK   29  A    between atoms: O_57  and  C_58
REMARK   30  A    between atoms: O_59  and  C_60
REMARK   31  A    between atoms: O_62  and  C_63
REMARK   32  A    between atoms: O_65  and  C_66
REMARK   33  A    between atoms: O_67  and  C_68
REMARK                            x       y       z     vdW  Elec       q    Type
REMARK                         _______ _______ _______ _____ _____    ______ ____
ROOT
ATOM      1  C   UNL     1     143.692 171.465 189.786  0.00  0.00    +0.001 C 
ATOM      2  C   UNL     1     144.126 171.037 188.388  0.00  0.00    -0.080 C 
ATOM      3  C   UNL     1     144.365 171.859 187.350  0.00  0.00    -0.059 C 
ATOM      4  C   UNL     1     144.732 171.547 185.922  0.00  0.00    +0.079 C 
ATOM      5  C   UNL     1     144.745 170.076 185.461  0.00  0.00    +0.004 C 
ATOM      6  C   UNL     1     145.923 169.201 185.947  0.00  0.00    +0.067 C 
ATOM      7  C   UNL     1     145.628 167.673 185.846  0.00  0.00    +0.020 C 
ATOM      8  C   UNL     1     145.281 167.187 184.400  0.00  0.00    +0.112 C 
ATOM      9  C   UNL     1     146.485 166.816 183.508  0.00  0.00    +0.006 C 
ATOM     10  C   UNL     1     146.898 165.374 183.628  0.00  0.00    -0.057 C 
ATOM     11  C   UNL     1     146.058 164.483 184.183  0.00  0.00    +0.022 C 
ATOM     12  C   UNL     1     144.697 164.833 184.627  0.00  0.00    +0.332 C 
ATOM     13  O   UNL     1     143.941 163.979 185.074  0.00  0.00    -0.246 OA
ATOM     14  O   UNL     1     144.305 166.113 184.436  0.00  0.00    -0.458 OA
ATOM     15  C   UNL     1     148.169 164.927 182.918  0.00  0.00    -0.004 C 
ATOM     16  C   UNL     1     149.305 164.152 183.651  0.00  0.00    +0.066 C 
ATOM     17  C   UNL     1     150.387 165.051 184.306  0.00  0.00    -0.005 C 
ATOM     18  C   UNL     1     150.255 165.437 185.769  0.00  0.00    -0.070 C 
ATOM     19  C   UNL     1     151.301 165.286 186.612  0.00  0.00    -0.062 C 
ATOM     20  C   UNL     1     151.310 165.649 188.014  0.00  0.00    -0.055 C 
ATOM     21  C   UNL     1     151.118 166.902 188.453  0.00  0.00    +0.023 C 
ATOM     22  C   UNL     1     150.982 167.146 189.897  0.00  0.00    +0.332 C 
ATOM     23  O   UNL     1     151.428 166.427 190.779  0.00  0.00    -0.246 OA
ATOM     24  O   UNL     1     150.206 168.243 190.062  0.00  0.00    -0.457 OA
ATOM     25  C   UNL     1     149.545 168.369 191.341  0.00  0.00    +0.114 C 
ATOM     26  C   UNL     1     149.705 169.814 191.914  0.00  0.00    +0.012 C 
ATOM     27  C   UNL     1     148.844 170.885 191.285  0.00  0.00    -0.079 C 
ATOM     28  C   UNL     1     147.934 171.597 191.980  0.00  0.00    -0.059 C 
ATOM     29  C   UNL     1     147.096 172.710 191.416  0.00  0.00    +0.079 C 
ATOM     30  C   UNL     1     146.084 172.307 190.325  0.00  0.00    +0.004 C 
ATOM     31  C   UNL     1     144.854 171.525 190.827  0.00  0.00    +0.067 C 
ATOM     32  H   UNL     1     142.996 170.679 190.119  0.00  0.00    +0.037 HD
ATOM     33  H   UNL     1     144.226 169.963 188.267  0.00  0.00    +0.057 HD
ATOM     34  H   UNL     1     144.280 172.931 187.518  0.00  0.00    +0.059 HD
ATOM     35  H   UNL     1     143.949 172.046 185.329  0.00  0.00    +0.064 HD
ATOM     36  H   UNL     1     144.773 170.094 184.367  0.00  0.00    +0.032 HD
ATOM     37  H   UNL     1     143.787 169.632 185.744  0.00  0.00    +0.032 HD
ATOM     38  H   UNL     1     146.136 169.436 186.997  0.00  0.00    +0.060 HD
ATOM     39  H   UNL     1     146.540 167.152 186.147  0.00  0.00    +0.036 HD
ATOM     40  H   UNL     1     144.756 167.997 183.882  0.00  0.00    +0.074 HD
ATOM     41  H   UNL     1     147.335 167.475 183.708  0.00  0.00    +0.035 HD
ATOM     42  H   UNL     1     146.201 166.980 182.459  0.00  0.00    +0.035 HD
ATOM     43  H   UNL     1     146.286 163.423 184.235  0.00  0.00    +0.069 HD
ATOM     44  H   UNL     1     148.610 165.782 182.384  0.00  0.00    +0.034 HD
ATOM     45  H   UNL     1     147.820 164.258 182.112  0.00  0.00    +0.034 HD
ATOM     46  H   UNL     1     149.820 163.620 182.837  0.00  0.00    +0.060 HD
ATOM     47  H   UNL     1     150.499 165.973 183.716  0.00  0.00    +0.034 HD
ATOM     48  H   UNL     1     151.339 164.519 184.184  0.00  0.00    +0.034 HD
ATOM     49  H   UNL     1     152.227 164.829 186.259  0.00  0.00    +0.062 HD
ATOM     50  H   UNL     1     151.471 164.833 188.717  0.00  0.00    +0.062 HD
ATOM     51  H   UNL     1     150.955 167.740 187.789  0.00  0.00    +0.069 HD
ATOM     52  H   UNL     1     150.065 167.743 192.074  0.00  0.00    +0.074 HD
ATOM     53  H   UNL     1     149.427 169.736 192.974  0.00  0.00    +0.038 HD
ATOM     54  H   UNL     1     149.002 171.093 190.226  0.00  0.00    +0.057 HD
ATOM     55  H   UNL     1     147.808 171.393 193.045  0.00  0.00    +0.059 HD
ATOM     56  H   UNL     1     147.780 173.455 190.982  0.00  0.00    +0.064 HD
ATOM     57  H   UNL     1     146.610 171.741 189.546  0.00  0.00    +0.032 HD
ATOM     58  H   UNL     1     145.731 173.243 189.873  0.00  0.00    +0.032 HD
ATOM     59  H   UNL     1     144.461 172.018 191.727  0.00  0.00    +0.060 HD
ENDROOT
BRANCH   1  60
ATOM     60  C   UNL     1     142.882 172.770 189.806  0.00  0.00    -0.057 C 
ATOM     61  H   UNL     1     143.113 173.350 190.705  0.00  0.00    +0.024 HD
ATOM     62  H   UNL     1     141.807 172.564 189.819  0.00  0.00    +0.024 HD
ATOM     63  H   UNL     1     143.092 173.406 188.943  0.00  0.00    +0.024 HD
ENDBRANCH   1  60
BRANCH  26  64
ATOM     64  C   UNL     1     151.176 170.250 191.858  0.00  0.00    -0.056 C 
ATOM     65  H   UNL     1     151.265 171.318 191.619  0.00  0.00    +0.024 HD
ATOM     66  H   UNL     1     151.725 169.687 191.100  0.00  0.00    +0.024 HD
ATOM     67  H   UNL     1     151.668 170.069 192.817  0.00  0.00    +0.024 HD
ENDBRANCH  26  64
BRANCH  18  68
ATOM     68  C   UNL     1     148.926 165.999 186.177  0.00  0.00    -0.043 C 
ATOM     69  H   UNL     1     148.771 165.870 187.250  0.00  0.00    +0.027 HD
ATOM     70  H   UNL     1     148.813 167.067 185.986  0.00  0.00    +0.027 HD
ATOM     71  H   UNL     1     148.144 165.481 185.620  0.00  0.00    +0.027 HD
ENDBRANCH  18  68
BRANCH   7  72
ATOM     72  C   UNL     1     144.569 167.278 186.883  0.00  0.00    -0.057 C 
ATOM     73  H   UNL     1     144.840 167.647 187.874  0.00  0.00    +0.023 HD
ATOM     74  H   UNL     1     143.579 167.671 186.634  0.00  0.00    +0.023 HD
ATOM     75  H   UNL     1     144.493 166.191 186.965  0.00  0.00    +0.023 HD
ENDBRANCH   7  72
BRANCH  25  76
ATOM     76  C   UNL     1     148.068 167.857 191.207  0.00  0.00    +0.020 C 
ATOM     77  H   UNL     1     147.419 168.710 191.436  0.00  0.00    +0.036 HD
BRANCH  76  78
ATOM     78  C   UNL     1     147.755 167.413 189.774  0.00  0.00    -0.057 C 
ATOM     79  H   UNL     1     148.476 166.686 189.391  0.00  0.00    +0.023 HD
ATOM     80  H   UNL     1     146.752 166.988 189.713  0.00  0.00    +0.023 HD
ATOM     81  H   UNL     1     147.757 168.251 189.075  0.00  0.00    +0.023 HD
ENDBRANCH  76  78
BRANCH  76  82
ATOM     82  C   UNL     1     147.783 166.766 192.301  0.00  0.00    +0.067 C 
ATOM     83  H   UNL     1     147.561 167.275 193.246  0.00  0.00    +0.060 HD
BRANCH  82  84
ATOM     84  C   UNL     1     148.881 165.724 192.675  0.00  0.00    -0.017 C 
ATOM     85  H   UNL     1     149.816 166.044 192.200  0.00  0.00    +0.032 HD
BRANCH  84  86
ATOM     86  C   UNL     1     149.148 165.796 194.190  0.00  0.00    -0.060 C 
ATOM     87  H   UNL     1     148.925 166.799 194.567  0.00  0.00    +0.023 HD
ATOM     88  H   UNL     1     150.202 165.593 194.417  0.00  0.00    +0.023 HD
ATOM     89  H   UNL     1     148.538 165.077 194.751  0.00  0.00    +0.023 HD
ENDBRANCH  84  86
BRANCH  84  90
ATOM     90  C   UNL     1     148.668 164.243 192.280  0.00  0.00    -0.041 C 
ATOM     91  H   UNL     1     147.621 163.982 192.487  0.00  0.00    +0.027 HD
ATOM     92  H   UNL     1     149.236 163.601 192.957  0.00  0.00    +0.027 HD
BRANCH  90  93
ATOM     93  C   UNL     1     148.995 163.847 190.842  0.00  0.00    +0.007 C 
ATOM     94  H   UNL     1     150.057 163.971 190.618  0.00  0.00    +0.034 HD
ATOM     95  H   UNL     1     148.432 164.471 190.138  0.00  0.00    +0.034 HD
BRANCH  93  96
ATOM     96  C   UNL     1     148.618 162.400 190.548  0.00  0.00    +0.139 C 
ATOM     97  O   UNL     1     148.934 161.512 191.347  0.00  0.00    -0.297 OA
BRANCH  96  98
ATOM     98  C   UNL     1     147.879 162.089 189.240  0.00  0.00    +0.041 C 
ATOM     99  H   UNL     1     148.288 161.136 188.899  0.00  0.00    +0.040 HD
BRANCH  98 100
ATOM    100  C   UNL     1     148.188 163.113 188.145  0.00  0.00    -0.053 C 
ATOM    101  H   UNL     1     148.678 162.657 187.279  0.00  0.00    +0.024 HD
ATOM    102  H   UNL     1     147.264 163.577 187.782  0.00  0.00    +0.024 HD
ATOM    103  H   UNL     1     148.823 163.921 188.528  0.00  0.00    +0.024 HD
ENDBRANCH  98 100
BRANCH  98 104
ATOM    104  C   UNL     1     146.362 161.869 189.460  0.00  0.00    +0.071 C 
ATOM    105  H   UNL     1     145.997 162.496 190.283  0.00  0.00    +0.061 HD
BRANCH 104 106
ATOM    106  C   UNL     1     145.451 162.118 188.232  0.00  0.00    -0.006 C 
ATOM    107  H   UNL     1     146.023 162.628 187.446  0.00  0.00    +0.033 HD
ATOM    108  H   UNL     1     145.200 161.142 187.796  0.00  0.00    +0.033 HD
BRANCH 106 109
ATOM    109  C   UNL     1     144.157 162.831 188.520  0.00  0.00    -0.067 C 
ATOM    110  C   UNL     1     144.095 164.136 188.818  0.00  0.00    -0.005 C 
ATOM    111  H   UNL     1     143.269 162.207 188.454  0.00  0.00    +0.059 HD
ATOM    112  H   UNL     1     145.016 164.715 188.822  0.00  0.00    +0.078 HD
BRANCH 110 113
ATOM    113  N   UNL     1     142.962 164.867 189.134  0.00  0.00    -0.284 N 
ATOM    114  C   UNL     1     142.826 165.703 190.242  0.00  0.00    +0.206 C 
ATOM    115  O   UNL     1     141.823 166.352 190.528  0.00  0.00    -0.279 OA
ATOM    116  H   UNL     1     143.719 165.760 190.874  0.00  0.00    +0.126 HD
BRANCH 113 117
ATOM    117  C   UNL     1     141.835 164.787 188.208  0.00  0.00    +0.007 C 
ATOM    118  H   UNL     1     141.574 165.806 187.897  0.00  0.00    +0.043 HD
ATOM    119  H   UNL     1     140.956 164.325 188.664  0.00  0.00    +0.043 HD
ATOM    120  H   UNL     1     142.124 164.198 187.330  0.00  0.00    +0.043 HD
ENDBRANCH 113 117
ENDBRANCH 110 113
ENDBRANCH 106 109
ENDBRANCH 104 106
BRANCH 104 121
ATOM    121  O   UNL     1     146.146 160.483 189.812  0.00  0.00    -0.379 OA
BRANCH 121 122
ATOM    122  C   UNL     1     146.751 159.567 188.902  0.00  0.00    +0.037 C 
ATOM    123  H   UNL     1     147.838 159.662 188.986  0.00  0.00    +0.052 HD
ATOM    124  H   UNL     1     146.474 158.539 189.142  0.00  0.00    +0.052 HD
ATOM    125  H   UNL     1     146.457 159.801 187.874  0.00  0.00    +0.052 HD
ENDBRANCH 121 122
ENDBRANCH 104 121
ENDBRANCH  98 104
ENDBRANCH  96  98
ENDBRANCH  93  96
ENDBRANCH  90  93
ENDBRANCH  84  90
ENDBRANCH  82  84
BRANCH  82 126
ATOM    126  O   UNL     1     146.593 166.048 191.919  0.00  0.00    -0.379 OA
BRANCH 126 127
ATOM    127  C   UNL     1     145.503 166.241 192.817  0.00  0.00    +0.037 C 
ATOM    128  H   UNL     1     145.820 166.046 193.847  0.00  0.00    +0.052 HD
ATOM    129  H   UNL     1     145.103 167.256 192.728  0.00  0.00    +0.052 HD
ATOM    130  H   UNL     1     144.711 165.530 192.558  0.00  0.00    +0.052 HD
ENDBRANCH 126 127
ENDBRANCH  82 126
ENDBRANCH  76  82
ENDBRANCH  25  76
BRANCH  31 131
ATOM    131  O   UNL     1     145.251 170.181 191.151  0.00  0.00    -0.379 OA
BRANCH 131 132
ATOM    132  C   UNL     1     144.172 169.258 191.026  0.00  0.00    +0.037 C 
ATOM    133  H   UNL     1     143.896 169.134 189.974  0.00  0.00    +0.052 HD
ATOM    134  H   UNL     1     144.495 168.292 191.424  0.00  0.00    +0.052 HD
ATOM    135  H   UNL     1     143.308 169.604 191.605  0.00  0.00    +0.052 HD
ENDBRANCH 131 132
ENDBRANCH  31 131
BRANCH  29 136
ATOM    136  O   UNL     1     146.376 173.292 192.518  0.00  0.00    -0.376 OA
BRANCH 136 137
ATOM    137  C   UNL     1     147.204 173.574 193.638  0.00  0.00    +0.037 C 
ATOM    138  H   UNL     1     147.970 174.311 193.374  0.00  0.00    +0.052 HD
ATOM    139  H   UNL     1     146.573 173.996 194.429  0.00  0.00    +0.052 HD
ATOM    140  H   UNL     1     147.667 172.658 194.015  0.00  0.00    +0.052 HD
ENDBRANCH 136 137
ENDBRANCH  29 136
BRANCH  16 141
ATOM    141  O   UNL     1     148.760 163.161 184.526  0.00  0.00    -0.379 OA
BRANCH 141 142
ATOM    142  C   UNL     1     148.801 161.842 183.999  0.00  0.00    +0.037 C 
ATOM    143  H   UNL     1     148.144 161.213 184.610  0.00  0.00    +0.052 HD
ATOM    144  H   UNL     1     149.812 161.424 184.034  0.00  0.00    +0.052 HD
ATOM    145  H   UNL     1     148.424 161.837 182.969  0.00  0.00    +0.052 HD
ENDBRANCH 141 142
ENDBRANCH  16 141
BRANCH   6 146
ATOM    146  O   UNL     1     147.075 169.485 185.144  0.00  0.00    -0.379 OA
BRANCH 146 147
ATOM    147  C   UNL     1     148.289 169.407 185.886  0.00  0.00    +0.037 C 
ATOM    148  H   UNL     1     149.098 169.042 185.246  0.00  0.00    +0.052 HD
ATOM    149  H   UNL     1     148.180 168.745 186.753  0.00  0.00    +0.052 HD
ATOM    150  H   UNL     1     148.546 170.409 186.243  0.00  0.00    +0.052 HD
ENDBRANCH 146 147
ENDBRANCH   6 146
BRANCH   4 151
ATOM    151  O   UNL     1     145.974 172.217 185.689  0.00  0.00    -0.376 OA
BRANCH 151 152
ATOM    152  C   UNL     1     146.064 173.481 186.339  0.00  0.00    +0.037 C 
ATOM    153  H   UNL     1     146.245 173.351 187.410  0.00  0.00    +0.052 HD
ATOM    154  H   UNL     1     146.910 174.019 185.912  0.00  0.00    +0.052 HD
ATOM    155  H   UNL     1     145.156 174.068 186.181  0.00  0.00    +0.052 HD
ENDBRANCH 151 152
ENDBRANCH   4 151
TORSDOF 33
ENDMDL
MODEL 6
REMARK VINA RESULT:      -4.3      2.766      4.335
REMARK  Name = Reidispongiolide A_conf3
REMARK  33 active torsions:
REMARK  status: ('A' for Active; 'I' for Inactive)
REMARK    1  A    between atoms: C_1  and  C_2
REMARK    2  A    between atoms: C_5  and  O_67
REMARK    3  A    between atoms: C_7  and  O_65
REMARK    4  A    between atoms: C_8  and  C_64
REMARK    5  A    between atoms: C_17  and  O_62
REMARK    6  A    between atoms: C_19  and  C_61
REMARK    7  A    between atoms: C_26  and  C_38
REMARK    8  A    between atoms: C_27  and  C_37
REMARK    9  A    between atoms: C_30  and  O_35
REMARK   10  A    between atoms: C_32  and  O_33
REMARK   11  A    between atoms: O_33  and  C_34
REMARK   12  A    between atoms: O_35  and  C_36
REMARK   13  A    between atoms: C_38  and  C_39
REMARK   14  A    between atoms: C_38  and  C_40
REMARK   15  A    between atoms: C_40  and  C_41
REMARK   16  A    between atoms: C_40  and  O_59
REMARK   17  A    between atoms: C_41  and  C_42
REMARK   18  A    between atoms: C_41  and  C_43
REMARK   19  A    between atoms: C_43  and  C_44
REMARK   20  A    between atoms: C_44  and  C_45
REMARK   21  A    between atoms: C_45  and  C_47
REMARK   22  A    between atoms: C_47  and  C_48
REMARK   23  A    between atoms: C_47  and  C_49
REMARK   24  A    between atoms: C_49  and  C_50
REMARK   25  A    between atoms: C_49  and  O_57
REMARK   26  A    between atoms: C_50  and  C_51
REMARK   27  A    between atoms: C_52  and  N_53
REMARK   28  A    between atoms: N_53  and  C_54
REMARK   29  A    between atoms: O_57  and  C_58
REMARK   30  A    between atoms: O_59  and  C_60
REMARK   31  A    between atoms: O_62  and  C_63
REMARK   32  A    between atoms: O_65  and  C_66
REMARK   33  A    between atoms: O_67  and  C_68
REMARK                            x       y       z     vdW  Elec       q    Type
REMARK                         _______ _______ _______ _____ _____    ______ ____
ROOT
ATOM      1  C   UNL     1     143.597 171.763 189.689  0.00  0.00    +0.001 C 
ATOM      2  C   UNL     1     144.040 171.384 188.281  0.00  0.00    -0.080 C 
ATOM      3  C   UNL     1     144.378 172.242 187.302  0.00  0.00    -0.059 C 
ATOM      4  C   UNL     1     144.765 171.985 185.867  0.00  0.00    +0.079 C 
ATOM      5  C   UNL     1     144.673 170.547 185.319  0.00  0.00    +0.004 C 
ATOM      6  C   UNL     1     145.759 169.550 185.782  0.00  0.00    +0.067 C 
ATOM      7  C   UNL     1     145.344 168.060 185.580  0.00  0.00    +0.020 C 
ATOM      8  C   UNL     1     145.005 167.691 184.098  0.00  0.00    +0.112 C 
ATOM      9  C   UNL     1     146.203 167.274 183.218  0.00  0.00    +0.006 C 
ATOM     10  C   UNL     1     146.494 165.797 183.262  0.00  0.00    -0.057 C 
ATOM     11  C   UNL     1     145.566 164.949 183.738  0.00  0.00    +0.022 C 
ATOM     12  C   UNL     1     144.225 165.383 184.165  0.00  0.00    +0.332 C 
ATOM     13  O   UNL     1     143.387 164.571 184.539  0.00  0.00    -0.246 OA
ATOM     14  O   UNL     1     143.945 166.701 184.042  0.00  0.00    -0.458 OA
ATOM     15  C   UNL     1     147.746 165.288 182.561  0.00  0.00    -0.004 C 
ATOM     16  C   UNL     1     148.791 164.380 183.277  0.00  0.00    +0.066 C 
ATOM     17  C   UNL     1     149.921 165.146 184.014  0.00  0.00    -0.005 C 
ATOM     18  C   UNL     1     149.774 165.455 185.494  0.00  0.00    -0.070 C 
ATOM     19  C   UNL     1     150.776 165.169 186.354  0.00  0.00    -0.062 C 
ATOM     20  C   UNL     1     150.769 165.447 187.775  0.00  0.00    -0.055 C 
ATOM     21  C   UNL     1     150.666 166.684 188.285  0.00  0.00    +0.023 C 
ATOM     22  C   UNL     1     150.503 166.854 189.737  0.00  0.00    +0.332 C 
ATOM     23  O   UNL     1     150.860 166.050 190.585  0.00  0.00    -0.246 OA
ATOM     24  O   UNL     1     149.815 168.000 189.947  0.00  0.00    -0.457 OA
ATOM     25  C   UNL     1     149.125 168.106 191.212  0.00  0.00    +0.114 C 
ATOM     26  C   UNL     1     149.384 169.496 191.877  0.00  0.00    +0.012 C 
ATOM     27  C   UNL     1     148.634 170.670 191.291  0.00  0.00    -0.079 C 
ATOM     28  C   UNL     1     147.762 171.414 192.003  0.00  0.00    -0.059 C 
ATOM     29  C   UNL     1     147.036 172.624 191.485  0.00  0.00    +0.079 C 
ATOM     30  C   UNL     1     146.031 172.370 190.344  0.00  0.00    +0.004 C 
ATOM     31  C   UNL     1     144.726 171.666 190.763  0.00  0.00    +0.067 C 
ATOM     32  H   UNL     1     142.828 171.020 189.955  0.00  0.00    +0.037 HD
ATOM     33  H   UNL     1     144.055 170.313 188.097  0.00  0.00    +0.057 HD
ATOM     34  H   UNL     1     144.375 173.306 187.531  0.00  0.00    +0.059 HD
ATOM     35  H   UNL     1     144.045 172.581 185.285  0.00  0.00    +0.064 HD
ATOM     36  H   UNL     1     144.737 170.627 184.229  0.00  0.00    +0.032 HD
ATOM     37  H   UNL     1     143.673 170.168 185.547  0.00  0.00    +0.032 HD
ATOM     38  H   UNL     1     145.956 169.705 186.850  0.00  0.00    +0.060 HD
ATOM     39  H   UNL     1     146.201 167.449 185.874  0.00  0.00    +0.036 HD
ATOM     40  H   UNL     1     144.565 168.570 183.617  0.00  0.00    +0.074 HD
ATOM     41  H   UNL     1     147.097 167.846 183.482  0.00  0.00    +0.035 HD
ATOM     42  H   UNL     1     145.968 167.522 182.174  0.00  0.00    +0.035 HD
ATOM     43  H   UNL     1     145.705 163.872 183.732  0.00  0.00    +0.069 HD
ATOM     44  H   UNL     1     148.273 166.134 182.092  0.00  0.00    +0.034 HD
ATOM     45  H   UNL     1     147.370 164.700 181.706  0.00  0.00    +0.034 HD
ATOM     46  H   UNL     1     149.287 163.856 182.445  0.00  0.00    +0.060 HD
ATOM     47  H   UNL     1     150.127 166.088 183.485  0.00  0.00    +0.034 HD
ATOM     48  H   UNL     1     150.831 164.545 183.887  0.00  0.00    +0.034 HD
ATOM     49  H   UNL     1     151.672 164.658 185.999  0.00  0.00    +0.062 HD
ATOM     50  H   UNL     1     150.840 164.581 188.432  0.00  0.00    +0.062 HD
ATOM     51  H   UNL     1     150.594 167.570 187.669  0.00  0.00    +0.069 HD
ATOM     52  H   UNL     1     149.569 167.396 191.920  0.00  0.00    +0.074 HD
ATOM     53  H   UNL     1     149.066 169.380 192.922  0.00  0.00    +0.038 HD
ATOM     54  H   UNL     1     148.841 170.926 190.251  0.00  0.00    +0.057 HD
ATOM     55  H   UNL     1     147.585 171.159 193.050  0.00  0.00    +0.059 HD
ATOM     56  H   UNL     1     147.792 173.333 191.116  0.00  0.00    +0.064 HD
ATOM     57  H   UNL     1     146.533 171.809 189.547  0.00  0.00    +0.032 HD
ATOM     58  H   UNL     1     145.770 173.357 189.940  0.00  0.00    +0.032 HD
ATOM     59  H   UNL     1     144.345 172.136 191.680  0.00  0.00    +0.060 HD
ENDROOT
BRANCH   1  60
ATOM     60  C   UNL     1     142.895 173.128 189.767  0.00  0.00    -0.057 C 
ATOM     61  H   UNL     1     142.629 173.479 188.764  0.00  0.00    +0.024 HD
ATOM     62  H   UNL     1     143.552 173.882 190.212  0.00  0.00    +0.024 HD
ATOM     63  H   UNL     1     141.975 173.093 190.356  0.00  0.00    +0.024 HD
ENDBRANCH   1  60
BRANCH  26  64
ATOM     64  C   UNL     1     150.886 169.811 191.888  0.00  0.00    -0.056 C 
ATOM     65  H   UNL     1     151.154 170.503 191.079  0.00  0.00    +0.024 HD
ATOM     66  H   UNL     1     151.480 168.902 191.765  0.00  0.00    +0.024 HD
ATOM     67  H   UNL     1     151.177 170.263 192.840  0.00  0.00    +0.024 HD
ENDBRANCH  26  64
BRANCH  18  68
ATOM     68  C   UNL     1     148.483 166.101 185.899  0.00  0.00    -0.043 C 
ATOM     69  H   UNL     1     148.326 165.999 186.975  0.00  0.00    +0.027 HD
ATOM     70  H   UNL     1     148.431 167.171 185.691  0.00  0.00    +0.027 HD
ATOM     71  H   UNL     1     147.668 165.622 185.354  0.00  0.00    +0.027 HD
ENDBRANCH  18  68
BRANCH   7  72
ATOM     72  C   UNL     1     144.223 167.695 186.562  0.00  0.00    -0.057 C 
ATOM     73  H   UNL     1     144.427 168.106 187.553  0.00  0.00    +0.023 HD
ATOM     74  H   UNL     1     143.248 168.067 186.234  0.00  0.00    +0.023 HD
ATOM     75  H   UNL     1     144.152 166.611 186.682  0.00  0.00    +0.023 HD
ENDBRANCH   7  72
BRANCH  25  76
ATOM     76  C   UNL     1     147.616 167.727 191.008  0.00  0.00    +0.020 C 
ATOM     77  H   UNL     1     147.044 168.317 191.733  0.00  0.00    +0.036 HD
BRANCH  76  78
ATOM     78  C   UNL     1     147.124 168.116 189.609  0.00  0.00    -0.057 C 
ATOM     79  H   UNL     1     146.069 167.879 189.452  0.00  0.00    +0.023 HD
ATOM     80  H   UNL     1     147.283 169.180 189.428  0.00  0.00    +0.023 HD
ATOM     81  H   UNL     1     147.679 167.603 188.821  0.00  0.00    +0.023 HD
ENDBRANCH  76  78
BRANCH  76  82
ATOM     82  C   UNL     1     147.392 166.216 191.377  0.00  0.00    +0.067 C 
ATOM     83  H   UNL     1     148.207 165.899 192.037  0.00  0.00    +0.060 HD
BRANCH  82  84
ATOM     84  C   UNL     1     147.360 165.131 190.258  0.00  0.00    -0.017 C 
ATOM     85  H   UNL     1     147.877 165.543 189.383  0.00  0.00    +0.032 HD
BRANCH  84  86
ATOM     86  C   UNL     1     148.209 163.925 190.702  0.00  0.00    -0.060 C 
ATOM     87  H   UNL     1     148.652 164.115 191.684  0.00  0.00    +0.023 HD
ATOM     88  H   UNL     1     149.034 163.742 190.003  0.00  0.00    +0.023 HD
ATOM     89  H   UNL     1     147.614 163.005 190.768  0.00  0.00    +0.023 HD
ENDBRANCH  84  86
BRANCH  84  90
ATOM     90  C   UNL     1     145.989 164.616 189.760  0.00  0.00    -0.041 C 
ATOM     91  H   UNL     1     145.203 165.191 190.268  0.00  0.00    +0.027 HD
ATOM     92  H   UNL     1     145.834 163.594 190.113  0.00  0.00    +0.027 HD
BRANCH  90  93
ATOM     93  C   UNL     1     145.729 164.656 188.255  0.00  0.00    +0.007 C 
ATOM     94  H   UNL     1     146.293 165.455 187.767  0.00  0.00    +0.034 HD
ATOM     95  H   UNL     1     144.665 164.833 188.058  0.00  0.00    +0.034 HD
BRANCH  93  96
ATOM     96  C   UNL     1     146.091 163.340 187.577  0.00  0.00    +0.139 C 
ATOM     97  O   UNL     1     147.269 163.109 187.282  0.00  0.00    -0.297 OA
BRANCH  96  98
ATOM     98  C   UNL     1     144.963 162.353 187.250  0.00  0.00    +0.041 C 
ATOM     99  H   UNL     1     144.988 162.239 186.164  0.00  0.00    +0.040 HD
BRANCH  98 100
ATOM    100  C   UNL     1     143.584 162.918 187.596  0.00  0.00    -0.053 C 
ATOM    101  H   UNL     1     143.198 162.520 188.540  0.00  0.00    +0.024 HD
ATOM    102  H   UNL     1     143.632 164.007 187.706  0.00  0.00    +0.024 HD
ATOM    103  H   UNL     1     142.860 162.709 186.800  0.00  0.00    +0.024 HD
ENDBRANCH  98 100
BRANCH  98 104
ATOM    104  C   UNL     1     145.218 160.949 187.852  0.00  0.00    +0.071 C 
ATOM    105  H   UNL     1     146.129 160.508 187.428  0.00  0.00    +0.061 HD
BRANCH 104 106
ATOM    106  C   UNL     1     145.328 160.878 189.395  0.00  0.00    -0.006 C 
ATOM    107  H   UNL     1     144.875 161.774 189.838  0.00  0.00    +0.033 HD
ATOM    108  H   UNL     1     144.693 160.052 189.740  0.00  0.00    +0.033 HD
BRANCH 106 109
ATOM    109  C   UNL     1     146.713 160.638 189.934  0.00  0.00    -0.067 C 
ATOM    110  C   UNL     1     147.500 159.641 189.505  0.00  0.00    -0.005 C 
ATOM    111  H   UNL     1     147.036 161.347 190.693  0.00  0.00    +0.059 HD
ATOM    112  H   UNL     1     147.135 158.994 188.709  0.00  0.00    +0.078 HD
BRANCH 110 113
ATOM    113  N   UNL     1     148.766 159.320 189.964  0.00  0.00    -0.284 N 
ATOM    114  C   UNL     1     149.366 158.066 189.859  0.00  0.00    +0.206 C 
ATOM    115  O   UNL     1     150.488 157.774 190.266  0.00  0.00    -0.279 OA
ATOM    116  H   UNL     1     148.750 157.313 189.353  0.00  0.00    +0.126 HD
BRANCH 113 117
ATOM    117  C   UNL     1     149.550 160.392 190.570  0.00  0.00    +0.007 C 
ATOM    118  H   UNL     1     150.276 159.940 191.257  0.00  0.00    +0.043 HD
ATOM    119  H   UNL     1     148.928 161.094 191.131  0.00  0.00    +0.043 HD
ATOM    120  H   UNL     1     150.081 160.945 189.786  0.00  0.00    +0.043 HD
ENDBRANCH 113 117
ENDBRANCH 110 113
ENDBRANCH 106 109
ENDBRANCH 104 106
BRANCH 104 121
ATOM    121  O   UNL     1     144.099 160.096 187.516  0.00  0.00    -0.379 OA
BRANCH 121 122
ATOM    122  C   UNL     1     144.422 158.707 187.531  0.00  0.00    +0.037 C 
ATOM    123  H   UNL     1     144.348 158.346 188.561  0.00  0.00    +0.052 HD
ATOM    124  H   UNL     1     143.726 158.138 186.913  0.00  0.00    +0.052 HD
ATOM    125  H   UNL     1     145.446 158.551 187.178  0.00  0.00    +0.052 HD
ENDBRANCH 121 122
ENDBRANCH 104 121
ENDBRANCH  98 104
ENDBRANCH  96  98
ENDBRANCH  93  96
ENDBRANCH  90  93
ENDBRANCH  84  90
ENDBRANCH  82  84
BRANCH  82 126
ATOM    126  O   UNL     1     146.171 166.117 192.136  0.00  0.00    -0.379 OA
BRANCH 126 127
ATOM    127  C   UNL     1     146.380 166.121 193.546  0.00  0.00    +0.037 C 
ATOM    128  H   UNL     1     146.012 165.189 193.988  0.00  0.00    +0.052 HD
ATOM    129  H   UNL     1     147.440 166.261 193.780  0.00  0.00    +0.052 HD
ATOM    130  H   UNL     1     145.814 166.955 193.977  0.00  0.00    +0.052 HD
ENDBRANCH 126 127
ENDBRANCH  82 126
ENDBRANCH  76  82
ENDBRANCH  25  76
BRANCH  31 131
ATOM    131  O   UNL     1     145.001 170.277 191.016  0.00  0.00    -0.379 OA
BRANCH 131 132
ATOM    132  C   UNL     1     143.815 169.487 191.021  0.00  0.00    +0.037 C 
ATOM    133  H   UNL     1     143.332 169.517 190.040  0.00  0.00    +0.052 HD
ATOM    134  H   UNL     1     144.088 168.453 191.251  0.00  0.00    +0.052 HD
ATOM    135  H   UNL     1     143.124 169.845 191.794  0.00  0.00    +0.052 HD
ENDBRANCH 131 132
ENDBRANCH  31 131
BRANCH  29 136
ATOM    136  O   UNL     1     146.331 173.198 192.600  0.00  0.00    -0.376 OA
BRANCH 136 137
ATOM    137  C   UNL     1     147.189 173.580 193.666  0.00  0.00    +0.037 C 
ATOM    138  H   UNL     1     147.986 174.238 193.301  0.00  0.00    +0.052 HD
ATOM    139  H   UNL     1     146.593 174.130 194.402  0.00  0.00    +0.052 HD
ATOM    140  H   UNL     1     147.615 172.698 194.153  0.00  0.00    +0.052 HD
ENDBRANCH 136 137
ENDBRANCH  29 136
BRANCH  16 141
ATOM    141  O   UNL     1     148.140 163.388 184.074  0.00  0.00    -0.379 OA
BRANCH 141 142
ATOM    142  C   UNL     1     148.092 162.103 183.471  0.00  0.00    +0.037 C 
ATOM    143  H   UNL     1     147.075 161.711 183.586  0.00  0.00    +0.052 HD
ATOM    144  H   UNL     1     148.789 161.406 183.948  0.00  0.00    +0.052 HD
ATOM    145  H   UNL     1     148.312 162.182 182.398  0.00  0.00    +0.052 HD
ENDBRANCH 141 142
ENDBRANCH  16 141
BRANCH   6 146
ATOM    146  O   UNL     1     146.956 169.783 185.030  0.00  0.00    -0.379 OA
BRANCH 146 147
ATOM    147  C   UNL     1     148.135 169.574 185.802  0.00  0.00    +0.037 C 
ATOM    148  H   UNL     1     148.129 170.226 186.681  0.00  0.00    +0.052 HD
ATOM    149  H   UNL     1     149.036 169.766 185.208  0.00  0.00    +0.052 HD
ATOM    150  H   UNL     1     148.153 168.532 186.136  0.00  0.00    +0.052 HD
ENDBRANCH 146 147
ENDBRANCH   6 146
BRANCH   4 151
ATOM    151  O   UNL     1     146.064 172.561 185.709  0.00  0.00    -0.376 OA
BRANCH 151 152
ATOM    152  C   UNL     1     146.136 173.916 186.142  0.00  0.00    +0.037 C 
ATOM    153  H   UNL     1     146.606 173.982 187.128  0.00  0.00    +0.052 HD
ATOM    154  H   UNL     1     146.756 174.463 185.432  0.00  0.00    +0.052 HD
ATOM    155  H   UNL     1     145.143 174.372 186.169  0.00  0.00    +0.052 HD
ENDBRANCH 151 152
ENDBRANCH   4 151
TORSDOF 33
ENDMDL
MODEL 7
REMARK VINA RESULT:      -4.2      2.313      3.739
REMARK  Name = Reidispongiolide A_conf3
REMARK  33 active torsions:
REMARK  status: ('A' for Active; 'I' for Inactive)
REMARK    1  A    between atoms: C_1  and  C_2
REMARK    2  A    between atoms: C_5  and  O_67
REMARK    3  A    between atoms: C_7  and  O_65
REMARK    4  A    between atoms: C_8  and  C_64
REMARK    5  A    between atoms: C_17  and  O_62
REMARK    6  A    between atoms: C_19  and  C_61
REMARK    7  A    between atoms: C_26  and  C_38
REMARK    8  A    between atoms: C_27  and  C_37
REMARK    9  A    between atoms: C_30  and  O_35
REMARK   10  A    between atoms: C_32  and  O_33
REMARK   11  A    between atoms: O_33  and  C_34
REMARK   12  A    between atoms: O_35  and  C_36
REMARK   13  A    between atoms: C_38  and  C_39
REMARK   14  A    between atoms: C_38  and  C_40
REMARK   15  A    between atoms: C_40  and  C_41
REMARK   16  A    between atoms: C_40  and  O_59
REMARK   17  A    between atoms: C_41  and  C_42
REMARK   18  A    between atoms: C_41  and  C_43
REMARK   19  A    between atoms: C_43  and  C_44
REMARK   20  A    between atoms: C_44  and  C_45
REMARK   21  A    between atoms: C_45  and  C_47
REMARK   22  A    between atoms: C_47  and  C_48
REMARK   23  A    between atoms: C_47  and  C_49
REMARK   24  A    between atoms: C_49  and  C_50
REMARK   25  A    between atoms: C_49  and  O_57
REMARK   26  A    between atoms: C_50  and  C_51
REMARK   27  A    between atoms: C_52  and  N_53
REMARK   28  A    between atoms: N_53  and  C_54
REMARK   29  A    between atoms: O_57  and  C_58
REMARK   30  A    between atoms: O_59  and  C_60
REMARK   31  A    between atoms: O_62  and  C_63
REMARK   32  A    between atoms: O_65  and  C_66
REMARK   33  A    between atoms: O_67  and  C_68
REMARK                            x       y       z     vdW  Elec       q    Type
REMARK                         _______ _______ _______ _____ _____    ______ ____
ROOT
ATOM      1  C   UNL     1     143.749 171.075 189.597  0.00  0.00    +0.001 C 
ATOM      2  C   UNL     1     144.257 170.673 188.217  0.00  0.00    -0.080 C 
ATOM      3  C   UNL     1     144.508 171.509 187.193  0.00  0.00    -0.059 C 
ATOM      4  C   UNL     1     144.945 171.220 185.780  0.00  0.00    +0.079 C 
ATOM      5  C   UNL     1     145.033 169.753 185.314  0.00  0.00    +0.004 C 
ATOM      6  C   UNL     1     146.221 168.919 185.845  0.00  0.00    +0.067 C 
ATOM      7  C   UNL     1     145.989 167.382 185.724  0.00  0.00    +0.020 C 
ATOM      8  C   UNL     1     145.720 166.893 184.263  0.00  0.00    +0.112 C 
ATOM      9  C   UNL     1     146.973 166.572 183.420  0.00  0.00    +0.006 C 
ATOM     10  C   UNL     1     147.435 165.145 183.552  0.00  0.00    -0.057 C 
ATOM     11  C   UNL     1     146.606 164.221 184.067  0.00  0.00    +0.022 C 
ATOM     12  C   UNL     1     145.216 164.516 184.455  0.00  0.00    +0.332 C 
ATOM     13  O   UNL     1     144.474 163.633 184.867  0.00  0.00    -0.246 OA
ATOM     14  O   UNL     1     144.785 165.782 184.253  0.00  0.00    -0.458 OA
ATOM     15  C   UNL     1     148.750 164.750 182.892  0.00  0.00    -0.004 C 
ATOM     16  C   UNL     1     149.883 164.014 183.670  0.00  0.00    +0.066 C 
ATOM     17  C   UNL     1     150.902 164.949 184.373  0.00  0.00    -0.005 C 
ATOM     18  C   UNL     1     150.695 165.321 185.831  0.00  0.00    -0.070 C 
ATOM     19  C   UNL     1     151.710 165.204 186.716  0.00  0.00    -0.062 C 
ATOM     20  C   UNL     1     151.647 165.559 188.118  0.00  0.00    -0.055 C 
ATOM     21  C   UNL     1     151.390 166.801 188.555  0.00  0.00    +0.023 C 
ATOM     22  C   UNL     1     151.185 167.032 189.993  0.00  0.00    +0.332 C 
ATOM     23  O   UNL     1     151.621 166.324 190.890  0.00  0.00    -0.246 OA
ATOM     24  O   UNL     1     150.363 168.098 190.130  0.00  0.00    -0.457 OA
ATOM     25  C   UNL     1     149.644 168.192 191.381  0.00  0.00    +0.114 C 
ATOM     26  C   UNL     1     149.727 169.637 191.967  0.00  0.00    +0.012 C 
ATOM     27  C   UNL     1     148.853 170.679 191.307  0.00  0.00    -0.079 C 
ATOM     28  C   UNL     1     147.888 171.353 191.967  0.00  0.00    -0.059 C 
ATOM     29  C   UNL     1     147.033 172.437 191.373  0.00  0.00    +0.079 C 
ATOM     30  C   UNL     1     146.083 172.003 190.239  0.00  0.00    +0.004 C 
ATOM     31  C   UNL     1     144.864 171.173 190.685  0.00  0.00    +0.067 C 
ATOM     32  H   UNL     1     143.069 170.262 189.897  0.00  0.00    +0.037 HD
ATOM     33  H   UNL     1     144.401 169.603 188.095  0.00  0.00    +0.057 HD
ATOM     34  H   UNL     1     144.375 172.576 187.362  0.00  0.00    +0.059 HD
ATOM     35  H   UNL     1     144.169 171.692 185.157  0.00  0.00    +0.064 HD
ATOM     36  H   UNL     1     145.105 169.779 184.222  0.00  0.00    +0.032 HD
ATOM     37  H   UNL     1     144.081 169.272 185.554  0.00  0.00    +0.032 HD
ATOM     38  H   UNL     1     146.381 169.156 186.903  0.00  0.00    +0.060 HD
ATOM     39  H   UNL     1     146.906 166.894 186.061  0.00  0.00    +0.036 HD
ATOM     40  H   UNL     1     145.187 167.685 183.727  0.00  0.00    +0.074 HD
ATOM     41  H   UNL     1     147.788 167.261 183.659  0.00  0.00    +0.035 HD
ATOM     42  H   UNL     1     146.727 166.732 182.361  0.00  0.00    +0.035 HD
ATOM     43  H   UNL     1     146.872 163.169 184.123  0.00  0.00    +0.069 HD
ATOM     44  H   UNL     1     149.181 165.625 182.381  0.00  0.00    +0.034 HD
ATOM     45  H   UNL     1     148.460 164.074 182.070  0.00  0.00    +0.034 HD
ATOM     46  H   UNL     1     150.451 163.507 182.875  0.00  0.00    +0.060 HD
ATOM     47  H   UNL     1     151.004 165.878 183.792  0.00  0.00    +0.034 HD
ATOM     48  H   UNL     1     151.878 164.454 184.289  0.00  0.00    +0.034 HD
ATOM     49  H   UNL     1     152.666 164.785 186.399  0.00  0.00    +0.062 HD
ATOM     50  H   UNL     1     151.809 164.745 188.824  0.00  0.00    +0.062 HD
ATOM     51  H   UNL     1     151.224 167.636 187.889  0.00  0.00    +0.069 HD
ATOM     52  H   UNL     1     150.157 167.580 192.133  0.00  0.00    +0.074 HD
ATOM     53  H   UNL     1     149.408 169.543 193.014  0.00  0.00    +0.038 HD
ATOM     54  H   UNL     1     149.046 170.899 190.257  0.00  0.00    +0.057 HD
ATOM     55  H   UNL     1     147.725 171.138 193.025  0.00  0.00    +0.059 HD
ATOM     56  H   UNL     1     147.706 173.210 190.972  0.00  0.00    +0.064 HD
ATOM     57  H   UNL     1     146.662 171.462 189.480  0.00  0.00    +0.032 HD
ATOM     58  H   UNL     1     145.715 172.928 189.777  0.00  0.00    +0.032 HD
ATOM     59  H   UNL     1     144.415 171.645 191.570  0.00  0.00    +0.060 HD
ENDROOT
BRANCH   1  60
ATOM     60  C   UNL     1     142.890 172.349 189.589  0.00  0.00    -0.057 C 
ATOM     61  H   UNL     1     143.526 173.240 189.574  0.00  0.00    +0.024 HD
ATOM     62  H   UNL     1     142.268 172.408 190.488  0.00  0.00    +0.024 HD
ATOM     63  H   UNL     1     142.231 172.404 188.719  0.00  0.00    +0.024 HD
ENDBRANCH   1  60
BRANCH  26  64
ATOM     64  C   UNL     1     151.181 170.129 191.974  0.00  0.00    -0.056 C 
ATOM     65  H   UNL     1     151.622 170.083 190.970  0.00  0.00    +0.024 HD
ATOM     66  H   UNL     1     151.797 169.522 192.642  0.00  0.00    +0.024 HD
ATOM     67  H   UNL     1     151.236 171.161 192.329  0.00  0.00    +0.024 HD
ENDBRANCH  26  64
BRANCH  18  68
ATOM     68  C   UNL     1     149.331 165.830 186.185  0.00  0.00    -0.043 C 
ATOM     69  H   UNL     1     148.565 165.114 185.881  0.00  0.00    +0.027 HD
ATOM     70  H   UNL     1     149.176 165.995 187.253  0.00  0.00    +0.027 HD
ATOM     71  H   UNL     1     149.174 166.784 185.681  0.00  0.00    +0.027 HD
ENDBRANCH  18  68
BRANCH   7  72
ATOM     72  C   UNL     1     144.902 166.942 186.715  0.00  0.00    -0.057 C 
ATOM     73  H   UNL     1     144.685 167.738 187.430  0.00  0.00    +0.023 HD
ATOM     74  H   UNL     1     143.969 166.672 186.213  0.00  0.00    +0.023 HD
ATOM     75  H   UNL     1     145.237 166.081 187.299  0.00  0.00    +0.023 HD
ENDBRANCH   7  72
BRANCH  25  76
ATOM     76  C   UNL     1     148.195 167.625 191.184  0.00  0.00    +0.020 C 
ATOM     77  H   UNL     1     147.516 168.316 191.698  0.00  0.00    +0.036 HD
BRANCH  76  78
ATOM     78  C   UNL     1     147.796 167.606 189.703  0.00  0.00    -0.057 C 
ATOM     79  H   UNL     1     148.340 166.851 189.130  0.00  0.00    +0.023 HD
ATOM     80  H   UNL     1     146.724 167.431 189.596  0.00  0.00    +0.023 HD
ATOM     81  H   UNL     1     147.984 168.564 189.215  0.00  0.00    +0.023 HD
ENDBRANCH  76  78
BRANCH  76  82
ATOM     82  C   UNL     1     148.062 166.238 191.909  0.00  0.00    +0.067 C 
ATOM     83  H   UNL     1     148.544 166.314 192.890  0.00  0.00    +0.060 HD
BRANCH  82  84
ATOM     84  C   UNL     1     148.687 164.958 191.274  0.00  0.00    -0.017 C 
ATOM     85  H   UNL     1     149.555 165.272 190.682  0.00  0.00    +0.032 HD
BRANCH  84  86
ATOM     86  C   UNL     1     149.259 164.068 192.394  0.00  0.00    -0.060 C 
ATOM     87  H   UNL     1     148.448 163.666 193.009  0.00  0.00    +0.023 HD
ATOM     88  H   UNL     1     149.917 164.641 193.059  0.00  0.00    +0.023 HD
ATOM     89  H   UNL     1     149.836 163.224 191.995  0.00  0.00    +0.023 HD
ENDBRANCH  84  86
BRANCH  84  90
ATOM     90  C   UNL     1     147.811 164.084 190.346  0.00  0.00    -0.041 C 
ATOM     91  H   UNL     1     147.785 164.558 189.355  0.00  0.00    +0.027 HD
ATOM     92  H   UNL     1     146.773 164.123 190.682  0.00  0.00    +0.027 HD
BRANCH  90  93
ATOM     93  C   UNL     1     148.214 162.620 190.176  0.00  0.00    +0.007 C 
ATOM     94  H   UNL     1     147.371 162.001 189.860  0.00  0.00    +0.034 HD
ATOM     95  H   UNL     1     148.587 162.215 191.124  0.00  0.00    +0.034 HD
BRANCH  93  96
ATOM     96  C   UNL     1     149.332 162.450 189.153  0.00  0.00    +0.139 C 
ATOM     97  O   UNL     1     149.135 162.767 187.975  0.00  0.00    -0.297 OA
BRANCH  96  98
ATOM     98  C   UNL     1     150.666 161.855 189.622  0.00  0.00    +0.041 C 
ATOM     99  H   UNL     1     151.020 162.528 190.405  0.00  0.00    +0.040 HD
BRANCH  98 100
ATOM    100  C   UNL     1     151.726 161.874 188.519  0.00  0.00    -0.053 C 
ATOM    101  H   UNL     1     151.609 161.042 187.817  0.00  0.00    +0.024 HD
ATOM    102  H   UNL     1     151.653 162.798 187.933  0.00  0.00    +0.024 HD
ATOM    103  H   UNL     1     152.737 161.843 188.942  0.00  0.00    +0.024 HD
ENDBRANCH  98 100
BRANCH  98 104
ATOM    104  C   UNL     1     150.491 160.463 190.278  0.00  0.00    +0.071 C 
ATOM    105  H   UNL     1     149.634 160.466 190.964  0.00  0.00    +0.061 HD
BRANCH 104 106
ATOM    106  C   UNL     1     150.320 159.268 189.307  0.00  0.00    -0.006 C 
ATOM    107  H   UNL     1     150.801 159.501 188.349  0.00  0.00    +0.033 HD
ATOM    108  H   UNL     1     150.899 158.426 189.706  0.00  0.00    +0.033 HD
BRANCH 106 109
ATOM    109  C   UNL     1     148.905 158.792 189.111  0.00  0.00    -0.067 C 
ATOM    110  C   UNL     1     147.944 158.963 190.029  0.00  0.00    -0.005 C 
ATOM    111  H   UNL     1     148.717 158.307 188.156  0.00  0.00    +0.059 HD
ATOM    112  H   UNL     1     148.187 159.499 190.945  0.00  0.00    +0.078 HD
BRANCH 110 113
ATOM    113  N   UNL     1     146.631 158.529 189.955  0.00  0.00    -0.284 N 
ATOM    114  C   UNL     1     145.770 158.381 191.042  0.00  0.00    +0.206 C 
ATOM    115  O   UNL     1     144.606 157.994 190.983  0.00  0.00    -0.279 OA
ATOM    116  H   UNL     1     146.212 158.655 192.007  0.00  0.00    +0.126 HD
BRANCH 113 117
ATOM    117  C   UNL     1     146.095 158.243 188.627  0.00  0.00    +0.007 C 
ATOM    118  H   UNL     1     145.839 159.196 188.149  0.00  0.00    +0.043 HD
ATOM    119  H   UNL     1     145.198 157.620 188.668  0.00  0.00    +0.043 HD
ATOM    120  H   UNL     1     146.854 157.724 188.031  0.00  0.00    +0.043 HD
ENDBRANCH 113 117
ENDBRANCH 110 113
ENDBRANCH 106 109
ENDBRANCH 104 106
BRANCH 104 121
ATOM    121  O   UNL     1     151.683 160.161 191.039  0.00  0.00    -0.379 OA
BRANCH 121 122
ATOM    122  C   UNL     1     151.921 158.762 191.185  0.00  0.00    +0.037 C 
ATOM    123  H   UNL     1     151.280 158.384 191.987  0.00  0.00    +0.052 HD
ATOM    124  H   UNL     1     151.678 158.228 190.266  0.00  0.00    +0.052 HD
ATOM    125  H   UNL     1     152.966 158.580 191.456  0.00  0.00    +0.052 HD
ENDBRANCH 121 122
ENDBRANCH 104 121
ENDBRANCH  98 104
ENDBRANCH  96  98
ENDBRANCH  93  96
ENDBRANCH  90  93
ENDBRANCH  84  90
ENDBRANCH  82  84
BRANCH  82 126
ATOM    126  O   UNL     1     146.662 165.986 192.144  0.00  0.00    -0.379 OA
BRANCH 126 127
ATOM    127  C   UNL     1     146.276 166.173 193.503  0.00  0.00    +0.037 C 
ATOM    128  H   UNL     1     145.557 165.403 193.803  0.00  0.00    +0.052 HD
ATOM    129  H   UNL     1     147.150 166.154 194.161  0.00  0.00    +0.052 HD
ATOM    130  H   UNL     1     145.791 167.152 193.593  0.00  0.00    +0.052 HD
ENDBRANCH 126 127
ENDBRANCH  82 126
ENDBRANCH  76  82
ENDBRANCH  25  76
BRANCH  31 131
ATOM    131  O   UNL     1     145.297 169.843 191.020  0.00  0.00    -0.379 OA
BRANCH 131 132
ATOM    132  C   UNL     1     144.224 168.905 190.991  0.00  0.00    +0.037 C 
ATOM    133  H   UNL     1     144.262 168.254 191.869  0.00  0.00    +0.052 HD
ATOM    134  H   UNL     1     143.280 169.459 191.000  0.00  0.00    +0.052 HD
ATOM    135  H   UNL     1     144.268 168.306 190.074  0.00  0.00    +0.052 HD
ENDBRANCH 131 132
ENDBRANCH  31 131
BRANCH  29 136
ATOM    136  O   UNL     1     146.247 172.985 192.446  0.00  0.00    -0.376 OA
BRANCH 136 137
ATOM    137  C   UNL     1     147.036 173.538 193.491  0.00  0.00    +0.037 C 
ATOM    138  H   UNL     1     148.027 173.071 193.511  0.00  0.00    +0.052 HD
ATOM    139  H   UNL     1     147.160 174.608 193.293  0.00  0.00    +0.052 HD
ATOM    140  H   UNL     1     146.537 173.418 194.456  0.00  0.00    +0.052 HD
ENDBRANCH 136 137
ENDBRANCH  29 136
BRANCH  16 141
ATOM    141  O   UNL     1     149.340 162.998 184.517  0.00  0.00    -0.379 OA
BRANCH 141 142
ATOM    142  C   UNL     1     149.483 161.682 184.002  0.00  0.00    +0.037 C 
ATOM    143  H   UNL     1     150.530 161.382 184.124  0.00  0.00    +0.052 HD
ATOM    144  H   UNL     1     149.231 161.635 182.937  0.00  0.00    +0.052 HD
ATOM    145  H   UNL     1     148.855 160.985 184.571  0.00  0.00    +0.052 HD
ENDBRANCH 141 142
ENDBRANCH  16 141
BRANCH   6 146
ATOM    146  O   UNL     1     147.394 169.251 185.092  0.00  0.00    -0.379 OA
BRANCH 146 147
ATOM    147  C   UNL     1     148.584 169.172 185.873  0.00  0.00    +0.037 C 
ATOM    148  H   UNL     1     149.453 169.430 185.260  0.00  0.00    +0.052 HD
ATOM    149  H   UNL     1     148.715 168.167 186.292  0.00  0.00    +0.052 HD
ATOM    150  H   UNL     1     148.508 169.887 186.698  0.00  0.00    +0.052 HD
ENDBRANCH 146 147
ENDBRANCH   6 146
BRANCH   4 151
ATOM    151  O   UNL     1     146.170 171.937 185.602  0.00  0.00    -0.376 OA
BRANCH 151 152
ATOM    152  C   UNL     1     146.081 173.307 185.980  0.00  0.00    +0.037 C 
ATOM    153  H   UNL     1     146.989 173.846 185.692  0.00  0.00    +0.052 HD
ATOM    154  H   UNL     1     145.239 173.749 185.448  0.00  0.00    +0.052 HD
ATOM    155  H   UNL     1     145.912 173.406 187.055  0.00  0.00    +0.052 HD
ENDBRANCH 151 152
ENDBRANCH   4 151
TORSDOF 33
ENDMDL
MODEL 8
REMARK VINA RESULT:      -4.2      3.125     10.309
REMARK  Name = Reidispongiolide A_conf3
REMARK  33 active torsions:
REMARK  status: ('A' for Active; 'I' for Inactive)
REMARK    1  A    between atoms: C_1  and  C_2
REMARK    2  A    between atoms: C_5  and  O_67
REMARK    3  A    between atoms: C_7  and  O_65
REMARK    4  A    between atoms: C_8  and  C_64
REMARK    5  A    between atoms: C_17  and  O_62
REMARK    6  A    between atoms: C_19  and  C_61
REMARK    7  A    between atoms: C_26  and  C_38
REMARK    8  A    between atoms: C_27  and  C_37
REMARK    9  A    between atoms: C_30  and  O_35
REMARK   10  A    between atoms: C_32  and  O_33
REMARK   11  A    between atoms: O_33  and  C_34
REMARK   12  A    between atoms: O_35  and  C_36
REMARK   13  A    between atoms: C_38  and  C_39
REMARK   14  A    between atoms: C_38  and  C_40
REMARK   15  A    between atoms: C_40  and  C_41
REMARK   16  A    between atoms: C_40  and  O_59
REMARK   17  A    between atoms: C_41  and  C_42
REMARK   18  A    between atoms: C_41  and  C_43
REMARK   19  A    between atoms: C_43  and  C_44
REMARK   20  A    between atoms: C_44  and  C_45
REMARK   21  A    between atoms: C_45  and  C_47
REMARK   22  A    between atoms: C_47  and  C_48
REMARK   23  A    between atoms: C_47  and  C_49
REMARK   24  A    between atoms: C_49  and  C_50
REMARK   25  A    between atoms: C_49  and  O_57
REMARK   26  A    between atoms: C_50  and  C_51
REMARK   27  A    between atoms: C_52  and  N_53
REMARK   28  A    between atoms: N_53  and  C_54
REMARK   29  A    between atoms: O_57  and  C_58
REMARK   30  A    between atoms: O_59  and  C_60
REMARK   31  A    between atoms: O_62  and  C_63
REMARK   32  A    between atoms: O_65  and  C_66
REMARK   33  A    between atoms: O_67  and  C_68
REMARK                            x       y       z     vdW  Elec       q    Type
REMARK                         _______ _______ _______ _____ _____    ______ ____
ROOT
ATOM      1  C   UNL     1     152.234 165.579 185.731  0.00  0.00    +0.001 C 
ATOM      2  C   UNL     1     150.797 165.816 185.277  0.00  0.00    -0.080 C 
ATOM      3  C   UNL     1     150.091 165.025 184.449  0.00  0.00    -0.059 C 
ATOM      4  C   UNL     1     148.702 165.194 183.887  0.00  0.00    +0.079 C 
ATOM      5  C   UNL     1     147.942 166.506 184.162  0.00  0.00    +0.004 C 
ATOM      6  C   UNL     1     147.382 166.706 185.588  0.00  0.00    +0.067 C 
ATOM      7  C   UNL     1     147.060 168.197 185.913  0.00  0.00    +0.020 C 
ATOM      8  C   UNL     1     146.031 168.853 184.935  0.00  0.00    +0.112 C 
ATOM      9  C   UNL     1     144.542 168.657 185.295  0.00  0.00    +0.006 C 
ATOM     10  C   UNL     1     143.998 169.732 186.198  0.00  0.00    -0.057 C 
ATOM     11  C   UNL     1     144.671 170.886 186.343  0.00  0.00    +0.022 C 
ATOM     12  C   UNL     1     145.904 171.195 185.598  0.00  0.00    +0.332 C 
ATOM     13  O   UNL     1     146.457 172.281 185.715  0.00  0.00    -0.246 OA
ATOM     14  O   UNL     1     146.338 170.256 184.726  0.00  0.00    -0.458 OA
ATOM     15  C   UNL     1     142.588 169.564 186.748  0.00  0.00    -0.004 C 
ATOM     16  C   UNL     1     142.268 169.683 188.269  0.00  0.00    +0.066 C 
ATOM     17  C   UNL     1     142.375 168.354 189.062  0.00  0.00    -0.005 C 
ATOM     18  C   UNL     1     143.673 168.009 189.773  0.00  0.00    -0.070 C 
ATOM     19  C   UNL     1     143.658 167.615 191.066  0.00  0.00    -0.062 C 
ATOM     20  C   UNL     1     144.820 167.227 191.839  0.00  0.00    -0.055 C 
ATOM     21  C   UNL     1     145.609 166.191 191.517  0.00  0.00    +0.023 C 
ATOM     22  C   UNL     1     146.856 165.975 192.266  0.00  0.00    +0.332 C 
ATOM     23  O   UNL     1     147.069 166.361 193.406  0.00  0.00    -0.246 OA
ATOM     24  O   UNL     1     147.736 165.362 191.441  0.00  0.00    -0.457 OA
ATOM     25  C   UNL     1     149.134 165.502 191.783  0.00  0.00    +0.114 C 
ATOM     26  C   UNL     1     149.870 164.127 191.707  0.00  0.00    +0.012 C 
ATOM     27  C   UNL     1     150.189 163.612 190.322  0.00  0.00    -0.079 C 
ATOM     28  C   UNL     1     151.448 163.378 189.898  0.00  0.00    -0.059 C 
ATOM     29  C   UNL     1     151.814 162.814 188.554  0.00  0.00    +0.079 C 
ATOM     30  C   UNL     1     151.468 163.692 187.335  0.00  0.00    +0.004 C 
ATOM     31  C   UNL     1     152.360 164.935 187.147  0.00  0.00    +0.067 C 
ATOM     32  H   UNL     1     152.683 166.584 185.787  0.00  0.00    +0.037 HD
ATOM     33  H   UNL     1     150.354 166.723 185.676  0.00  0.00    +0.057 HD
ATOM     34  H   UNL     1     150.561 164.112 184.091  0.00  0.00    +0.059 HD
ATOM     35  H   UNL     1     148.846 165.146 182.797  0.00  0.00    +0.064 HD
ATOM     36  H   UNL     1     147.097 166.527 183.466  0.00  0.00    +0.032 HD
ATOM     37  H   UNL     1     148.600 167.334 183.882  0.00  0.00    +0.032 HD
ATOM     38  H   UNL     1     148.120 166.352 186.317  0.00  0.00    +0.060 HD
ATOM     39  H   UNL     1     146.612 168.216 186.909  0.00  0.00    +0.036 HD
ATOM     40  H   UNL     1     146.166 168.408 183.944  0.00  0.00    +0.074 HD
ATOM     41  H   UNL     1     144.375 167.669 185.733  0.00  0.00    +0.035 HD
ATOM     42  H   UNL     1     143.956 168.693 184.367  0.00  0.00    +0.035 HD
ATOM     43  H   UNL     1     144.287 171.713 186.933  0.00  0.00    +0.069 HD
ATOM     44  H   UNL     1     142.155 168.626 186.367  0.00  0.00    +0.034 HD
ATOM     45  H   UNL     1     141.997 170.353 186.253  0.00  0.00    +0.034 HD
ATOM     46  H   UNL     1     141.199 169.948 188.286  0.00  0.00    +0.060 HD
ATOM     47  H   UNL     1     142.111 167.514 188.402  0.00  0.00    +0.034 HD
ATOM     48  H   UNL     1     141.578 168.383 189.816  0.00  0.00    +0.034 HD
ATOM     49  H   UNL     1     142.721 167.601 191.623  0.00  0.00    +0.062 HD
ATOM     50  H   UNL     1     145.038 167.841 192.712  0.00  0.00    +0.062 HD
ATOM     51  H   UNL     1     145.428 165.558 190.659  0.00  0.00    +0.069 HD
ATOM     52  H   UNL     1     149.215 165.779 192.841  0.00  0.00    +0.074 HD
ATOM     53  H   UNL     1     150.820 164.278 192.238  0.00  0.00    +0.038 HD
ATOM     54  H   UNL     1     149.347 163.403 189.662  0.00  0.00    +0.057 HD
ATOM     55  H   UNL     1     152.278 163.570 190.581  0.00  0.00    +0.059 HD
ATOM     56  H   UNL     1     151.286 161.856 188.440  0.00  0.00    +0.064 HD
ATOM     57  H   UNL     1     150.412 163.981 187.395  0.00  0.00    +0.032 HD
ATOM     58  H   UNL     1     151.587 163.051 186.452  0.00  0.00    +0.032 HD
ATOM     59  H   UNL     1     153.411 164.644 187.280  0.00  0.00    +0.060 HD
ENDROOT
BRANCH   1  60
ATOM     60  C   UNL     1     153.081 164.806 184.709  0.00  0.00    -0.057 C 
ATOM     61  H   UNL     1     152.609 163.848 184.467  0.00  0.00    +0.024 HD
ATOM     62  H   UNL     1     154.076 164.586 185.111  0.00  0.00    +0.024 HD
ATOM     63  H   UNL     1     153.210 165.353 183.772  0.00  0.00    +0.024 HD
ENDBRANCH   1  60
BRANCH  26  64
ATOM     64  C   UNL     1     149.082 163.056 192.474  0.00  0.00    -0.056 C 
ATOM     65  H   UNL     1     149.501 162.896 193.476  0.00  0.00    +0.024 HD
ATOM     66  H   UNL     1     149.099 162.100 191.945  0.00  0.00    +0.024 HD
ATOM     67  H   UNL     1     148.035 163.350 192.580  0.00  0.00    +0.024 HD
ENDBRANCH  26  64
BRANCH  18  68
ATOM     68  C   UNL     1     144.917 168.117 188.945  0.00  0.00    -0.043 C 
ATOM     69  H   UNL     1     144.715 167.829 187.911  0.00  0.00    +0.027 HD
ATOM     70  H   UNL     1     145.339 169.121 188.896  0.00  0.00    +0.027 HD
ATOM     71  H   UNL     1     145.678 167.463 189.374  0.00  0.00    +0.027 HD
ENDBRANCH  18  68
BRANCH   7  72
ATOM     72  C   UNL     1     148.366 168.994 186.035  0.00  0.00    -0.057 C 
ATOM     73  H   UNL     1     148.273 169.967 185.549  0.00  0.00    +0.023 HD
ATOM     74  H   UNL     1     148.654 169.161 187.077  0.00  0.00    +0.023 HD
ATOM     75  H   UNL     1     149.185 168.472 185.534  0.00  0.00    +0.023 HD
ENDBRANCH   7  72
BRANCH  25  76
ATOM     76  C   UNL     1     149.760 166.652 190.919  0.00  0.00    +0.020 C 
ATOM     77  H   UNL     1     150.741 166.294 190.586  0.00  0.00    +0.036 HD
BRANCH  76  78
ATOM     78  C   UNL     1     148.923 166.931 189.665  0.00  0.00    -0.057 C 
ATOM     79  H   UNL     1     149.239 167.836 189.141  0.00  0.00    +0.023 HD
ATOM     80  H   UNL     1     148.969 166.086 188.977  0.00  0.00    +0.023 HD
ATOM     81  H   UNL     1     147.865 167.059 189.898  0.00  0.00    +0.023 HD
ENDBRANCH  76  78
BRANCH  76  82
ATOM     82  C   UNL     1     150.021 167.913 191.819  0.00  0.00    +0.067 C 
ATOM     83  H   UNL     1     149.653 167.698 192.828  0.00  0.00    +0.060 HD
BRANCH  82  84
ATOM     84  C   UNL     1     149.370 169.283 191.457  0.00  0.00    -0.017 C 
ATOM     85  H   UNL     1     149.168 169.279 190.380  0.00  0.00    +0.032 HD
BRANCH  84  86
ATOM     86  C   UNL     1     147.988 169.376 192.131  0.00  0.00    -0.060 C 
ATOM     87  H   UNL     1     147.661 168.386 192.465  0.00  0.00    +0.023 HD
ATOM     88  H   UNL     1     147.230 169.748 191.431  0.00  0.00    +0.023 HD
ATOM     89  H   UNL     1     147.998 170.044 193.002  0.00  0.00    +0.023 HD
ENDBRANCH  84  86
BRANCH  84  90
ATOM     90  C   UNL     1     150.155 170.582 191.756  0.00  0.00    -0.041 C 
ATOM     91  H   UNL     1     151.124 170.520 191.242  0.00  0.00    +0.027 HD
ATOM     92  H   UNL     1     150.421 170.612 192.815  0.00  0.00    +0.027 HD
BRANCH  90  93
ATOM     93  C   UNL     1     149.489 171.905 191.383  0.00  0.00    +0.007 C 
ATOM     94  H   UNL     1     148.595 171.752 190.774  0.00  0.00    +0.034 HD
ATOM     95  H   UNL     1     150.181 172.530 190.806  0.00  0.00    +0.034 HD
BRANCH  93  96
ATOM     96  C   UNL     1     149.088 172.710 192.614  0.00  0.00    +0.139 C 
ATOM     97  O   UNL     1     149.832 172.727 193.601  0.00  0.00    -0.297 OA
BRANCH  96  98
ATOM     98  C   UNL     1     147.746 173.453 192.596  0.00  0.00    +0.041 C 
ATOM     99  H   UNL     1     147.968 174.433 192.168  0.00  0.00    +0.040 HD
BRANCH  98 100
ATOM    100  C   UNL     1     147.207 173.705 194.005  0.00  0.00    -0.053 C 
ATOM    101  H   UNL     1     147.005 174.765 194.189  0.00  0.00    +0.024 HD
ATOM    102  H   UNL     1     146.262 173.170 194.156  0.00  0.00    +0.024 HD
ATOM    103  H   UNL     1     147.906 173.339 194.767  0.00  0.00    +0.024 HD
ENDBRANCH  98 100
BRANCH  98 104
ATOM    104  C   UNL     1     146.714 172.780 191.657  0.00  0.00    +0.071 C 
ATOM    105  H   UNL     1     146.955 171.719 191.519  0.00  0.00    +0.061 HD
BRANCH 104 106
ATOM    106  C   UNL     1     145.231 172.879 192.092  0.00  0.00    -0.006 C 
ATOM    107  H   UNL     1     144.716 171.938 191.860  0.00  0.00    +0.033 HD
ATOM    108  H   UNL     1     145.205 172.942 193.187  0.00  0.00    +0.033 HD
BRANCH 106 109
ATOM    109  C   UNL     1     144.477 174.066 191.553  0.00  0.00    -0.067 C 
ATOM    110  C   UNL     1     143.388 174.570 192.151  0.00  0.00    -0.005 C 
ATOM    111  H   UNL     1     144.893 174.495 190.645  0.00  0.00    +0.059 HD
ATOM    112  H   UNL     1     143.051 174.123 193.084  0.00  0.00    +0.078 HD
BRANCH 110 113
ATOM    113  N   UNL     1     142.610 175.629 191.713  0.00  0.00    -0.284 N 
ATOM    114  C   UNL     1     142.177 176.691 192.506  0.00  0.00    +0.206 C 
ATOM    115  O   UNL     1     141.485 177.631 192.124  0.00  0.00    -0.279 OA
ATOM    116  H   UNL     1     142.518 176.644 193.546  0.00  0.00    +0.126 HD
BRANCH 113 117
ATOM    117  C   UNL     1     142.249 175.653 190.298  0.00  0.00    +0.007 C 
ATOM    118  H   UNL     1     143.113 176.022 189.731  0.00  0.00    +0.043 HD
ATOM    119  H   UNL     1     141.395 176.306 190.100  0.00  0.00    +0.043 HD
ATOM    120  H   UNL     1     141.998 174.639 189.967  0.00  0.00    +0.043 HD
ENDBRANCH 113 117
ENDBRANCH 110 113
ENDBRANCH 106 109
ENDBRANCH 104 106
BRANCH 104 121
ATOM    121  O   UNL     1     146.772 173.434 190.368  0.00  0.00    -0.379 OA
BRANCH 121 122
ATOM    122  C   UNL     1     146.457 172.567 189.280  0.00  0.00    +0.037 C 
ATOM    123  H   UNL     1     146.210 171.580 189.685  0.00  0.00    +0.052 HD
ATOM    124  H   UNL     1     145.595 172.938 188.724  0.00  0.00    +0.052 HD
ATOM    125  H   UNL     1     147.317 172.467 188.611  0.00  0.00    +0.052 HD
ENDBRANCH 121 122
ENDBRANCH 104 121
ENDBRANCH  98 104
ENDBRANCH  96  98
ENDBRANCH  93  96
ENDBRANCH  90  93
ENDBRANCH  84  90
ENDBRANCH  82  84
BRANCH  82 126
ATOM    126  O   UNL     1     151.446 168.104 191.920  0.00  0.00    -0.379 OA
BRANCH 126 127
ATOM    127  C   UNL     1     152.064 167.252 192.881  0.00  0.00    +0.037 C 
ATOM    128  H   UNL     1     151.826 166.204 192.668  0.00  0.00    +0.052 HD
ATOM    129  H   UNL     1     153.149 167.401 192.891  0.00  0.00    +0.052 HD
ATOM    130  H   UNL     1     151.668 167.503 193.871  0.00  0.00    +0.052 HD
ENDBRANCH 126 127
ENDBRANCH  82 126
ENDBRANCH  76  82
ENDBRANCH  25  76
BRANCH  31 131
ATOM    131  O   UNL     1     152.007 165.921 188.133  0.00  0.00    -0.379 OA
BRANCH 131 132
ATOM    132  C   UNL     1     153.154 166.475 188.772  0.00  0.00    +0.037 C 
ATOM    133  H   UNL     1     153.915 166.737 188.031  0.00  0.00    +0.052 HD
ATOM    134  H   UNL     1     152.850 167.382 189.304  0.00  0.00    +0.052 HD
ATOM    135  H   UNL     1     153.564 165.765 189.500  0.00  0.00    +0.052 HD
ENDBRANCH 131 132
ENDBRANCH  31 131
BRANCH  29 136
ATOM    136  O   UNL     1     153.235 162.588 188.568  0.00  0.00    -0.376 OA
BRANCH 136 137
ATOM    137  C   UNL     1     153.769 162.473 189.880  0.00  0.00    +0.037 C 
ATOM    138  H   UNL     1     154.859 162.587 189.863  0.00  0.00    +0.052 HD
ATOM    139  H   UNL     1     153.344 163.277 190.492  0.00  0.00    +0.052 HD
ATOM    140  H   UNL     1     153.492 161.514 190.326  0.00  0.00    +0.052 HD
ENDBRANCH 136 137
ENDBRANCH  29 136
BRANCH  16 141
ATOM    141  O   UNL     1     142.984 170.773 188.855  0.00  0.00    -0.379 OA
BRANCH 141 142
ATOM    142  C   UNL     1     142.242 171.491 189.831  0.00  0.00    +0.037 C 
ATOM    143  H   UNL     1     141.250 171.702 189.415  0.00  0.00    +0.052 HD
ATOM    144  H   UNL     1     142.721 172.443 190.082  0.00  0.00    +0.052 HD
ATOM    145  H   UNL     1     142.117 170.880 190.733  0.00  0.00    +0.052 HD
ENDBRANCH 141 142
ENDBRANCH  16 141
BRANCH   6 146
ATOM    146  O   UNL     1     146.170 165.952 185.721  0.00  0.00    -0.379 OA
BRANCH 146 147
ATOM    147  C   UNL     1     146.093 165.257 186.963  0.00  0.00    +0.037 C 
ATOM    148  H   UNL     1     146.702 165.767 187.716  0.00  0.00    +0.052 HD
ATOM    149  H   UNL     1     146.432 164.220 186.856  0.00  0.00    +0.052 HD
ATOM    150  H   UNL     1     145.051 165.251 187.296  0.00  0.00    +0.052 HD
ENDBRANCH 146 147
ENDBRANCH   6 146
BRANCH   4 151
ATOM    151  O   UNL     1     147.977 164.032 184.300  0.00  0.00    -0.376 OA
BRANCH 151 152
ATOM    152  C   UNL     1     148.790 162.867 184.403  0.00  0.00    +0.037 C 
ATOM    153  H   UNL     1     148.169 161.967 184.462  0.00  0.00    +0.052 HD
ATOM    154  H   UNL     1     149.400 162.802 183.503  0.00  0.00    +0.052 HD
ATOM    155  H   UNL     1     149.449 162.925 185.273  0.00  0.00    +0.052 HD
ENDBRANCH 151 152
ENDBRANCH   4 151
TORSDOF 33
ENDMDL
MODEL 9
REMARK VINA RESULT:      -4.2      3.062      9.051
REMARK  Name = Reidispongiolide A_conf3
REMARK  33 active torsions:
REMARK  status: ('A' for Active; 'I' for Inactive)
REMARK    1  A    between atoms: C_1  and  C_2
REMARK    2  A    between atoms: C_5  and  O_67
REMARK    3  A    between atoms: C_7  and  O_65
REMARK    4  A    between atoms: C_8  and  C_64
REMARK    5  A    between atoms: C_17  and  O_62
REMARK    6  A    between atoms: C_19  and  C_61
REMARK    7  A    between atoms: C_26  and  C_38
REMARK    8  A    between atoms: C_27  and  C_37
REMARK    9  A    between atoms: C_30  and  O_35
REMARK   10  A    between atoms: C_32  and  O_33
REMARK   11  A    between atoms: O_33  and  C_34
REMARK   12  A    between atoms: O_35  and  C_36
REMARK   13  A    between atoms: C_38  and  C_39
REMARK   14  A    between atoms: C_38  and  C_40
REMARK   15  A    between atoms: C_40  and  C_41
REMARK   16  A    between atoms: C_40  and  O_59
REMARK   17  A    between atoms: C_41  and  C_42
REMARK   18  A    between atoms: C_41  and  C_43
REMARK   19  A    between atoms: C_43  and  C_44
REMARK   20  A    between atoms: C_44  and  C_45
REMARK   21  A    between atoms: C_45  and  C_47
REMARK   22  A    between atoms: C_47  and  C_48
REMARK   23  A    between atoms: C_47  and  C_49
REMARK   24  A    between atoms: C_49  and  C_50
REMARK   25  A    between atoms: C_49  and  O_57
REMARK   26  A    between atoms: C_50  and  C_51
REMARK   27  A    between atoms: C_52  and  N_53
REMARK   28  A    between atoms: N_53  and  C_54
REMARK   29  A    between atoms: O_57  and  C_58
REMARK   30  A    between atoms: O_59  and  C_60
REMARK   31  A    between atoms: O_62  and  C_63
REMARK   32  A    between atoms: O_65  and  C_66
REMARK   33  A    between atoms: O_67  and  C_68
REMARK                            x       y       z     vdW  Elec       q    Type
REMARK                         _______ _______ _______ _____ _____    ______ ____
ROOT
ATOM      1  C   UNL     1     151.765 159.966 190.509  0.00  0.00    +0.001 C 
ATOM      2  C   UNL     1     152.643 160.060 189.266  0.00  0.00    -0.080 C 
ATOM      3  C   UNL     1     153.114 159.022 188.551  0.00  0.00    -0.059 C 
ATOM      4  C   UNL     1     154.034 158.996 187.358  0.00  0.00    +0.079 C 
ATOM      5  C   UNL     1     154.676 160.314 186.884  0.00  0.00    +0.004 C 
ATOM      6  C   UNL     1     153.759 161.315 186.146  0.00  0.00    +0.067 C 
ATOM      7  C   UNL     1     154.331 162.766 186.124  0.00  0.00    +0.020 C 
ATOM      8  C   UNL     1     155.742 162.882 185.459  0.00  0.00    +0.112 C 
ATOM      9  C   UNL     1     155.750 163.065 183.926  0.00  0.00    +0.006 C 
ATOM     10  C   UNL     1     155.698 164.507 183.494  0.00  0.00    -0.057 C 
ATOM     11  C   UNL     1     155.980 165.478 184.379  0.00  0.00    +0.022 C 
ATOM     12  C   UNL     1     156.415 165.204 185.760  0.00  0.00    +0.332 C 
ATOM     13  O   UNL     1     156.718 166.117 186.519  0.00  0.00    -0.246 OA
ATOM     14  O   UNL     1     156.539 163.904 186.112  0.00  0.00    -0.458 OA
ATOM     15  C   UNL     1     155.542 164.809 182.010  0.00  0.00    -0.004 C 
ATOM     16  C   UNL     1     154.442 165.770 181.467  0.00  0.00    +0.066 C 
ATOM     17  C   UNL     1     153.091 165.085 181.127  0.00  0.00    -0.005 C 
ATOM     18  C   UNL     1     151.985 165.055 182.167  0.00  0.00    -0.070 C 
ATOM     19  C   UNL     1     150.729 165.433 181.838  0.00  0.00    -0.062 C 
ATOM     20  C   UNL     1     149.586 165.415 182.727  0.00  0.00    -0.055 C 
ATOM     21  C   UNL     1     149.115 164.298 183.301  0.00  0.00    +0.023 C 
ATOM     22  C   UNL     1     148.054 164.401 184.315  0.00  0.00    +0.332 C 
ATOM     23  O   UNL     1     147.257 165.322 184.410  0.00  0.00    -0.246 OA
ATOM     24  O   UNL     1     148.185 163.352 185.161  0.00  0.00    -0.457 OA
ATOM     25  C   UNL     1     147.598 163.515 186.472  0.00  0.00    +0.114 C 
ATOM     26  C   UNL     1     146.768 162.254 186.874  0.00  0.00    +0.012 C 
ATOM     27  C   UNL     1     147.558 161.039 187.302  0.00  0.00    -0.079 C 
ATOM     28  C   UNL     1     147.448 160.486 188.528  0.00  0.00    -0.059 C 
ATOM     29  C   UNL     1     148.167 159.246 188.982  0.00  0.00    +0.079 C 
ATOM     30  C   UNL     1     149.703 159.348 189.064  0.00  0.00    +0.004 C 
ATOM     31  C   UNL     1     150.244 160.189 190.236  0.00  0.00    +0.067 C 
ATOM     32  H   UNL     1     152.104 160.787 191.160  0.00  0.00    +0.037 HD
ATOM     33  H   UNL     1     152.894 161.078 188.981  0.00  0.00    +0.057 HD
ATOM     34  H   UNL     1     152.820 158.019 188.854  0.00  0.00    +0.059 HD
ATOM     35  H   UNL     1     154.866 158.347 187.674  0.00  0.00    +0.064 HD
ATOM     36  H   UNL     1     155.486 160.037 186.201  0.00  0.00    +0.032 HD
ATOM     37  H   UNL     1     155.146 160.785 187.752  0.00  0.00    +0.032 HD
ATOM     38  H   UNL     1     152.783 161.343 186.645  0.00  0.00    +0.060 HD
ATOM     39  H   UNL     1     153.645 163.370 185.526  0.00  0.00    +0.036 HD
ATOM     40  H   UNL     1     156.294 161.957 185.658  0.00  0.00    +0.074 HD
ATOM     41  H   UNL     1     154.937 162.499 183.463  0.00  0.00    +0.035 HD
ATOM     42  H   UNL     1     156.687 162.648 183.533  0.00  0.00    +0.035 HD
ATOM     43  H   UNL     1     156.017 166.527 184.099  0.00  0.00    +0.069 HD
ATOM     44  H   UNL     1     155.499 163.864 181.446  0.00  0.00    +0.034 HD
ATOM     45  H   UNL     1     156.507 165.255 181.711  0.00  0.00    +0.034 HD
ATOM     46  H   UNL     1     154.850 166.107 180.501  0.00  0.00    +0.060 HD
ATOM     47  H   UNL     1     153.281 164.053 180.796  0.00  0.00    +0.034 HD
ATOM     48  H   UNL     1     152.703 165.600 180.239  0.00  0.00    +0.034 HD
ATOM     49  H   UNL     1     150.518 165.820 180.840  0.00  0.00    +0.062 HD
ATOM     50  H   UNL     1     149.121 166.380 182.926  0.00  0.00    +0.062 HD
ATOM     51  H   UNL     1     149.547 163.322 183.130  0.00  0.00    +0.069 HD
ATOM     52  H   UNL     1     146.848 164.313 186.430  0.00  0.00    +0.074 HD
ATOM     53  H   UNL     1     146.152 162.574 187.726  0.00  0.00    +0.038 HD
ATOM     54  H   UNL     1     148.221 160.589 186.562  0.00  0.00    +0.057 HD
ATOM     55  H   UNL     1     146.761 160.934 189.247  0.00  0.00    +0.059 HD
ATOM     56  H   UNL     1     147.919 158.440 188.275  0.00  0.00    +0.064 HD
ATOM     57  H   UNL     1     150.084 159.727 188.108  0.00  0.00    +0.032 HD
ATOM     58  H   UNL     1     150.072 158.321 189.183  0.00  0.00    +0.032 HD
ATOM     59  H   UNL     1     149.704 159.914 191.152  0.00  0.00    +0.060 HD
ENDROOT
BRANCH   1  60
ATOM     60  C   UNL     1     151.983 158.680 191.320  0.00  0.00    -0.057 C 
ATOM     61  H   UNL     1     151.167 157.972 191.144  0.00  0.00    +0.024 HD
ATOM     62  H   UNL     1     152.004 158.892 192.394  0.00  0.00    +0.024 HD
ATOM     63  H   UNL     1     152.917 158.174 191.059  0.00  0.00    +0.024 HD
ENDBRANCH   1  60
BRANCH  26  64
ATOM     64  C   UNL     1     145.810 161.861 185.740  0.00  0.00    -0.056 C 
ATOM     65  H   UNL     1     146.122 160.922 185.265  0.00  0.00    +0.024 HD
ATOM     66  H   UNL     1     145.775 162.634 184.970  0.00  0.00    +0.024 HD
ATOM     67  H   UNL     1     144.794 161.735 186.122  0.00  0.00    +0.024 HD
ENDBRANCH  26  64
BRANCH  18  68
ATOM     68  C   UNL     1     152.382 164.568 183.527  0.00  0.00    -0.043 C 
ATOM     69  H   UNL     1     153.117 163.764 183.445  0.00  0.00    +0.027 HD
ATOM     70  H   UNL     1     152.843 165.328 184.160  0.00  0.00    +0.027 HD
ATOM     71  H   UNL     1     151.490 164.209 184.042  0.00  0.00    +0.027 HD
ENDBRANCH  18  68
BRANCH   7  72
ATOM     72  C   UNL     1     154.281 163.364 187.536  0.00  0.00    -0.057 C 
ATOM     73  H   UNL     1     153.251 163.564 187.836  0.00  0.00    +0.023 HD
ATOM     74  H   UNL     1     154.730 162.703 188.283  0.00  0.00    +0.023 HD
ATOM     75  H   UNL     1     154.808 164.322 187.569  0.00  0.00    +0.023 HD
ENDBRANCH   7  72
BRANCH  25  76
ATOM     76  C   UNL     1     148.718 163.937 187.486  0.00  0.00    +0.020 C 
ATOM     77  H   UNL     1     148.466 163.467 188.444  0.00  0.00    +0.036 HD
BRANCH  76  78
ATOM     78  C   UNL     1     150.091 163.403 187.060  0.00  0.00    -0.057 C 
ATOM     79  H   UNL     1     150.498 162.676 187.767  0.00  0.00    +0.023 HD
ATOM     80  H   UNL     1     150.036 162.947 186.071  0.00  0.00    +0.023 HD
ATOM     81  H   UNL     1     150.832 164.199 186.972  0.00  0.00    +0.023 HD
ENDBRANCH  76  78
BRANCH  76  82
ATOM     82  C   UNL     1     148.669 165.490 187.717  0.00  0.00    +0.067 C 
ATOM     83  H   UNL     1     147.654 165.839 187.497  0.00  0.00    +0.060 HD
BRANCH  82  84
ATOM     84  C   UNL     1     149.588 166.436 186.886  0.00  0.00    -0.017 C 
ATOM     85  H   UNL     1     149.962 165.865 186.028  0.00  0.00    +0.032 HD
BRANCH  84  86
ATOM     86  C   UNL     1     148.734 167.565 186.282  0.00  0.00    -0.060 C 
ATOM     87  H   UNL     1     149.364 168.254 185.710  0.00  0.00    +0.023 HD
ATOM     88  H   UNL     1     148.241 168.153 187.066  0.00  0.00    +0.023 HD
ATOM     89  H   UNL     1     147.955 167.180 185.611  0.00  0.00    +0.023 HD
ENDBRANCH  84  86
BRANCH  84  90
ATOM     90  C   UNL     1     150.825 167.064 187.572  0.00  0.00    -0.041 C 
ATOM     91  H   UNL     1     150.540 167.350 188.593  0.00  0.00    +0.027 HD
ATOM     92  H   UNL     1     151.064 168.015 187.091  0.00  0.00    +0.027 HD
BRANCH  90  93
ATOM     93  C   UNL     1     152.095 166.218 187.638  0.00  0.00    +0.007 C 
ATOM     94  H   UNL     1     152.658 166.256 186.702  0.00  0.00    +0.034 HD
ATOM     95  H   UNL     1     151.844 165.169 187.832  0.00  0.00    +0.034 HD
BRANCH  93  96
ATOM     96  C   UNL     1     153.021 166.666 188.763  0.00  0.00    +0.139 C 
ATOM     97  O   UNL     1     153.983 167.398 188.507  0.00  0.00    -0.297 OA
BRANCH  96  98
ATOM     98  C   UNL     1     152.742 166.159 190.184  0.00  0.00    +0.041 C 
ATOM     99  H   UNL     1     153.721 166.100 190.664  0.00  0.00    +0.040 HD
BRANCH  98 100
ATOM    100  C   UNL     1     152.170 164.739 190.188  0.00  0.00    -0.053 C 
ATOM    101  H   UNL     1     152.304 164.236 189.226  0.00  0.00    +0.024 HD
ATOM    102  H   UNL     1     152.674 164.125 190.943  0.00  0.00    +0.024 HD
ATOM    103  H   UNL     1     151.103 164.744 190.440  0.00  0.00    +0.024 HD
ENDBRANCH  98 100
BRANCH  98 104
ATOM    104  C   UNL     1     151.899 167.160 191.011  0.00  0.00    +0.071 C 
ATOM    105  H   UNL     1     150.836 166.891 190.974  0.00  0.00    +0.061 HD
BRANCH 104 106
ATOM    106  C   UNL     1     152.298 167.322 192.499  0.00  0.00    -0.006 C 
ATOM    107  H   UNL     1     153.351 167.043 192.631  0.00  0.00    +0.033 HD
ATOM    108  H   UNL     1     152.267 168.392 192.741  0.00  0.00    +0.033 HD
BRANCH 106 109
ATOM    109  C   UNL     1     151.412 166.610 193.487  0.00  0.00    -0.067 C 
ATOM    110  C   UNL     1     150.086 166.792 193.540  0.00  0.00    -0.005 C 
ATOM    111  H   UNL     1     151.931 165.921 194.149  0.00  0.00    +0.059 HD
ATOM    112  H   UNL     1     149.621 167.460 192.817  0.00  0.00    +0.078 HD
BRANCH 110 113
ATOM    113  N   UNL     1     149.198 166.215 194.433  0.00  0.00    -0.284 N 
ATOM    114  C   UNL     1     147.866 165.906 194.158  0.00  0.00    +0.206 C 
ATOM    115  O   UNL     1     147.074 165.396 194.946  0.00  0.00    -0.279 OA
ATOM    116  H   UNL     1     147.550 166.148 193.136  0.00  0.00    +0.126 HD
BRANCH 113 117
ATOM    117  C   UNL     1     149.712 165.864 195.754  0.00  0.00    +0.007 C 
ATOM    118  H   UNL     1     149.591 166.734 196.411  0.00  0.00    +0.043 HD
ATOM    119  H   UNL     1     150.769 165.590 195.727  0.00  0.00    +0.043 HD
ATOM    120  H   UNL     1     149.141 165.018 196.155  0.00  0.00    +0.043 HD
ENDBRANCH 113 117
ENDBRANCH 110 113
ENDBRANCH 106 109
ENDBRANCH 104 106
BRANCH 104 121
ATOM    121  O   UNL     1     152.057 168.478 190.435  0.00  0.00    -0.379 OA
BRANCH 121 122
ATOM    122  C   UNL     1     151.607 169.526 191.290  0.00  0.00    +0.037 C 
ATOM    123  H   UNL     1     150.756 169.158 191.871  0.00  0.00    +0.052 HD
ATOM    124  H   UNL     1     152.394 169.828 191.983  0.00  0.00    +0.052 HD
ATOM    125  H   UNL     1     151.282 170.388 190.699  0.00  0.00    +0.052 HD
ENDBRANCH 121 122
ENDBRANCH 104 121
ENDBRANCH  98 104
ENDBRANCH  96  98
ENDBRANCH  93  96
ENDBRANCH  90  93
ENDBRANCH  84  90
ENDBRANCH  82  84
BRANCH  82 126
ATOM    126  O   UNL     1     148.909 165.743 189.116  0.00  0.00    -0.379 OA
BRANCH 126 127
ATOM    127  C   UNL     1     147.743 166.155 189.824  0.00  0.00    +0.037 C 
ATOM    128  H   UNL     1     148.012 166.846 190.630  0.00  0.00    +0.052 HD
ATOM    129  H   UNL     1     147.023 166.623 189.145  0.00  0.00    +0.052 HD
ATOM    130  H   UNL     1     147.278 165.268 190.269  0.00  0.00    +0.052 HD
ENDBRANCH 126 127
ENDBRANCH  82 126
ENDBRANCH  76  82
ENDBRANCH  25  76
BRANCH  31 131
ATOM    131  O   UNL     1     150.028 161.583 189.953  0.00  0.00    -0.379 OA
BRANCH 131 132
ATOM    132  C   UNL     1     149.393 162.258 191.036  0.00  0.00    +0.037 C 
ATOM    133  H   UNL     1     150.122 162.500 191.815  0.00  0.00    +0.052 HD
ATOM    134  H   UNL     1     148.958 163.187 190.657  0.00  0.00    +0.052 HD
ATOM    135  H   UNL     1     148.588 161.639 191.450  0.00  0.00    +0.052 HD
ENDBRANCH 131 132
ENDBRANCH  31 131
BRANCH  29 136
ATOM    136  O   UNL     1     147.658 158.923 190.288  0.00  0.00    -0.376 OA
BRANCH 136 137
ATOM    137  C   UNL     1     146.550 159.727 190.670  0.00  0.00    +0.037 C 
ATOM    138  H   UNL     1     146.853 160.469 191.417  0.00  0.00    +0.052 HD
ATOM    139  H   UNL     1     146.190 160.255 189.780  0.00  0.00    +0.052 HD
ATOM    140  H   UNL     1     145.738 159.105 191.056  0.00  0.00    +0.052 HD
ENDBRANCH 136 137
ENDBRANCH  29 136
BRANCH  16 141
ATOM    141  O   UNL     1     154.318 166.924 182.301  0.00  0.00    -0.379 OA
BRANCH 141 142
ATOM    142  C   UNL     1     154.989 168.072 181.800  0.00  0.00    +0.037 C 
ATOM    143  H   UNL     1     154.813 168.899 182.497  0.00  0.00    +0.052 HD
ATOM    144  H   UNL     1     154.610 168.362 180.814  0.00  0.00    +0.052 HD
ATOM    145  H   UNL     1     156.069 167.885 181.750  0.00  0.00    +0.052 HD
ENDBRANCH 141 142
ENDBRANCH  16 141
BRANCH   6 146
ATOM    146  O   UNL     1     153.596 160.882 184.789  0.00  0.00    -0.379 OA
BRANCH 146 147
ATOM    147  C   UNL     1     152.247 160.984 184.342  0.00  0.00    +0.037 C 
ATOM    148  H   UNL     1     151.726 161.771 184.897  0.00  0.00    +0.052 HD
ATOM    149  H   UNL     1     151.716 160.033 184.469  0.00  0.00    +0.052 HD
ATOM    150  H   UNL     1     152.250 161.243 183.279  0.00  0.00    +0.052 HD
ENDBRANCH 146 147
ENDBRANCH   6 146
BRANCH   4 151
ATOM    151  O   UNL     1     153.305 158.327 186.325  0.00  0.00    -0.376 OA
BRANCH 151 152
ATOM    152  C   UNL     1     152.429 157.316 186.816  0.00  0.00    +0.037 C 
ATOM    153  H   UNL     1     152.362 156.487 186.106  0.00  0.00    +0.052 HD
ATOM    154  H   UNL     1     152.846 156.935 187.748  0.00  0.00    +0.052 HD
ATOM    155  H   UNL     1     151.434 157.723 187.014  0.00  0.00    +0.052 HD
ENDBRANCH 151 152
ENDBRANCH   4 151
TORSDOF 33
ENDMDL
MODEL 10
REMARK VINA RESULT:      -4.2      3.546      6.134
REMARK  Name = Reidispongiolide A_conf3
REMARK  33 active torsions:
REMARK  status: ('A' for Active; 'I' for Inactive)
REMARK    1  A    between atoms: C_1  and  C_2
REMARK    2  A    between atoms: C_5  and  O_67
REMARK    3  A    between atoms: C_7  and  O_65
REMARK    4  A    between atoms: C_8  and  C_64
REMARK    5  A    between atoms: C_17  and  O_62
REMARK    6  A    between atoms: C_19  and  C_61
REMARK    7  A    between atoms: C_26  and  C_38
REMARK    8  A    between atoms: C_27  and  C_37
REMARK    9  A    between atoms: C_30  and  O_35
REMARK   10  A    between atoms: C_32  and  O_33
REMARK   11  A    between atoms: O_33  and  C_34
REMARK   12  A    between atoms: O_35  and  C_36
REMARK   13  A    between atoms: C_38  and  C_39
REMARK   14  A    between atoms: C_38  and  C_40
REMARK   15  A    between atoms: C_40  and  C_41
REMARK   16  A    between atoms: C_40  and  O_59
REMARK   17  A    between atoms: C_41  and  C_42
REMARK   18  A    between atoms: C_41  and  C_43
REMARK   19  A    between atoms: C_43  and  C_44
REMARK   20  A    between atoms: C_44  and  C_45
REMARK   21  A    between atoms: C_45  and  C_47
REMARK   22  A    between atoms: C_47  and  C_48
REMARK   23  A    between atoms: C_47  and  C_49
REMARK   24  A    between atoms: C_49  and  C_50
REMARK   25  A    between atoms: C_49  and  O_57
REMARK   26  A    between atoms: C_50  and  C_51
REMARK   27  A    between atoms: C_52  and  N_53
REMARK   28  A    between atoms: N_53  and  C_54
REMARK   29  A    between atoms: O_57  and  C_58
REMARK   30  A    between atoms: O_59  and  C_60
REMARK   31  A    between atoms: O_62  and  C_63
REMARK   32  A    between atoms: O_65  and  C_66
REMARK   33  A    between atoms: O_67  and  C_68
REMARK                            x       y       z     vdW  Elec       q    Type
REMARK                         _______ _______ _______ _____ _____    ______ ____
ROOT
ATOM      1  C   UNL     1     143.715 172.793 189.998  0.00  0.00    +0.001 C 
ATOM      2  C   UNL     1     144.072 172.469 188.551  0.00  0.00    -0.080 C 
ATOM      3  C   UNL     1     144.504 173.348 187.629  0.00  0.00    -0.059 C 
ATOM      4  C   UNL     1     144.821 173.154 186.168  0.00  0.00    +0.079 C 
ATOM      5  C   UNL     1     144.523 171.789 185.517  0.00  0.00    +0.004 C 
ATOM      6  C   UNL     1     145.472 170.621 185.871  0.00  0.00    +0.067 C 
ATOM      7  C   UNL     1     144.854 169.221 185.571  0.00  0.00    +0.020 C 
ATOM      8  C   UNL     1     144.436 169.017 184.078  0.00  0.00    +0.112 C 
ATOM      9  C   UNL     1     145.548 168.513 183.132  0.00  0.00    +0.006 C 
ATOM     10  C   UNL     1     145.635 167.012 183.056  0.00  0.00    -0.057 C 
ATOM     11  C   UNL     1     144.610 166.261 183.497  0.00  0.00    +0.022 C 
ATOM     12  C   UNL     1     143.350 166.838 183.997  0.00  0.00    +0.332 C 
ATOM     13  O   UNL     1     142.418 166.119 184.335  0.00  0.00    -0.246 OA
ATOM     14  O   UNL     1     143.250 168.187 183.981  0.00  0.00    -0.458 OA
ATOM     15  C   UNL     1     146.791 166.395 182.280  0.00  0.00    -0.004 C 
ATOM     16  C   UNL     1     147.716 165.302 182.893  0.00  0.00    +0.066 C 
ATOM     17  C   UNL     1     148.956 165.850 183.650  0.00  0.00    -0.005 C 
ATOM     18  C   UNL     1     148.883 166.059 185.152  0.00  0.00    -0.070 C 
ATOM     19  C   UNL     1     149.856 165.575 185.957  0.00  0.00    -0.062 C 
ATOM     20  C   UNL     1     149.917 165.740 187.394  0.00  0.00    -0.055 C 
ATOM     21  C   UNL     1     149.994 166.936 187.997  0.00  0.00    +0.023 C 
ATOM     22  C   UNL     1     149.886 167.012 189.462  0.00  0.00    +0.332 C 
ATOM     23  O   UNL     1     150.148 166.103 190.237  0.00  0.00    -0.246 OA
ATOM     24  O   UNL     1     149.365 168.221 189.778  0.00  0.00    -0.457 OA
ATOM     25  C   UNL     1     148.723 168.319 191.070  0.00  0.00    +0.114 C 
ATOM     26  C   UNL     1     149.183 169.605 191.827  0.00  0.00    +0.012 C 
ATOM     27  C   UNL     1     148.588 170.912 191.354  0.00  0.00    -0.079 C 
ATOM     28  C   UNL     1     147.842 171.708 192.147  0.00  0.00    -0.059 C 
ATOM     29  C   UNL     1     147.277 173.041 191.743  0.00  0.00    +0.079 C 
ATOM     30  C   UNL     1     146.223 173.015 190.619  0.00  0.00    +0.004 C 
ATOM     31  C   UNL     1     144.842 172.462 191.025  0.00  0.00    +0.067 C 
ATOM     32  H   UNL     1     142.858 172.142 190.231  0.00  0.00    +0.037 HD
ATOM     33  H   UNL     1     143.938 171.424 188.289  0.00  0.00    +0.057 HD
ATOM     34  H   UNL     1     144.651 174.381 187.937  0.00  0.00    +0.059 HD
ATOM     35  H   UNL     1     144.177 173.885 185.654  0.00  0.00    +0.064 HD
ATOM     36  H   UNL     1     144.574 171.944 184.434  0.00  0.00    +0.032 HD
ATOM     37  H   UNL     1     143.486 171.531 185.748  0.00  0.00    +0.032 HD
ATOM     38  H   UNL     1     145.711 170.665 186.940  0.00  0.00    +0.060 HD
ATOM     39  H   UNL     1     145.625 168.479 185.792  0.00  0.00    +0.036 HD
ATOM     40  H   UNL     1     144.110 169.983 183.677  0.00  0.00    +0.074 HD
ATOM     41  H   UNL     1     146.516 168.938 183.409  0.00  0.00    +0.035 HD
ATOM     42  H   UNL     1     145.326 168.871 182.117  0.00  0.00    +0.035 HD
ATOM     43  H   UNL     1     144.601 165.179 183.406  0.00  0.00    +0.069 HD
ATOM     44  H   UNL     1     147.418 167.197 181.859  0.00  0.00    +0.034 HD
ATOM     45  H   UNL     1     146.320 165.931 181.396  0.00  0.00    +0.034 HD
ATOM     46  H   UNL     1     148.119 164.782 182.010  0.00  0.00    +0.060 HD
ATOM     47  H   UNL     1     149.277 166.794 183.185  0.00  0.00    +0.034 HD
ATOM     48  H   UNL     1     149.772 165.143 183.449  0.00  0.00    +0.034 HD
ATOM     49  H   UNL     1     150.666 164.977 185.537  0.00  0.00    +0.062 HD
ATOM     50  H   UNL     1     149.882 164.823 187.982  0.00  0.00    +0.062 HD
ATOM     51  H   UNL     1     150.030 167.868 187.452  0.00  0.00    +0.069 HD
ATOM     52  H   UNL     1     149.081 167.503 191.708  0.00  0.00    +0.074 HD
ATOM     53  H   UNL     1     148.875 169.452 192.871  0.00  0.00    +0.038 HD
ATOM     54  H   UNL     1     148.807 171.217 190.331  0.00  0.00    +0.057 HD
ATOM     55  H   UNL     1     147.654 171.398 193.176  0.00  0.00    +0.059 HD
ATOM     56  H   UNL     1     148.115 173.669 191.405  0.00  0.00    +0.064 HD
ATOM     57  H   UNL     1     146.627 172.456 189.767  0.00  0.00    +0.032 HD
ATOM     58  H   UNL     1     146.091 174.057 190.298  0.00  0.00    +0.032 HD
ATOM     59  H   UNL     1     144.549 172.906 191.986  0.00  0.00    +0.060 HD
ENDROOT
BRANCH   1  60
ATOM     60  C   UNL     1     143.208 174.230 190.198  0.00  0.00    -0.057 C 
ATOM     61  H   UNL     1     143.321 174.808 189.276  0.00  0.00    +0.024 HD
ATOM     62  H   UNL     1     143.782 174.743 190.977  0.00  0.00    +0.024 HD
ATOM     63  H   UNL     1     142.152 174.266 190.479  0.00  0.00    +0.024 HD
ENDBRANCH   1  60
BRANCH  26  64
ATOM     64  C   UNL     1     150.715 169.714 191.814  0.00  0.00    -0.056 C 
ATOM     65  H   UNL     1     151.179 168.845 192.299  0.00  0.00    +0.024 HD
ATOM     66  H   UNL     1     151.049 170.612 192.339  0.00  0.00    +0.024 HD
ATOM     67  H   UNL     1     151.087 169.778 190.789  0.00  0.00    +0.024 HD
ENDBRANCH  26  64
BRANCH  18  68
ATOM     68  C   UNL     1     147.702 166.839 185.644  0.00  0.00    -0.043 C 
ATOM     69  H   UNL     1     146.990 167.007 184.834  0.00  0.00    +0.027 HD
ATOM     70  H   UNL     1     147.138 166.346 186.438  0.00  0.00    +0.027 HD
ATOM     71  H   UNL     1     148.054 167.794 186.037  0.00  0.00    +0.027 HD
ENDBRANCH  18  68
BRANCH   7  72
ATOM     72  C   UNL     1     143.714 168.935 186.558  0.00  0.00    -0.057 C 
ATOM     73  H   UNL     1     142.776 169.363 186.201  0.00  0.00    +0.023 HD
ATOM     74  H   UNL     1     143.561 167.864 186.716  0.00  0.00    +0.023 HD
ATOM     75  H   UNL     1     143.918 169.396 187.528  0.00  0.00    +0.023 HD
ENDBRANCH   7  72
BRANCH  25  76
ATOM     76  C   UNL     1     147.173 168.163 190.885  0.00  0.00    +0.020 C 
ATOM     77  H   UNL     1     146.702 168.805 191.638  0.00  0.00    +0.036 HD
BRANCH  76  78
ATOM     78  C   UNL     1     146.719 168.661 189.508  0.00  0.00    -0.057 C 
ATOM     79  H   UNL     1     147.557 168.896 188.847  0.00  0.00    +0.023 HD
ATOM     80  H   UNL     1     146.079 167.922 189.023  0.00  0.00    +0.023 HD
ATOM     81  H   UNL     1     146.114 169.567 189.577  0.00  0.00    +0.023 HD
ENDBRANCH  76  78
BRANCH  76  82
ATOM     82  C   UNL     1     146.743 166.689 191.216  0.00  0.00    +0.067 C 
ATOM     83  H   UNL     1     147.620 166.150 191.590  0.00  0.00    +0.060 HD
BRANCH  82  84
ATOM     84  C   UNL     1     146.177 165.766 190.093  0.00  0.00    -0.017 C 
ATOM     85  H   UNL     1     146.466 166.202 189.129  0.00  0.00    +0.032 HD
BRANCH  84  86
ATOM     86  C   UNL     1     146.892 164.403 190.154  0.00  0.00    -0.060 C 
ATOM     87  H   UNL     1     147.848 164.499 190.679  0.00  0.00    +0.023 HD
ATOM     88  H   UNL     1     147.111 164.025 189.148  0.00  0.00    +0.023 HD
ATOM     89  H   UNL     1     146.292 163.646 190.675  0.00  0.00    +0.023 HD
ENDBRANCH  84  86
BRANCH  84  90
ATOM     90  C   UNL     1     144.651 165.522 190.028  0.00  0.00    -0.041 C 
ATOM     91  H   UNL     1     144.286 165.375 191.054  0.00  0.00    +0.027 HD
ATOM     92  H   UNL     1     144.456 164.564 189.542  0.00  0.00    +0.027 HD
BRANCH  90  93
ATOM     93  C   UNL     1     143.797 166.594 189.355  0.00  0.00    +0.007 C 
ATOM     94  H   UNL     1     144.197 166.878 188.379  0.00  0.00    +0.034 HD
ATOM     95  H   UNL     1     143.763 167.499 189.975  0.00  0.00    +0.034 HD
BRANCH  93  96
ATOM     96  C   UNL     1     142.356 166.138 189.160  0.00  0.00    +0.139 C 
ATOM     97  O   UNL     1     141.642 165.932 190.147  0.00  0.00    -0.297 OA
BRANCH  96  98
ATOM     98  C   UNL     1     141.847 165.918 187.729  0.00  0.00    +0.041 C 
ATOM     99  H   UNL     1     142.679 166.203 187.083  0.00  0.00    +0.040 HD
BRANCH  98 100
ATOM    100  C   UNL     1     140.685 166.851 187.380  0.00  0.00    -0.053 C 
ATOM    101  H   UNL     1     139.925 166.879 188.167  0.00  0.00    +0.024 HD
ATOM    102  H   UNL     1     141.045 167.878 187.248  0.00  0.00    +0.024 HD
ATOM    103  H   UNL     1     140.210 166.555 186.437  0.00  0.00    +0.024 HD
ENDBRANCH  98 100
BRANCH  98 104
ATOM    104  C   UNL     1     141.544 164.428 187.436  0.00  0.00    +0.071 C 
ATOM    105  H   UNL     1     141.724 164.200 186.377  0.00  0.00    +0.061 HD
BRANCH 104 106
ATOM    106  C   UNL     1     142.324 163.393 188.284  0.00  0.00    -0.006 C 
ATOM    107  H   UNL     1     142.477 163.788 189.297  0.00  0.00    +0.033 HD
ATOM    108  H   UNL     1     141.676 162.519 188.427  0.00  0.00    +0.033 HD
BRANCH 106 109
ATOM    109  C   UNL     1     143.616 162.906 187.683  0.00  0.00    -0.067 C 
ATOM    110  C   UNL     1     144.503 162.168 188.363  0.00  0.00    -0.005 C 
ATOM    111  H   UNL     1     143.769 163.187 186.644  0.00  0.00    +0.059 HD
ATOM    112  H   UNL     1     144.268 161.880 189.386  0.00  0.00    +0.078 HD
BRANCH 110 113
ATOM    113  N   UNL     1     145.729 161.707 187.910  0.00  0.00    -0.284 N 
ATOM    114  C   UNL     1     146.590 160.876 188.625  0.00  0.00    +0.206 C 
ATOM    115  O   UNL     1     147.679 160.466 188.230  0.00  0.00    -0.279 OA
ATOM    116  H   UNL     1     146.216 160.582 189.613  0.00  0.00    +0.126 HD
BRANCH 113 117
ATOM    117  C   UNL     1     146.129 162.090 186.560  0.00  0.00    +0.007 C 
ATOM    118  H   UNL     1     147.184 161.819 186.425  0.00  0.00    +0.043 HD
ATOM    119  H   UNL     1     146.018 163.163 186.383  0.00  0.00    +0.043 HD
ATOM    120  H   UNL     1     145.515 161.551 185.829  0.00  0.00    +0.043 HD
ENDBRANCH 113 117
ENDBRANCH 110 113
ENDBRANCH 106 109
ENDBRANCH 104 106
BRANCH 104 121
ATOM    121  O   UNL     1     140.150 164.177 187.727  0.00  0.00    -0.379 OA
BRANCH 121 122
ATOM    122  C   UNL     1     139.795 162.798 187.646  0.00  0.00    +0.037 C 
ATOM    123  H   UNL     1     139.432 162.593 186.634  0.00  0.00    +0.052 HD
ATOM    124  H   UNL     1     140.659 162.162 187.840  0.00  0.00    +0.052 HD
ATOM    125  H   UNL     1     138.996 162.569 188.358  0.00  0.00    +0.052 HD
ENDBRANCH 121 122
ENDBRANCH 104 121
ENDBRANCH  98 104
ENDBRANCH  96  98
ENDBRANCH  93  96
ENDBRANCH  90  93
ENDBRANCH  84  90
ENDBRANCH  82  84
BRANCH  82 126
ATOM    126  O   UNL     1     145.783 166.732 192.290  0.00  0.00    -0.379 OA
BRANCH 126 127
ATOM    127  C   UNL     1     146.273 166.177 193.508  0.00  0.00    +0.037 C 
ATOM    128  H   UNL     1     145.928 165.144 193.621  0.00  0.00    +0.052 HD
ATOM    129  H   UNL     1     147.366 166.218 193.541  0.00  0.00    +0.052 HD
ATOM    130  H   UNL     1     145.876 166.767 194.341  0.00  0.00    +0.052 HD
ENDBRANCH 126 127
ENDBRANCH  82 126
ENDBRANCH  76  82
ENDBRANCH  25  76
BRANCH  31 131
ATOM    131  O   UNL     1     144.931 171.033 191.165  0.00  0.00    -0.379 OA
BRANCH 131 132
ATOM    132  C   UNL     1     143.648 170.412 191.149  0.00  0.00    +0.037 C 
ATOM    133  H   UNL     1     143.221 170.394 192.156  0.00  0.00    +0.052 HD
ATOM    134  H   UNL     1     142.991 170.991 190.495  0.00  0.00    +0.052 HD
ATOM    135  H   UNL     1     143.725 169.392 190.753  0.00  0.00    +0.052 HD
ENDBRANCH 131 132
ENDBRANCH  31 131
BRANCH  29 136
ATOM    136  O   UNL     1     146.680 173.616 192.919  0.00  0.00    -0.376 OA
BRANCH 136 137
ATOM    137  C   UNL     1     147.588 173.729 194.007  0.00  0.00    +0.037 C 
ATOM    138  H   UNL     1     147.471 172.882 194.693  0.00  0.00    +0.052 HD
ATOM    139  H   UNL     1     148.606 173.713 193.604  0.00  0.00    +0.052 HD
ATOM    140  H   UNL     1     147.439 174.673 194.537  0.00  0.00    +0.052 HD
ENDBRANCH 136 137
ENDBRANCH  29 136
BRANCH  16 141
ATOM    141  O   UNL     1     146.953 164.347 183.635  0.00  0.00    -0.379 OA
BRANCH 141 142
ATOM    142  C   UNL     1     146.728 163.127 182.943  0.00  0.00    +0.037 C 
ATOM    143  H   UNL     1     146.542 162.345 183.688  0.00  0.00    +0.052 HD
ATOM    144  H   UNL     1     147.597 162.836 182.344  0.00  0.00    +0.052 HD
ATOM    145  H   UNL     1     145.840 163.215 182.304  0.00  0.00    +0.052 HD
ENDBRANCH 141 142
ENDBRANCH  16 141
BRANCH   6 146
ATOM    146  O   UNL     1     146.674 170.750 185.100  0.00  0.00    -0.379 OA
BRANCH 146 147
ATOM    147  C   UNL     1     147.802 170.172 185.751  0.00  0.00    +0.037 C 
ATOM    148  H   UNL     1     148.424 169.641 185.023  0.00  0.00    +0.052 HD
ATOM    149  H   UNL     1     147.491 169.480 186.542  0.00  0.00    +0.052 HD
ATOM    150  H   UNL     1     148.394 170.974 186.202  0.00  0.00    +0.052 HD
ENDBRANCH 146 147
ENDBRANCH   6 146
BRANCH   4 151
ATOM    151  O   UNL     1     146.184 173.561 186.013  0.00  0.00    -0.376 OA
BRANCH 151 152
ATOM    152  C   UNL     1     146.323 174.897 185.541  0.00  0.00    +0.037 C 
ATOM    153  H   UNL     1     146.621 175.564 186.355  0.00  0.00    +0.052 HD
ATOM    154  H   UNL     1     147.108 174.908 184.786  0.00  0.00    +0.052 HD
ATOM    155  H   UNL     1     145.393 175.251 185.088  0.00  0.00    +0.052 HD
ENDBRANCH 151 152
ENDBRANCH   4 151
TORSDOF 33
ENDMDL
