MODEL 1
REMARK VINA RESULT:      -4.9      0.000      0.000
REMARK  Name = Reidispongiolide A_conf1
REMARK  33 active torsions:
REMARK  status: ('A' for Active; 'I' for Inactive)
REMARK    1  A    between atoms: C_1  and  C_2
REMARK    2  A    between atoms: C_5  and  O_67
REMARK    3  A    between atoms: C_7  and  O_65
REMARK    4  A    between atoms: C_8  and  C_64
REMARK    5  A    between atoms: C_17  and  O_62
REMARK    6  A    between atoms: C_19  and  C_61
REMARK    7  A    between atoms: C_26  and  C_38
REMARK    8  A    between atoms: C_27  and  C_37
REMARK    9  A    between atoms: C_30  and  O_35
REMARK   10  A    between atoms: C_32  and  O_33
REMARK   11  A    between atoms: O_33  and  C_34
REMARK   12  A    between atoms: O_35  and  C_36
REMARK   13  A    between atoms: C_38  and  C_39
REMARK   14  A    between atoms: C_38  and  C_40
REMARK   15  A    between atoms: C_40  and  C_41
REMARK   16  A    between atoms: C_40  and  O_59
REMARK   17  A    between atoms: C_41  and  C_42
REMARK   18  A    between atoms: C_41  and  C_43
REMARK   19  A    between atoms: C_43  and  C_44
REMARK   20  A    between atoms: C_44  and  C_45
REMARK   21  A    between atoms: C_45  and  C_47
REMARK   22  A    between atoms: C_47  and  C_48
REMARK   23  A    between atoms: C_47  and  C_49
REMARK   24  A    between atoms: C_49  and  C_50
REMARK   25  A    between atoms: C_49  and  O_57
REMARK   26  A    between atoms: C_50  and  C_51
REMARK   27  A    between atoms: C_52  and  N_53
REMARK   28  A    between atoms: N_53  and  C_54
REMARK   29  A    between atoms: O_57  and  C_58
REMARK   30  A    between atoms: O_59  and  C_60
REMARK   31  A    between atoms: O_62  and  C_63
REMARK   32  A    between atoms: O_65  and  C_66
REMARK   33  A    between atoms: O_67  and  C_68
REMARK                            x       y       z     vdW  Elec       q    Type
REMARK                         _______ _______ _______ _____ _____    ______ ____
ROOT
ATOM      1  C   UNL     1     142.499 169.358 188.998  0.00  0.00    +0.001 C 
ATOM      2  C   UNL     1     142.915 168.624 190.260  0.00  0.00    -0.080 C 
ATOM      3  C   UNL     1     143.847 167.659 190.300  0.00  0.00    -0.059 C 
ATOM      4  C   UNL     1     144.217 166.898 191.544  0.00  0.00    +0.079 C 
ATOM      5  C   UNL     1     145.608 166.240 191.484  0.00  0.00    +0.004 C 
ATOM      6  C   UNL     1     146.789 167.231 191.422  0.00  0.00    +0.067 C 
ATOM      7  C   UNL     1     147.912 166.918 192.464  0.00  0.00    +0.020 C 
ATOM      8  C   UNL     1     148.448 165.451 192.448  0.00  0.00    +0.112 C 
ATOM      9  C   UNL     1     149.297 165.038 191.237  0.00  0.00    +0.006 C 
ATOM     10  C   UNL     1     150.729 165.486 191.368  0.00  0.00    -0.057 C 
ATOM     11  C   UNL     1     151.231 165.772 192.578  0.00  0.00    +0.022 C 
ATOM     12  C   UNL     1     150.461 165.574 193.816  0.00  0.00    +0.332 C 
ATOM     13  O   UNL     1     150.987 165.718 194.912  0.00  0.00    -0.246 OA
ATOM     14  O   UNL     1     149.173 165.181 193.675  0.00  0.00    -0.458 OA
ATOM     15  C   UNL     1     151.574 165.573 190.112  0.00  0.00    -0.004 C 
ATOM     16  C   UNL     1     151.788 164.205 189.415  0.00  0.00    +0.066 C 
ATOM     17  C   UNL     1     152.448 164.366 188.019  0.00  0.00    -0.005 C 
ATOM     18  C   UNL     1     151.670 165.066 186.907  0.00  0.00    -0.070 C 
ATOM     19  C   UNL     1     150.351 165.313 186.999  0.00  0.00    -0.062 C 
ATOM     20  C   UNL     1     149.505 166.078 186.125  0.00  0.00    -0.055 C 
ATOM     21  C   UNL     1     149.183 165.799 184.851  0.00  0.00    +0.023 C 
ATOM     22  C   UNL     1     148.096 166.534 184.158  0.00  0.00    +0.332 C 
ATOM     23  O   UNL     1     147.568 166.137 183.133  0.00  0.00    -0.246 OA
ATOM     24  O   UNL     1     147.724 167.612 184.882  0.00  0.00    -0.457 OA
ATOM     25  C   UNL     1     146.410 168.202 184.666  0.00  0.00    +0.114 C 
ATOM     26  C   UNL     1     145.373 167.249 185.363  0.00  0.00    +0.012 C 
ATOM     27  C   UNL     1     143.915 167.613 185.153  0.00  0.00    -0.079 C 
ATOM     28  C   UNL     1     142.947 167.578 186.088  0.00  0.00    -0.059 C 
ATOM     29  C   UNL     1     141.488 167.936 185.936  0.00  0.00    +0.079 C 
ATOM     30  C   UNL     1     141.045 169.066 186.894  0.00  0.00    +0.004 C 
ATOM     31  C   UNL     1     141.211 168.714 188.391  0.00  0.00    +0.067 C 
ATOM     32  H   UNL     1     143.315 169.269 188.273  0.00  0.00    +0.037 HD
ATOM     33  H   UNL     1     142.372 168.885 191.169  0.00  0.00    +0.057 HD
ATOM     34  H   UNL     1     144.352 167.355 189.389  0.00  0.00    +0.059 HD
ATOM     35  H   UNL     1     144.181 167.561 192.421  0.00  0.00    +0.064 HD
ATOM     36  H   UNL     1     145.647 165.544 190.636  0.00  0.00    +0.032 HD
ATOM     37  H   UNL     1     145.670 165.608 192.377  0.00  0.00    +0.032 HD
ATOM     38  H   UNL     1     146.413 168.245 191.616  0.00  0.00    +0.060 HD
ATOM     39  H   UNL     1     148.767 167.575 192.263  0.00  0.00    +0.036 HD
ATOM     40  H   UNL     1     147.596 164.764 192.483  0.00  0.00    +0.074 HD
ATOM     41  H   UNL     1     148.861 165.400 190.305  0.00  0.00    +0.035 HD
ATOM     42  H   UNL     1     149.304 163.940 191.173  0.00  0.00    +0.035 HD
ATOM     43  H   UNL     1     152.259 166.084 192.721  0.00  0.00    +0.069 HD
ATOM     44  H   UNL     1     151.090 166.293 189.442  0.00  0.00    +0.034 HD
ATOM     45  H   UNL     1     152.555 165.998 190.361  0.00  0.00    +0.034 HD
ATOM     46  H   UNL     1     150.832 163.676 189.318  0.00  0.00    +0.060 HD
ATOM     47  H   UNL     1     153.399 164.900 188.172  0.00  0.00    +0.034 HD
ATOM     48  H   UNL     1     152.736 163.374 187.645  0.00  0.00    +0.034 HD
ATOM     49  H   UNL     1     149.803 165.002 187.890  0.00  0.00    +0.062 HD
ATOM     50  H   UNL     1     149.016 166.898 186.647  0.00  0.00    +0.062 HD
ATOM     51  H   UNL     1     149.593 164.951 184.318  0.00  0.00    +0.069 HD
ATOM     52  H   UNL     1     146.218 168.241 183.588  0.00  0.00    +0.074 HD
ATOM     53  H   UNL     1     145.487 166.270 184.871  0.00  0.00    +0.038 HD
ATOM     54  H   UNL     1     143.641 167.895 184.138  0.00  0.00    +0.057 HD
ATOM     55  H   UNL     1     143.196 167.222 187.084  0.00  0.00    +0.059 HD
ATOM     56  H   UNL     1     140.911 167.027 186.159  0.00  0.00    +0.064 HD
ATOM     57  H   UNL     1     141.597 169.982 186.646  0.00  0.00    +0.032 HD
ATOM     58  H   UNL     1     140.001 169.319 186.674  0.00  0.00    +0.032 HD
ATOM     59  H   UNL     1     141.263 167.622 188.512  0.00  0.00    +0.060 HD
ENDROOT
BRANCH   1  60
ATOM     60  C   UNL     1     142.329 170.849 189.320  0.00  0.00    -0.057 C 
ATOM     61  H   UNL     1     141.529 171.022 190.048  0.00  0.00    +0.024 HD
ATOM     62  H   UNL     1     143.251 171.258 189.745  0.00  0.00    +0.024 HD
ATOM     63  H   UNL     1     142.092 171.426 188.421  0.00  0.00    +0.024 HD
ENDBRANCH   1  60
BRANCH  26  64
ATOM     64  C   UNL     1     145.740 166.995 186.837  0.00  0.00    -0.056 C 
ATOM     65  H   UNL     1     146.348 167.799 187.256  0.00  0.00    +0.024 HD
ATOM     66  H   UNL     1     144.847 166.893 187.464  0.00  0.00    +0.024 HD
ATOM     67  H   UNL     1     146.344 166.087 186.945  0.00  0.00    +0.024 HD
ENDBRANCH  26  64
BRANCH  18  68
ATOM     68  C   UNL     1     152.531 165.479 185.742  0.00  0.00    -0.043 C 
ATOM     69  H   UNL     1     152.451 166.560 185.584  0.00  0.00    +0.027 HD
ATOM     70  H   UNL     1     152.196 164.976 184.827  0.00  0.00    +0.027 HD
ATOM     71  H   UNL     1     153.589 165.243 185.876  0.00  0.00    +0.027 HD
ENDBRANCH  18  68
BRANCH   7  72
ATOM     72  C   UNL     1     147.399 167.314 193.862  0.00  0.00    -0.057 C 
ATOM     73  H   UNL     1     146.578 168.034 193.781  0.00  0.00    +0.023 HD
ATOM     74  H   UNL     1     147.037 166.446 194.421  0.00  0.00    +0.023 HD
ATOM     75  H   UNL     1     148.183 167.795 194.456  0.00  0.00    +0.023 HD
ENDBRANCH   7  72
BRANCH  25  76
ATOM     76  C   UNL     1     146.532 169.656 185.221  0.00  0.00    +0.020 C 
ATOM     77  H   UNL     1     145.908 169.710 186.124  0.00  0.00    +0.036 HD
BRANCH  76  78
ATOM     78  C   UNL     1     147.957 169.906 185.755  0.00  0.00    -0.057 C 
ATOM     79  H   UNL     1     148.702 169.634 185.000  0.00  0.00    +0.023 HD
ATOM     80  H   UNL     1     148.183 169.308 186.641  0.00  0.00    +0.023 HD
ATOM     81  H   UNL     1     148.119 170.961 185.993  0.00  0.00    +0.023 HD
ENDBRANCH  76  78
BRANCH  76  82
ATOM     82  C   UNL     1     146.027 170.790 184.287  0.00  0.00    +0.067 C 
ATOM     83  H   UNL     1     146.764 171.597 184.343  0.00  0.00    +0.060 HD
BRANCH  82  84
ATOM     84  C   UNL     1     144.624 171.413 184.577  0.00  0.00    -0.017 C 
ATOM     85  H   UNL     1     144.671 172.483 184.353  0.00  0.00    +0.032 HD
BRANCH  84  86
ATOM     86  C   UNL     1     143.624 170.786 183.587  0.00  0.00    -0.060 C 
ATOM     87  H   UNL     1     142.990 170.043 184.079  0.00  0.00    +0.023 HD
ATOM     88  H   UNL     1     142.971 171.541 183.142  0.00  0.00    +0.023 HD
ATOM     89  H   UNL     1     144.142 170.256 182.785  0.00  0.00    +0.023 HD
ENDBRANCH  84  86
BRANCH  84  90
ATOM     90  C   UNL     1     144.145 171.234 186.042  0.00  0.00    -0.041 C 
ATOM     91  H   UNL     1     144.701 170.414 186.505  0.00  0.00    +0.027 HD
ATOM     92  H   UNL     1     143.092 170.929 186.031  0.00  0.00    +0.027 HD
BRANCH  90  93
ATOM     93  C   UNL     1     144.238 172.448 186.970  0.00  0.00    +0.007 C 
ATOM     94  H   UNL     1     143.606 172.237 187.846  0.00  0.00    +0.034 HD
ATOM     95  H   UNL     1     143.829 173.371 186.549  0.00  0.00    +0.034 HD
BRANCH  93  96
ATOM     96  C   UNL     1     145.625 172.714 187.527  0.00  0.00    +0.139 C 
ATOM     97  O   UNL     1     146.415 173.411 186.884  0.00  0.00    -0.297 OA
BRANCH  96  98
ATOM     98  C   UNL     1     146.003 172.073 188.860  0.00  0.00    +0.041 C 
ATOM     99  H   UNL     1     147.000 172.432 189.133  0.00  0.00    +0.040 HD
BRANCH  98 100
ATOM    100  C   UNL     1     146.090 170.560 188.665  0.00  0.00    -0.053 C 
ATOM    101  H   UNL     1     146.052 170.023 189.617  0.00  0.00    +0.024 HD
ATOM    102  H   UNL     1     147.021 170.292 188.155  0.00  0.00    +0.024 HD
ATOM    103  H   UNL     1     145.257 170.197 188.057  0.00  0.00    +0.024 HD
ENDBRANCH  98 100
BRANCH  98 104
ATOM    104  C   UNL     1     145.033 172.461 190.006  0.00  0.00    +0.071 C 
ATOM    105  H   UNL     1     144.045 172.059 189.734  0.00  0.00    +0.061 HD
BRANCH 104 106
ATOM    106  C   UNL     1     145.443 171.878 191.381  0.00  0.00    -0.006 C 
ATOM    107  H   UNL     1     144.777 172.251 192.169  0.00  0.00    +0.033 HD
ATOM    108  H   UNL     1     145.284 170.792 191.380  0.00  0.00    +0.033 HD
BRANCH 106 109
ATOM    109  C   UNL     1     146.871 172.186 191.758  0.00  0.00    -0.067 C 
ATOM    110  C   UNL     1     147.781 171.235 192.014  0.00  0.00    -0.005 C 
ATOM    111  H   UNL     1     147.124 173.238 191.817  0.00  0.00    +0.059 HD
ATOM    112  H   UNL     1     147.471 170.190 191.962  0.00  0.00    +0.078 HD
BRANCH 110 113
ATOM    113  N   UNL     1     149.118 171.413 192.336  0.00  0.00    -0.284 N 
ATOM    114  C   UNL     1     150.159 170.571 191.954  0.00  0.00    +0.206 C 
ATOM    115  O   UNL     1     151.339 170.691 192.266  0.00  0.00    -0.279 OA
ATOM    116  H   UNL     1     149.845 169.733 191.315  0.00  0.00    +0.126 HD
BRANCH 113 117
ATOM    117  C   UNL     1     149.457 172.566 193.162  0.00  0.00    +0.007 C 
ATOM    118  H   UNL     1     150.549 172.637 193.237  0.00  0.00    +0.043 HD
ATOM    119  H   UNL     1     149.061 173.477 192.698  0.00  0.00    +0.043 HD
ATOM    120  H   UNL     1     149.046 172.488 194.173  0.00  0.00    +0.043 HD
ENDBRANCH 113 117
ENDBRANCH 110 113
ENDBRANCH 106 109
ENDBRANCH 104 106
BRANCH 104 121
ATOM    121  O   UNL     1     144.930 173.887 190.084  0.00  0.00    -0.379 OA
BRANCH 121 122
ATOM    122  C   UNL     1     143.832 174.348 190.857  0.00  0.00    +0.037 C 
ATOM    123  H   UNL     1     143.930 174.052 191.905  0.00  0.00    +0.052 HD
ATOM    124  H   UNL     1     142.892 173.971 190.446  0.00  0.00    +0.052 HD
ATOM    125  H   UNL     1     143.815 175.440 190.809  0.00  0.00    +0.052 HD
ENDBRANCH 121 122
ENDBRANCH 104 121
ENDBRANCH  98 104
ENDBRANCH  96  98
ENDBRANCH  93  96
ENDBRANCH  90  93
ENDBRANCH  84  90
ENDBRANCH  82  84
BRANCH  82 126
ATOM    126  O   UNL     1     146.020 170.309 182.928  0.00  0.00    -0.379 OA
BRANCH 126 127
ATOM    127  C   UNL     1     146.832 171.077 182.053  0.00  0.00    +0.037 C 
ATOM    128  H   UNL     1     146.654 172.142 182.227  0.00  0.00    +0.052 HD
ATOM    129  H   UNL     1     147.893 170.841 182.188  0.00  0.00    +0.052 HD
ATOM    130  H   UNL     1     146.547 170.841 181.023  0.00  0.00    +0.052 HD
ENDBRANCH 126 127
ENDBRANCH  82 126
ENDBRANCH  76  82
ENDBRANCH  25  76
BRANCH  31 131
ATOM    131  O   UNL     1     140.070 169.191 189.131  0.00  0.00    -0.379 OA
BRANCH 131 132
ATOM    132  C   UNL     1     139.066 169.762 188.300  0.00  0.00    +0.037 C 
ATOM    133  H   UNL     1     138.716 169.027 187.567  0.00  0.00    +0.052 HD
ATOM    134  H   UNL     1     139.437 170.654 187.789  0.00  0.00    +0.052 HD
ATOM    135  H   UNL     1     138.224 170.051 188.933  0.00  0.00    +0.052 HD
ENDBRANCH 131 132
ENDBRANCH  31 131
BRANCH  29 136
ATOM    136  O   UNL     1     141.246 168.341 184.584  0.00  0.00    -0.376 OA
BRANCH 136 137
ATOM    137  C   UNL     1     140.246 169.350 184.489  0.00  0.00    +0.037 C 
ATOM    138  H   UNL     1     139.244 168.910 184.520  0.00  0.00    +0.052 HD
ATOM    139  H   UNL     1     140.361 170.027 185.339  0.00  0.00    +0.052 HD
ATOM    140  H   UNL     1     140.375 169.932 183.569  0.00  0.00    +0.052 HD
ENDBRANCH 136 137
ENDBRANCH  29 136
BRANCH  16 141
ATOM    141  O   UNL     1     152.671 163.435 190.255  0.00  0.00    -0.379 OA
BRANCH 141 142
ATOM    142  C   UNL     1     152.124 162.176 190.628  0.00  0.00    +0.037 C 
ATOM    143  H   UNL     1     151.372 162.345 191.402  0.00  0.00    +0.052 HD
ATOM    144  H   UNL     1     151.640 161.712 189.764  0.00  0.00    +0.052 HD
ATOM    145  H   UNL     1     152.894 161.509 191.029  0.00  0.00    +0.052 HD
ENDBRANCH 141 142
ENDBRANCH  16 141
BRANCH   6 146
ATOM    146  O   UNL     1     147.315 167.192 190.086  0.00  0.00    -0.379 OA
BRANCH 146 147
ATOM    147  C   UNL     1     148.363 168.129 189.864  0.00  0.00    +0.037 C 
ATOM    148  H   UNL     1     148.549 168.656 190.802  0.00  0.00    +0.052 HD
ATOM    149  H   UNL     1     149.281 167.609 189.571  0.00  0.00    +0.052 HD
ATOM    150  H   UNL     1     148.086 168.864 189.106  0.00  0.00    +0.052 HD
ENDBRANCH 146 147
ENDBRANCH   6 146
BRANCH   4 151
ATOM    151  O   UNL     1     143.274 165.822 191.670  0.00  0.00    -0.376 OA
BRANCH 151 152
ATOM    152  C   UNL     1     142.176 166.151 192.511  0.00  0.00    +0.037 C 
ATOM    153  H   UNL     1     141.321 165.535 192.214  0.00  0.00    +0.052 HD
ATOM    154  H   UNL     1     141.899 167.204 192.400  0.00  0.00    +0.052 HD
ATOM    155  H   UNL     1     142.415 165.931 193.555  0.00  0.00    +0.052 HD
ENDBRANCH 151 152
ENDBRANCH   4 151
TORSDOF 33
ENDMDL
MODEL 2
REMARK VINA RESULT:      -4.8      1.405      2.502
REMARK  Name = Reidispongiolide A_conf1
REMARK  33 active torsions:
REMARK  status: ('A' for Active; 'I' for Inactive)
REMARK    1  A    between atoms: C_1  and  C_2
REMARK    2  A    between atoms: C_5  and  O_67
REMARK    3  A    between atoms: C_7  and  O_65
REMARK    4  A    between atoms: C_8  and  C_64
REMARK    5  A    between atoms: C_17  and  O_62
REMARK    6  A    between atoms: C_19  and  C_61
REMARK    7  A    between atoms: C_26  and  C_38
REMARK    8  A    between atoms: C_27  and  C_37
REMARK    9  A    between atoms: C_30  and  O_35
REMARK   10  A    between atoms: C_32  and  O_33
REMARK   11  A    between atoms: O_33  and  C_34
REMARK   12  A    between atoms: O_35  and  C_36
REMARK   13  A    between atoms: C_38  and  C_39
REMARK   14  A    between atoms: C_38  and  C_40
REMARK   15  A    between atoms: C_40  and  C_41
REMARK   16  A    between atoms: C_40  and  O_59
REMARK   17  A    between atoms: C_41  and  C_42
REMARK   18  A    between atoms: C_41  and  C_43
REMARK   19  A    between atoms: C_43  and  C_44
REMARK   20  A    between atoms: C_44  and  C_45
REMARK   21  A    between atoms: C_45  and  C_47
REMARK   22  A    between atoms: C_47  and  C_48
REMARK   23  A    between atoms: C_47  and  C_49
REMARK   24  A    between atoms: C_49  and  C_50
REMARK   25  A    between atoms: C_49  and  O_57
REMARK   26  A    between atoms: C_50  and  C_51
REMARK   27  A    between atoms: C_52  and  N_53
REMARK   28  A    between atoms: N_53  and  C_54
REMARK   29  A    between atoms: O_57  and  C_58
REMARK   30  A    between atoms: O_59  and  C_60
REMARK   31  A    between atoms: O_62  and  C_63
REMARK   32  A    between atoms: O_65  and  C_66
REMARK   33  A    between atoms: O_67  and  C_68
REMARK                            x       y       z     vdW  Elec       q    Type
REMARK                         _______ _______ _______ _____ _____    ______ ____
ROOT
ATOM      1  C   UNL     1     142.338 169.674 189.464  0.00  0.00    +0.001 C 
ATOM      2  C   UNL     1     142.781 168.850 190.660  0.00  0.00    -0.080 C 
ATOM      3  C   UNL     1     143.655 167.831 190.594  0.00  0.00    -0.059 C 
ATOM      4  C   UNL     1     144.050 166.984 191.773  0.00  0.00    +0.079 C 
ATOM      5  C   UNL     1     145.392 166.252 191.594  0.00  0.00    +0.004 C 
ATOM      6  C   UNL     1     146.625 167.175 191.510  0.00  0.00    +0.067 C 
ATOM      7  C   UNL     1     147.786 166.743 192.464  0.00  0.00    +0.020 C 
ATOM      8  C   UNL     1     148.230 165.250 192.341  0.00  0.00    +0.112 C 
ATOM      9  C   UNL     1     148.981 164.856 191.061  0.00  0.00    +0.006 C 
ATOM     10  C   UNL     1     150.443 165.212 191.126  0.00  0.00    -0.057 C 
ATOM     11  C   UNL     1     151.030 165.403 192.316  0.00  0.00    +0.022 C 
ATOM     12  C   UNL     1     150.324 165.183 193.588  0.00  0.00    +0.332 C 
ATOM     13  O   UNL     1     150.920 165.237 194.655  0.00  0.00    -0.246 OA
ATOM     14  O   UNL     1     149.008 164.872 193.505  0.00  0.00    -0.458 OA
ATOM     15  C   UNL     1     151.217 165.319 189.827  0.00  0.00    -0.004 C 
ATOM     16  C   UNL     1     151.306 163.981 189.049  0.00  0.00    +0.066 C 
ATOM     17  C   UNL     1     151.893 164.179 187.626  0.00  0.00    -0.005 C 
ATOM     18  C   UNL     1     151.095 164.982 186.601  0.00  0.00    -0.070 C 
ATOM     19  C   UNL     1     149.802 165.299 186.786  0.00  0.00    -0.062 C 
ATOM     20  C   UNL     1     148.954 166.157 186.005  0.00  0.00    -0.055 C 
ATOM     21  C   UNL     1     148.542 165.968 184.741  0.00  0.00    +0.023 C 
ATOM     22  C   UNL     1     147.462 166.800 184.153  0.00  0.00    +0.332 C 
ATOM     23  O   UNL     1     146.853 166.490 183.144  0.00  0.00    -0.246 OA
ATOM     24  O   UNL     1     147.200 167.857 184.953  0.00  0.00    -0.457 OA
ATOM     25  C   UNL     1     145.913 168.532 184.849  0.00  0.00    +0.114 C 
ATOM     26  C   UNL     1     144.863 167.603 185.559  0.00  0.00    +0.012 C 
ATOM     27  C   UNL     1     143.420 168.061 185.456  0.00  0.00    -0.079 C 
ATOM     28  C   UNL     1     142.507 168.031 186.446  0.00  0.00    -0.059 C 
ATOM     29  C   UNL     1     141.067 168.480 186.403  0.00  0.00    +0.079 C 
ATOM     30  C   UNL     1     140.749 169.580 187.441  0.00  0.00    +0.004 C 
ATOM     31  C   UNL     1     140.981 169.138 188.906  0.00  0.00    +0.067 C 
ATOM     32  H   UNL     1     143.104 169.578 188.688  0.00  0.00    +0.037 HD
ATOM     33  H   UNL     1     142.310 169.091 191.612  0.00  0.00    +0.057 HD
ATOM     34  H   UNL     1     144.086 167.550 189.639  0.00  0.00    +0.059 HD
ATOM     35  H   UNL     1     144.104 167.600 192.683  0.00  0.00    +0.064 HD
ATOM     36  H   UNL     1     145.339 165.602 190.711  0.00  0.00    +0.032 HD
ATOM     37  H   UNL     1     145.467 165.570 192.448  0.00  0.00    +0.032 HD
ATOM     38  H   UNL     1     146.323 168.197 191.778  0.00  0.00    +0.060 HD
ATOM     39  H   UNL     1     148.666 167.359 192.244  0.00  0.00    +0.036 HD
ATOM     40  H   UNL     1     147.342 164.612 192.393  0.00  0.00    +0.074 HD
ATOM     41  H   UNL     1     148.514 165.292 190.177  0.00  0.00    +0.035 HD
ATOM     42  H   UNL     1     148.918 163.764 190.940  0.00  0.00    +0.035 HD
ATOM     43  H   UNL     1     152.083 165.647 192.412  0.00  0.00    +0.069 HD
ATOM     44  H   UNL     1     150.739 166.101 189.226  0.00  0.00    +0.034 HD
ATOM     45  H   UNL     1     152.235 165.673 190.037  0.00  0.00    +0.034 HD
ATOM     46  H   UNL     1     150.317 163.514 188.985  0.00  0.00    +0.060 HD
ATOM     47  H   UNL     1     152.882 164.648 187.747  0.00  0.00    +0.034 HD
ATOM     48  H   UNL     1     152.098 163.194 187.185  0.00  0.00    +0.034 HD
ATOM     49  H   UNL     1     149.288 164.972 187.692  0.00  0.00    +0.062 HD
ATOM     50  H   UNL     1     148.546 166.975 186.597  0.00  0.00    +0.062 HD
ATOM     51  H   UNL     1     148.868 165.127 184.141  0.00  0.00    +0.069 HD
ATOM     52  H   UNL     1     145.661 168.640 183.788  0.00  0.00    +0.074 HD
ATOM     53  H   UNL     1     144.889 166.648 185.011  0.00  0.00    +0.038 HD
ATOM     54  H   UNL     1     143.105 168.414 184.476  0.00  0.00    +0.057 HD
ATOM     55  H   UNL     1     142.792 167.608 187.405  0.00  0.00    +0.059 HD
ATOM     56  H   UNL     1     140.449 167.595 186.614  0.00  0.00    +0.064 HD
ATOM     57  H   UNL     1     141.340 170.475 187.208  0.00  0.00    +0.032 HD
ATOM     58  H   UNL     1     139.711 169.904 187.300  0.00  0.00    +0.032 HD
ATOM     59  H   UNL     1     140.974 168.040 188.968  0.00  0.00    +0.060 HD
ENDROOT
BRANCH   1  60
ATOM     60  C   UNL     1     142.278 171.152 189.872  0.00  0.00    -0.057 C 
ATOM     61  H   UNL     1     141.295 171.593 189.673  0.00  0.00    +0.024 HD
ATOM     62  H   UNL     1     142.476 171.264 190.942  0.00  0.00    +0.024 HD
ATOM     63  H   UNL     1     143.023 171.744 189.332  0.00  0.00    +0.024 HD
ENDBRANCH   1  60
BRANCH  26  64
ATOM     64  C   UNL     1     145.299 167.249 186.993  0.00  0.00    -0.056 C 
ATOM     65  H   UNL     1     144.575 167.582 187.739  0.00  0.00    +0.024 HD
ATOM     66  H   UNL     1     145.434 166.169 187.118  0.00  0.00    +0.024 HD
ATOM     67  H   UNL     1     146.238 167.749 187.255  0.00  0.00    +0.024 HD
ENDBRANCH  26  64
BRANCH  18  68
ATOM     68  C   UNL     1     151.911 165.407 185.407  0.00  0.00    -0.043 C 
ATOM     69  H   UNL     1     152.180 166.465 185.498  0.00  0.00    +0.027 HD
ATOM     70  H   UNL     1     151.328 165.282 184.487  0.00  0.00    +0.027 HD
ATOM     71  H   UNL     1     152.837 164.842 185.288  0.00  0.00    +0.027 HD
ENDBRANCH  18  68
BRANCH   7  72
ATOM     72  C   UNL     1     147.380 167.090 193.909  0.00  0.00    -0.057 C 
ATOM     73  H   UNL     1     147.252 166.179 194.503  0.00  0.00    +0.023 HD
ATOM     74  H   UNL     1     148.131 167.716 194.402  0.00  0.00    +0.023 HD
ATOM     75  H   UNL     1     146.425 167.624 193.941  0.00  0.00    +0.023 HD
ENDBRANCH   7  72
BRANCH  25  76
ATOM     76  C   UNL     1     146.155 169.944 185.467  0.00  0.00    +0.020 C 
ATOM     77  H   UNL     1     145.555 170.000 186.387  0.00  0.00    +0.036 HD
BRANCH  76  78
ATOM     78  C   UNL     1     147.606 170.062 185.979  0.00  0.00    -0.057 C 
ATOM     79  H   UNL     1     148.237 169.295 185.519  0.00  0.00    +0.023 HD
ATOM     80  H   UNL     1     147.681 169.916 187.059  0.00  0.00    +0.023 HD
ATOM     81  H   UNL     1     148.046 171.030 185.724  0.00  0.00    +0.023 HD
ENDBRANCH  76  78
BRANCH  76  82
ATOM     82  C   UNL     1     145.718 171.156 184.600  0.00  0.00    +0.067 C 
ATOM     83  H   UNL     1     146.522 171.897 184.664  0.00  0.00    +0.060 HD
BRANCH  82  84
ATOM     84  C   UNL     1     144.382 171.879 184.966  0.00  0.00    -0.017 C 
ATOM     85  H   UNL     1     144.512 172.951 184.786  0.00  0.00    +0.032 HD
BRANCH  84  86
ATOM     86  C   UNL     1     143.303 171.383 183.985  0.00  0.00    -0.060 C 
ATOM     87  H   UNL     1     142.327 171.821 184.212  0.00  0.00    +0.023 HD
ATOM     88  H   UNL     1     143.551 171.637 182.950  0.00  0.00    +0.023 HD
ATOM     89  H   UNL     1     143.171 170.302 184.056  0.00  0.00    +0.023 HD
ENDBRANCH  84  86
BRANCH  84  90
ATOM     90  C   UNL     1     143.935 171.673 186.437  0.00  0.00    -0.041 C 
ATOM     91  H   UNL     1     144.345 170.730 186.809  0.00  0.00    +0.027 HD
ATOM     92  H   UNL     1     142.843 171.569 186.460  0.00  0.00    +0.027 HD
BRANCH  90  93
ATOM     93  C   UNL     1     144.289 172.769 187.444  0.00  0.00    +0.007 C 
ATOM     94  H   UNL     1     143.866 172.469 188.415  0.00  0.00    +0.034 HD
ATOM     95  H   UNL     1     143.834 173.742 187.233  0.00  0.00    +0.034 HD
BRANCH  93  96
ATOM     96  C   UNL     1     145.777 172.948 187.689  0.00  0.00    +0.139 C 
ATOM     97  O   UNL     1     146.447 173.618 186.898  0.00  0.00    -0.297 OA
BRANCH  96  98
ATOM     98  C   UNL     1     146.398 172.253 188.898  0.00  0.00    +0.041 C 
ATOM     99  H   UNL     1     147.452 172.064 188.671  0.00  0.00    +0.040 HD
BRANCH  98 100
ATOM    100  C   UNL     1     145.713 170.901 189.089  0.00  0.00    -0.053 C 
ATOM    101  H   UNL     1     146.353 170.190 189.616  0.00  0.00    +0.024 HD
ATOM    102  H   UNL     1     145.442 170.469 188.119  0.00  0.00    +0.024 HD
ATOM    103  H   UNL     1     144.797 171.009 189.676  0.00  0.00    +0.024 HD
ENDBRANCH  98 100
BRANCH  98 104
ATOM    104  C   UNL     1     146.343 173.123 190.181  0.00  0.00    +0.071 C 
ATOM    105  H   UNL     1     145.975 174.114 189.876  0.00  0.00    +0.061 HD
BRANCH 104 106
ATOM    106  C   UNL     1     145.396 172.557 191.266  0.00  0.00    -0.006 C 
ATOM    107  H   UNL     1     144.653 171.887 190.815  0.00  0.00    +0.033 HD
ATOM    108  H   UNL     1     145.965 171.913 191.949  0.00  0.00    +0.033 HD
BRANCH 106 109
ATOM    109  C   UNL     1     144.678 173.627 192.051  0.00  0.00    -0.067 C 
ATOM    110  C   UNL     1     143.852 174.519 191.486  0.00  0.00    -0.005 C 
ATOM    111  H   UNL     1     144.874 173.637 193.117  0.00  0.00    +0.059 HD
ATOM    112  H   UNL     1     143.704 174.480 190.406  0.00  0.00    +0.078 HD
BRANCH 110 113
ATOM    113  N   UNL     1     143.124 175.515 192.121  0.00  0.00    -0.284 N 
ATOM    114  C   UNL     1     142.467 176.564 191.485  0.00  0.00    +0.206 C 
ATOM    115  O   UNL     1     141.856 177.475 192.035  0.00  0.00    -0.279 OA
ATOM    116  H   UNL     1     142.530 176.531 190.388  0.00  0.00    +0.126 HD
BRANCH 113 117
ATOM    117  C   UNL     1     143.064 175.470 193.578  0.00  0.00    +0.007 C 
ATOM    118  H   UNL     1     142.882 176.484 193.954  0.00  0.00    +0.043 HD
ATOM    119  H   UNL     1     142.246 174.810 193.890  0.00  0.00    +0.043 HD
ATOM    120  H   UNL     1     143.993 175.098 194.021  0.00  0.00    +0.043 HD
ENDBRANCH 113 117
ENDBRANCH 110 113
ENDBRANCH 106 109
ENDBRANCH 104 106
BRANCH 104 121
ATOM    121  O   UNL     1     147.664 173.280 190.710  0.00  0.00    -0.379 OA
BRANCH 121 122
ATOM    122  C   UNL     1     148.108 172.183 191.495  0.00  0.00    +0.037 C 
ATOM    123  H   UNL     1     148.571 171.410 190.876  0.00  0.00    +0.052 HD
ATOM    124  H   UNL     1     147.275 171.760 192.063  0.00  0.00    +0.052 HD
ATOM    125  H   UNL     1     148.856 172.550 192.203  0.00  0.00    +0.052 HD
ENDBRANCH 121 122
ENDBRANCH 104 121
ENDBRANCH  98 104
ENDBRANCH  96  98
ENDBRANCH  93  96
ENDBRANCH  90  93
ENDBRANCH  84  90
ENDBRANCH  82  84
BRANCH  82 126
ATOM    126  O   UNL     1     145.627 170.739 183.223  0.00  0.00    -0.379 OA
BRANCH 126 127
ATOM    127  C   UNL     1     146.698 171.210 182.419  0.00  0.00    +0.037 C 
ATOM    128  H   UNL     1     146.385 172.108 181.880  0.00  0.00    +0.052 HD
ATOM    129  H   UNL     1     147.586 171.418 183.024  0.00  0.00    +0.052 HD
ATOM    130  H   UNL     1     146.945 170.435 181.687  0.00  0.00    +0.052 HD
ENDBRANCH 126 127
ENDBRANCH  82 126
ENDBRANCH  76  82
ENDBRANCH  25  76
BRANCH  31 131
ATOM    131  O   UNL     1     139.915 169.639 189.737  0.00  0.00    -0.379 OA
BRANCH 131 132
ATOM    132  C   UNL     1     138.860 170.238 188.993  0.00  0.00    +0.037 C 
ATOM    133  H   UNL     1     138.459 169.526 188.264  0.00  0.00    +0.052 HD
ATOM    134  H   UNL     1     139.201 171.142 188.484  0.00  0.00    +0.052 HD
ATOM    135  H   UNL     1     138.065 170.510 189.689  0.00  0.00    +0.052 HD
ENDBRANCH 131 132
ENDBRANCH  31 131
BRANCH  29 136
ATOM    136  O   UNL     1     140.771 168.972 185.090  0.00  0.00    -0.376 OA
BRANCH 136 137
ATOM    137  C   UNL     1     139.959 170.140 185.116  0.00  0.00    +0.037 C 
ATOM    138  H   UNL     1     139.416 170.259 184.174  0.00  0.00    +0.052 HD
ATOM    139  H   UNL     1     139.235 170.035 185.929  0.00  0.00    +0.052 HD
ATOM    140  H   UNL     1     140.570 171.028 185.317  0.00  0.00    +0.052 HD
ENDBRANCH 136 137
ENDBRANCH  29 136
BRANCH  16 141
ATOM    141  O   UNL     1     152.188 163.117 189.794  0.00  0.00    -0.379 OA
BRANCH 141 142
ATOM    142  C   UNL     1     153.553 163.262 189.421  0.00  0.00    +0.037 C 
ATOM    143  H   UNL     1     153.832 162.404 188.805  0.00  0.00    +0.052 HD
ATOM    144  H   UNL     1     153.681 164.174 188.830  0.00  0.00    +0.052 HD
ATOM    145  H   UNL     1     154.207 163.290 190.299  0.00  0.00    +0.052 HD
ENDBRANCH 141 142
ENDBRANCH  16 141
BRANCH   6 146
ATOM    146  O   UNL     1     147.069 167.179 190.144  0.00  0.00    -0.379 OA
BRANCH 146 147
ATOM    147  C   UNL     1     148.036 168.185 189.868  0.00  0.00    +0.037 C 
ATOM    148  H   UNL     1     148.506 168.471 190.811  0.00  0.00    +0.052 HD
ATOM    149  H   UNL     1     148.811 167.795 189.199  0.00  0.00    +0.052 HD
ATOM    150  H   UNL     1     147.573 169.074 189.431  0.00  0.00    +0.052 HD
ENDBRANCH 146 147
ENDBRANCH   6 146
BRANCH   4 151
ATOM    151  O   UNL     1     143.052 165.959 191.901  0.00  0.00    -0.376 OA
BRANCH 151 152
ATOM    152  C   UNL     1     142.020 166.310 192.813  0.00  0.00    +0.037 C 
ATOM    153  H   UNL     1     142.394 166.156 193.830  0.00  0.00    +0.052 HD
ATOM    154  H   UNL     1     141.138 165.679 192.668  0.00  0.00    +0.052 HD
ATOM    155  H   UNL     1     141.752 167.365 192.700  0.00  0.00    +0.052 HD
ENDBRANCH 151 152
ENDBRANCH   4 151
TORSDOF 33
ENDMDL
MODEL 3
REMARK VINA RESULT:      -4.7      3.064      8.422
REMARK  Name = Reidispongiolide A_conf1
REMARK  33 active torsions:
REMARK  status: ('A' for Active; 'I' for Inactive)
REMARK    1  A    between atoms: C_1  and  C_2
REMARK    2  A    between atoms: C_5  and  O_67
REMARK    3  A    between atoms: C_7  and  O_65
REMARK    4  A    between atoms: C_8  and  C_64
REMARK    5  A    between atoms: C_17  and  O_62
REMARK    6  A    between atoms: C_19  and  C_61
REMARK    7  A    between atoms: C_26  and  C_38
REMARK    8  A    between atoms: C_27  and  C_37
REMARK    9  A    between atoms: C_30  and  O_35
REMARK   10  A    between atoms: C_32  and  O_33
REMARK   11  A    between atoms: O_33  and  C_34
REMARK   12  A    between atoms: O_35  and  C_36
REMARK   13  A    between atoms: C_38  and  C_39
REMARK   14  A    between atoms: C_38  and  C_40
REMARK   15  A    between atoms: C_40  and  C_41
REMARK   16  A    between atoms: C_40  and  O_59
REMARK   17  A    between atoms: C_41  and  C_42
REMARK   18  A    between atoms: C_41  and  C_43
REMARK   19  A    between atoms: C_43  and  C_44
REMARK   20  A    between atoms: C_44  and  C_45
REMARK   21  A    between atoms: C_45  and  C_47
REMARK   22  A    between atoms: C_47  and  C_48
REMARK   23  A    between atoms: C_47  and  C_49
REMARK   24  A    between atoms: C_49  and  C_50
REMARK   25  A    between atoms: C_49  and  O_57
REMARK   26  A    between atoms: C_50  and  C_51
REMARK   27  A    between atoms: C_52  and  N_53
REMARK   28  A    between atoms: N_53  and  C_54
REMARK   29  A    between atoms: O_57  and  C_58
REMARK   30  A    between atoms: O_59  and  C_60
REMARK   31  A    between atoms: O_62  and  C_63
REMARK   32  A    between atoms: O_65  and  C_66
REMARK   33  A    between atoms: O_67  and  C_68
REMARK                            x       y       z     vdW  Elec       q    Type
REMARK                         _______ _______ _______ _____ _____    ______ ____
ROOT
ATOM      1  C   UNL     1     144.538 163.415 186.966  0.00  0.00    +0.001 C 
ATOM      2  C   UNL     1     143.537 164.493 187.340  0.00  0.00    -0.080 C 
ATOM      3  C   UNL     1     143.736 165.408 188.302  0.00  0.00    -0.059 C 
ATOM      4  C   UNL     1     142.719 166.441 188.705  0.00  0.00    +0.079 C 
ATOM      5  C   UNL     1     143.320 167.663 189.424  0.00  0.00    +0.004 C 
ATOM      6  C   UNL     1     144.247 168.534 188.550  0.00  0.00    +0.067 C 
ATOM      7  C   UNL     1     143.905 170.059 188.617  0.00  0.00    +0.020 C 
ATOM      8  C   UNL     1     143.811 170.659 190.057  0.00  0.00    +0.112 C 
ATOM      9  C   UNL     1     145.128 170.803 190.832  0.00  0.00    +0.006 C 
ATOM     10  C   UNL     1     145.886 172.044 190.440  0.00  0.00    -0.057 C 
ATOM     11  C   UNL     1     145.241 173.063 189.854  0.00  0.00    +0.022 C 
ATOM     12  C   UNL     1     143.783 173.064 189.660  0.00  0.00    +0.332 C 
ATOM     13  O   UNL     1     143.205 174.059 189.244  0.00  0.00    -0.246 OA
ATOM     14  O   UNL     1     143.122 171.935 190.012  0.00  0.00    -0.458 OA
ATOM     15  C   UNL     1     147.369 172.110 190.748  0.00  0.00    -0.004 C 
ATOM     16  C   UNL     1     147.687 172.075 192.265  0.00  0.00    +0.066 C 
ATOM     17  C   UNL     1     149.207 171.905 192.532  0.00  0.00    -0.005 C 
ATOM     18  C   UNL     1     149.887 170.599 192.130  0.00  0.00    -0.070 C 
ATOM     19  C   UNL     1     149.190 169.497 191.801  0.00  0.00    -0.062 C 
ATOM     20  C   UNL     1     149.660 168.248 191.268  0.00  0.00    -0.055 C 
ATOM     21  C   UNL     1     150.453 167.348 191.872  0.00  0.00    +0.023 C 
ATOM     22  C   UNL     1     150.642 165.990 191.305  0.00  0.00    +0.332 C 
ATOM     23  O   UNL     1     151.095 165.055 191.944  0.00  0.00    -0.246 OA
ATOM     24  O   UNL     1     150.144 165.934 190.051  0.00  0.00    -0.457 OA
ATOM     25  C   UNL     1     149.789 164.642 189.478  0.00  0.00    +0.114 C 
ATOM     26  C   UNL     1     148.432 164.215 190.146  0.00  0.00    +0.012 C 
ATOM     27  C   UNL     1     147.939 162.828 189.781  0.00  0.00    -0.079 C 
ATOM     28  C   UNL     1     146.665 162.487 189.505  0.00  0.00    -0.059 C 
ATOM     29  C   UNL     1     146.122 161.129 189.130  0.00  0.00    +0.079 C 
ATOM     30  C   UNL     1     145.411 161.126 187.757  0.00  0.00    +0.004 C 
ATOM     31  C   UNL     1     144.189 162.074 187.687  0.00  0.00    +0.067 C 
ATOM     32  H   UNL     1     145.528 163.747 187.294  0.00  0.00    +0.037 HD
ATOM     33  H   UNL     1     142.585 164.471 186.810  0.00  0.00    +0.057 HD
ATOM     34  H   UNL     1     144.660 165.402 188.872  0.00  0.00    +0.059 HD
ATOM     35  H   UNL     1     142.163 166.792 187.823  0.00  0.00    +0.064 HD
ATOM     36  H   UNL     1     143.846 167.333 190.329  0.00  0.00    +0.032 HD
ATOM     37  H   UNL     1     142.462 168.240 189.784  0.00  0.00    +0.032 HD
ATOM     38  H   UNL     1     144.160 168.209 187.504  0.00  0.00    +0.060 HD
ATOM     39  H   UNL     1     144.687 170.616 188.087  0.00  0.00    +0.036 HD
ATOM     40  H   UNL     1     143.158 170.023 190.662  0.00  0.00    +0.074 HD
ATOM     41  H   UNL     1     145.753 169.916 190.722  0.00  0.00    +0.035 HD
ATOM     42  H   UNL     1     144.895 170.890 191.904  0.00  0.00    +0.035 HD
ATOM     43  H   UNL     1     145.743 173.981 189.567  0.00  0.00    +0.069 HD
ATOM     44  H   UNL     1     147.850 171.279 190.219  0.00  0.00    +0.034 HD
ATOM     45  H   UNL     1     147.790 173.030 190.321  0.00  0.00    +0.034 HD
ATOM     46  H   UNL     1     147.128 171.267 192.751  0.00  0.00    +0.060 HD
ATOM     47  H   UNL     1     149.719 172.738 192.027  0.00  0.00    +0.034 HD
ATOM     48  H   UNL     1     149.400 172.061 193.602  0.00  0.00    +0.034 HD
ATOM     49  H   UNL     1     148.099 169.520 191.823  0.00  0.00    +0.062 HD
ATOM     50  H   UNL     1     149.197 168.014 190.310  0.00  0.00    +0.062 HD
ATOM     51  H   UNL     1     150.876 167.511 192.856  0.00  0.00    +0.069 HD
ATOM     52  H   UNL     1     150.574 163.921 189.731  0.00  0.00    +0.074 HD
ATOM     53  H   UNL     1     148.633 164.162 191.227  0.00  0.00    +0.038 HD
ATOM     54  H   UNL     1     148.694 162.044 189.778  0.00  0.00    +0.057 HD
ATOM     55  H   UNL     1     145.893 163.247 189.582  0.00  0.00    +0.059 HD
ATOM     56  H   UNL     1     145.401 160.846 189.911  0.00  0.00    +0.064 HD
ATOM     57  H   UNL     1     146.140 161.374 186.975  0.00  0.00    +0.032 HD
ATOM     58  H   UNL     1     145.111 160.098 187.522  0.00  0.00    +0.032 HD
ATOM     59  H   UNL     1     143.831 162.293 188.704  0.00  0.00    +0.060 HD
ENDROOT
BRANCH   1  60
ATOM     60  C   UNL     1     144.579 163.281 185.438  0.00  0.00    -0.057 C 
ATOM     61  H   UNL     1     145.556 163.563 185.028  0.00  0.00    +0.024 HD
ATOM     62  H   UNL     1     144.385 162.248 185.136  0.00  0.00    +0.024 HD
ATOM     63  H   UNL     1     143.824 163.914 184.962  0.00  0.00    +0.024 HD
ENDBRANCH   1  60
BRANCH  26  64
ATOM     64  C   UNL     1     147.360 165.311 189.998  0.00  0.00    -0.056 C 
ATOM     65  H   UNL     1     147.791 166.279 189.735  0.00  0.00    +0.024 HD
ATOM     66  H   UNL     1     146.624 165.054 189.228  0.00  0.00    +0.024 HD
ATOM     67  H   UNL     1     146.829 165.477 190.942  0.00  0.00    +0.024 HD
ENDBRANCH  26  64
BRANCH  18  68
ATOM     68  C   UNL     1     151.391 170.691 192.102  0.00  0.00    -0.043 C 
ATOM     69  H   UNL     1     151.700 171.741 192.146  0.00  0.00    +0.027 HD
ATOM     70  H   UNL     1     151.779 170.260 191.172  0.00  0.00    +0.027 HD
ATOM     71  H   UNL     1     151.876 170.171 192.931  0.00  0.00    +0.027 HD
ENDBRANCH  18  68
BRANCH   7  72
ATOM     72  C   UNL     1     142.606 170.299 187.823  0.00  0.00    -0.057 C 
ATOM     73  H   UNL     1     141.918 170.931 188.393  0.00  0.00    +0.023 HD
ATOM     74  H   UNL     1     142.803 170.786 186.864  0.00  0.00    +0.023 HD
ATOM     75  H   UNL     1     142.079 169.361 187.622  0.00  0.00    +0.023 HD
ENDBRANCH   7  72
BRANCH  25  76
ATOM     76  C   UNL     1     149.785 164.880 187.936  0.00  0.00    +0.020 C 
ATOM     77  H   UNL     1     148.737 164.833 187.605  0.00  0.00    +0.036 HD
BRANCH  76  78
ATOM     78  C   UNL     1     150.195 166.333 187.617  0.00  0.00    -0.057 C 
ATOM     79  H   UNL     1     150.090 166.533 186.546  0.00  0.00    +0.023 HD
ATOM     80  H   UNL     1     151.238 166.537 187.868  0.00  0.00    +0.023 HD
ATOM     81  H   UNL     1     149.560 167.054 188.138  0.00  0.00    +0.023 HD
ENDBRANCH  76  78
BRANCH  76  82
ATOM     82  C   UNL     1     150.549 163.833 187.079  0.00  0.00    +0.067 C 
ATOM     83  H   UNL     1     151.476 164.312 186.749  0.00  0.00    +0.060 HD
BRANCH  82  84
ATOM     84  C   UNL     1     149.839 163.260 185.811  0.00  0.00    -0.017 C 
ATOM     85  H   UNL     1     150.464 162.462 185.399  0.00  0.00    +0.032 HD
BRANCH  84  86
ATOM     86  C   UNL     1     148.520 162.610 186.272  0.00  0.00    -0.060 C 
ATOM     87  H   UNL     1     147.800 162.545 185.452  0.00  0.00    +0.023 HD
ATOM     88  H   UNL     1     148.682 161.598 186.655  0.00  0.00    +0.023 HD
ATOM     89  H   UNL     1     148.038 163.204 187.050  0.00  0.00    +0.023 HD
ENDBRANCH  84  86
BRANCH  84  90
ATOM     90  C   UNL     1     149.583 164.313 184.701  0.00  0.00    -0.041 C 
ATOM     91  H   UNL     1     150.067 163.986 183.776  0.00  0.00    +0.027 HD
ATOM     92  H   UNL     1     150.068 165.253 184.990  0.00  0.00    +0.027 HD
BRANCH  90  93
ATOM     93  C   UNL     1     148.128 164.656 184.373  0.00  0.00    +0.007 C 
ATOM     94  H   UNL     1     147.536 164.471 185.283  0.00  0.00    +0.034 HD
ATOM     95  H   UNL     1     147.673 164.016 183.612  0.00  0.00    +0.034 HD
BRANCH  93  96
ATOM     96  C   UNL     1     147.885 166.113 184.021  0.00  0.00    +0.139 C 
ATOM     97  O   UNL     1     148.332 166.566 182.964  0.00  0.00    -0.297 OA
BRANCH  96  98
ATOM     98  C   UNL     1     147.119 166.978 185.019  0.00  0.00    +0.041 C 
ATOM     99  H   UNL     1     147.784 167.785 185.343  0.00  0.00    +0.040 HD
BRANCH  98 100
ATOM    100  C   UNL     1     146.785 166.129 186.244  0.00  0.00    -0.053 C 
ATOM    101  H   UNL     1     147.670 165.923 186.851  0.00  0.00    +0.024 HD
ATOM    102  H   UNL     1     146.344 165.174 185.939  0.00  0.00    +0.024 HD
ATOM    103  H   UNL     1     146.064 166.641 186.888  0.00  0.00    +0.024 HD
ENDBRANCH  98 100
BRANCH  98 104
ATOM    104  C   UNL     1     145.856 167.631 184.398  0.00  0.00    +0.071 C 
ATOM    105  H   UNL     1     146.005 167.634 183.308  0.00  0.00    +0.061 HD
BRANCH 104 106
ATOM    106  C   UNL     1     144.550 166.866 184.717  0.00  0.00    -0.006 C 
ATOM    107  H   UNL     1     144.241 166.259 183.857  0.00  0.00    +0.033 HD
ATOM    108  H   UNL     1     144.739 166.134 185.513  0.00  0.00    +0.033 HD
BRANCH 106 109
ATOM    109  C   UNL     1     143.409 167.770 185.115  0.00  0.00    -0.067 C 
ATOM    110  C   UNL     1     142.123 167.394 185.059  0.00  0.00    -0.005 C 
ATOM    111  H   UNL     1     143.692 168.760 185.451  0.00  0.00    +0.059 HD
ATOM    112  H   UNL     1     141.890 166.392 184.694  0.00  0.00    +0.078 HD
BRANCH 110 113
ATOM    113  N   UNL     1     141.011 168.134 185.431  0.00  0.00    -0.284 N 
ATOM    114  C   UNL     1     140.145 167.820 186.474  0.00  0.00    +0.206 C 
ATOM    115  O   UNL     1     139.134 168.441 186.787  0.00  0.00    -0.279 OA
ATOM    116  H   UNL     1     140.433 166.924 187.040  0.00  0.00    +0.126 HD
BRANCH 113 117
ATOM    117  C   UNL     1     140.713 169.328 184.647  0.00  0.00    +0.007 C 
ATOM    118  H   UNL     1     141.654 169.843 184.419  0.00  0.00    +0.043 HD
ATOM    119  H   UNL     1     140.218 169.037 183.713  0.00  0.00    +0.043 HD
ATOM    120  H   UNL     1     140.060 170.024 185.181  0.00  0.00    +0.043 HD
ENDBRANCH 113 117
ENDBRANCH 110 113
ENDBRANCH 106 109
ENDBRANCH 104 106
BRANCH 104 121
ATOM    121  O   UNL     1     145.754 168.990 184.839  0.00  0.00    -0.379 OA
BRANCH 121 122
ATOM    122  C   UNL     1     146.832 169.817 184.424  0.00  0.00    +0.037 C 
ATOM    123  H   UNL     1     147.793 169.315 184.556  0.00  0.00    +0.052 HD
ATOM    124  H   UNL     1     146.821 170.761 184.974  0.00  0.00    +0.052 HD
ATOM    125  H   UNL     1     146.702 170.037 183.360  0.00  0.00    +0.052 HD
ENDBRANCH 121 122
ENDBRANCH 104 121
ENDBRANCH  98 104
ENDBRANCH  96  98
ENDBRANCH  93  96
ENDBRANCH  90  93
ENDBRANCH  84  90
ENDBRANCH  82  84
BRANCH  82 126
ATOM    126  O   UNL     1     150.915 162.719 187.917  0.00  0.00    -0.379 OA
BRANCH 126 127
ATOM    127  C   UNL     1     152.250 162.279 187.719  0.00  0.00    +0.037 C 
ATOM    128  H   UNL     1     152.246 161.305 187.221  0.00  0.00    +0.052 HD
ATOM    129  H   UNL     1     152.824 163.004 187.134  0.00  0.00    +0.052 HD
ATOM    130  H   UNL     1     152.723 162.164 188.700  0.00  0.00    +0.052 HD
ENDBRANCH 126 127
ENDBRANCH  82 126
ENDBRANCH  76  82
ENDBRANCH  25  76
BRANCH  31 131
ATOM    131  O   UNL     1     143.119 161.431 186.965  0.00  0.00    -0.379 OA
BRANCH 131 132
ATOM    132  C   UNL     1     143.459 160.128 186.506  0.00  0.00    +0.037 C 
ATOM    133  H   UNL     1     143.145 159.375 187.235  0.00  0.00    +0.052 HD
ATOM    134  H   UNL     1     144.532 160.044 186.318  0.00  0.00    +0.052 HD
ATOM    135  H   UNL     1     142.928 159.949 185.569  0.00  0.00    +0.052 HD
ENDBRANCH 131 132
ENDBRANCH  31 131
BRANCH  29 136
ATOM    136  O   UNL     1     147.200 160.187 189.104  0.00  0.00    -0.376 OA
BRANCH 136 137
ATOM    137  C   UNL     1     147.068 159.181 190.103  0.00  0.00    +0.037 C 
ATOM    138  H   UNL     1     147.568 158.258 189.796  0.00  0.00    +0.052 HD
ATOM    139  H   UNL     1     147.536 159.548 191.021  0.00  0.00    +0.052 HD
ATOM    140  H   UNL     1     146.010 158.987 190.314  0.00  0.00    +0.052 HD
ENDBRANCH 136 137
ENDBRANCH  29 136
BRANCH  16 141
ATOM    141  O   UNL     1     147.262 173.339 192.815  0.00  0.00    -0.379 OA
BRANCH 141 142
ATOM    142  C   UNL     1     147.957 173.688 194.005  0.00  0.00    +0.037 C 
ATOM    143  H   UNL     1     148.720 174.428 193.752  0.00  0.00    +0.052 HD
ATOM    144  H   UNL     1     147.262 174.134 194.723  0.00  0.00    +0.052 HD
ATOM    145  H   UNL     1     148.449 172.817 194.452  0.00  0.00    +0.052 HD
ENDBRANCH 141 142
ENDBRANCH  16 141
BRANCH   6 146
ATOM    146  O   UNL     1     145.596 168.300 188.986  0.00  0.00    -0.379 OA
BRANCH 146 147
ATOM    147  C   UNL     1     146.565 169.017 188.230  0.00  0.00    +0.037 C 
ATOM    148  H   UNL     1     146.576 168.607 187.218  0.00  0.00    +0.052 HD
ATOM    149  H   UNL     1     146.294 170.077 188.172  0.00  0.00    +0.052 HD
ATOM    150  H   UNL     1     147.565 168.905 188.657  0.00  0.00    +0.052 HD
ENDBRANCH 146 147
ENDBRANCH   6 146
BRANCH   4 151
ATOM    151  O   UNL     1     141.843 165.814 189.653  0.00  0.00    -0.376 OA
BRANCH 151 152
ATOM    152  C   UNL     1     142.371 165.816 190.973  0.00  0.00    +0.037 C 
ATOM    153  H   UNL     1     143.458 165.932 190.907  0.00  0.00    +0.052 HD
ATOM    154  H   UNL     1     142.153 164.873 191.484  0.00  0.00    +0.052 HD
ATOM    155  H   UNL     1     141.968 166.657 191.545  0.00  0.00    +0.052 HD
ENDBRANCH 151 152
ENDBRANCH   4 151
TORSDOF 33
ENDMDL
MODEL 4
REMARK VINA RESULT:      -4.7      2.317      9.755
REMARK  Name = Reidispongiolide A_conf1
REMARK  33 active torsions:
REMARK  status: ('A' for Active; 'I' for Inactive)
REMARK    1  A    between atoms: C_1  and  C_2
REMARK    2  A    between atoms: C_5  and  O_67
REMARK    3  A    between atoms: C_7  and  O_65
REMARK    4  A    between atoms: C_8  and  C_64
REMARK    5  A    between atoms: C_17  and  O_62
REMARK    6  A    between atoms: C_19  and  C_61
REMARK    7  A    between atoms: C_26  and  C_38
REMARK    8  A    between atoms: C_27  and  C_37
REMARK    9  A    between atoms: C_30  and  O_35
REMARK   10  A    between atoms: C_32  and  O_33
REMARK   11  A    between atoms: O_33  and  C_34
REMARK   12  A    between atoms: O_35  and  C_36
REMARK   13  A    between atoms: C_38  and  C_39
REMARK   14  A    between atoms: C_38  and  C_40
REMARK   15  A    between atoms: C_40  and  C_41
REMARK   16  A    between atoms: C_40  and  O_59
REMARK   17  A    between atoms: C_41  and  C_42
REMARK   18  A    between atoms: C_41  and  C_43
REMARK   19  A    between atoms: C_43  and  C_44
REMARK   20  A    between atoms: C_44  and  C_45
REMARK   21  A    between atoms: C_45  and  C_47
REMARK   22  A    between atoms: C_47  and  C_48
REMARK   23  A    between atoms: C_47  and  C_49
REMARK   24  A    between atoms: C_49  and  C_50
REMARK   25  A    between atoms: C_49  and  O_57
REMARK   26  A    between atoms: C_50  and  C_51
REMARK   27  A    between atoms: C_52  and  N_53
REMARK   28  A    between atoms: N_53  and  C_54
REMARK   29  A    between atoms: O_57  and  C_58
REMARK   30  A    between atoms: O_59  and  C_60
REMARK   31  A    between atoms: O_62  and  C_63
REMARK   32  A    between atoms: O_65  and  C_66
REMARK   33  A    between atoms: O_67  and  C_68
REMARK                            x       y       z     vdW  Elec       q    Type
REMARK                         _______ _______ _______ _____ _____    ______ ____
ROOT
ATOM      1  C   UNL     1     148.460 165.264 186.212  0.00  0.00    +0.001 C 
ATOM      2  C   UNL     1     148.029 166.190 185.088  0.00  0.00    -0.080 C 
ATOM      3  C   UNL     1     146.951 166.989 185.138  0.00  0.00    -0.059 C 
ATOM      4  C   UNL     1     146.498 167.865 184.002  0.00  0.00    +0.079 C 
ATOM      5  C   UNL     1     145.595 169.034 184.435  0.00  0.00    +0.004 C 
ATOM      6  C   UNL     1     146.287 170.090 185.320  0.00  0.00    +0.067 C 
ATOM      7  C   UNL     1     146.059 171.556 184.825  0.00  0.00    +0.020 C 
ATOM      8  C   UNL     1     144.567 171.956 184.586  0.00  0.00    +0.112 C 
ATOM      9  C   UNL     1     143.687 172.118 185.835  0.00  0.00    +0.006 C 
ATOM     10  C   UNL     1     143.870 173.463 186.488  0.00  0.00    -0.057 C 
ATOM     11  C   UNL     1     144.372 174.486 185.780  0.00  0.00    +0.022 C 
ATOM     12  C   UNL     1     144.668 174.378 184.343  0.00  0.00    +0.332 C 
ATOM     13  O   UNL     1     144.999 175.362 183.695  0.00  0.00    -0.246 OA
ATOM     14  O   UNL     1     144.505 173.158 183.779  0.00  0.00    -0.458 OA
ATOM     15  C   UNL     1     143.452 173.623 187.936  0.00  0.00    -0.004 C 
ATOM     16  C   UNL     1     141.931 173.424 188.165  0.00  0.00    +0.066 C 
ATOM     17  C   UNL     1     141.579 173.360 189.676  0.00  0.00    -0.005 C 
ATOM     18  C   UNL     1     142.088 172.183 190.505  0.00  0.00    -0.070 C 
ATOM     19  C   UNL     1     142.599 171.074 189.942  0.00  0.00    -0.062 C 
ATOM     20  C   UNL     1     143.246 169.951 190.564  0.00  0.00    -0.055 C 
ATOM     21  C   UNL     1     142.700 169.058 191.405  0.00  0.00    +0.023 C 
ATOM     22  C   UNL     1     143.414 167.806 191.762  0.00  0.00    +0.332 C 
ATOM     23  O   UNL     1     142.863 166.843 192.266  0.00  0.00    -0.246 OA
ATOM     24  O   UNL     1     144.698 167.867 191.347  0.00  0.00    -0.457 OA
ATOM     25  C   UNL     1     145.449 166.633 191.157  0.00  0.00    +0.114 C 
ATOM     26  C   UNL     1     144.936 166.002 189.811  0.00  0.00    +0.012 C 
ATOM     27  C   UNL     1     145.502 164.634 189.481  0.00  0.00    -0.079 C 
ATOM     28  C   UNL     1     145.907 164.216 188.267  0.00  0.00    -0.059 C 
ATOM     29  C   UNL     1     146.484 162.874 187.884  0.00  0.00    +0.079 C 
ATOM     30  C   UNL     1     147.894 162.983 187.260  0.00  0.00    +0.004 C 
ATOM     31  C   UNL     1     147.935 163.816 185.956  0.00  0.00    +0.067 C 
ATOM     32  H   UNL     1     148.024 165.641 187.143  0.00  0.00    +0.037 HD
ATOM     33  H   UNL     1     148.625 166.150 184.176  0.00  0.00    +0.057 HD
ATOM     34  H   UNL     1     146.321 166.993 186.023  0.00  0.00    +0.059 HD
ATOM     35  H   UNL     1     147.368 168.273 183.467  0.00  0.00    +0.064 HD
ATOM     36  H   UNL     1     144.701 168.639 184.936  0.00  0.00    +0.032 HD
ATOM     37  H   UNL     1     145.228 169.478 183.503  0.00  0.00    +0.032 HD
ATOM     38  H   UNL     1     147.368 169.895 185.328  0.00  0.00    +0.060 HD
ATOM     39  H   UNL     1     146.460 172.245 185.578  0.00  0.00    +0.036 HD
ATOM     40  H   UNL     1     144.092 171.190 183.965  0.00  0.00    +0.074 HD
ATOM     41  H   UNL     1     143.860 171.313 186.550  0.00  0.00    +0.035 HD
ATOM     42  H   UNL     1     142.632 172.045 185.531  0.00  0.00    +0.035 HD
ATOM     43  H   UNL     1     144.508 175.474 186.204  0.00  0.00    +0.069 HD
ATOM     44  H   UNL     1     144.042 172.915 188.527  0.00  0.00    +0.034 HD
ATOM     45  H   UNL     1     143.732 174.625 188.288  0.00  0.00    +0.034 HD
ATOM     46  H   UNL     1     141.589 172.512 187.661  0.00  0.00    +0.060 HD
ATOM     47  H   UNL     1     141.942 174.294 190.131  0.00  0.00    +0.034 HD
ATOM     48  H   UNL     1     140.487 173.394 189.788  0.00  0.00    +0.034 HD
ATOM     49  H   UNL     1     142.651 170.994 188.855  0.00  0.00    +0.062 HD
ATOM     50  H   UNL     1     144.255 169.801 190.184  0.00  0.00    +0.062 HD
ATOM     51  H   UNL     1     141.677 169.131 191.751  0.00  0.00    +0.069 HD
ATOM     52  H   UNL     1     145.231 165.959 191.993  0.00  0.00    +0.074 HD
ATOM     53  H   UNL     1     143.858 165.828 189.953  0.00  0.00    +0.038 HD
ATOM     54  H   UNL     1     145.547 163.929 190.309  0.00  0.00    +0.057 HD
ATOM     55  H   UNL     1     145.793 164.887 187.420  0.00  0.00    +0.059 HD
ATOM     56  H   UNL     1     145.797 162.429 187.150  0.00  0.00    +0.064 HD
ATOM     57  H   UNL     1     148.586 163.394 188.006  0.00  0.00    +0.032 HD
ATOM     58  H   UNL     1     148.273 161.970 187.078  0.00  0.00    +0.032 HD
ATOM     59  H   UNL     1     146.927 163.869 185.519  0.00  0.00    +0.060 HD
ENDROOT
BRANCH   1  60
ATOM     60  C   UNL     1     149.986 165.333 186.357  0.00  0.00    -0.057 C 
ATOM     61  H   UNL     1     150.478 165.575 185.408  0.00  0.00    +0.024 HD
ATOM     62  H   UNL     1     150.270 166.105 187.078  0.00  0.00    +0.024 HD
ATOM     63  H   UNL     1     150.396 164.382 186.711  0.00  0.00    +0.024 HD
ENDBRANCH   1  60
BRANCH  26  64
ATOM     64  C   UNL     1     145.025 167.005 188.646  0.00  0.00    -0.056 C 
ATOM     65  H   UNL     1     144.504 167.939 188.865  0.00  0.00    +0.024 HD
ATOM     66  H   UNL     1     146.065 167.252 188.406  0.00  0.00    +0.024 HD
ATOM     67  H   UNL     1     144.546 166.609 187.744  0.00  0.00    +0.024 HD
ENDBRANCH  26  64
BRANCH  18  68
ATOM     68  C   UNL     1     141.997 172.415 191.991  0.00  0.00    -0.043 C 
ATOM     69  H   UNL     1     142.996 172.361 192.438  0.00  0.00    +0.027 HD
ATOM     70  H   UNL     1     141.374 171.643 192.457  0.00  0.00    +0.027 HD
ATOM     71  H   UNL     1     141.570 173.385 192.256  0.00  0.00    +0.027 HD
ENDBRANCH  18  68
BRANCH   7  72
ATOM     72  C   UNL     1     146.908 171.777 183.558  0.00  0.00    -0.057 C 
ATOM     73  H   UNL     1     146.912 170.876 182.936  0.00  0.00    +0.023 HD
ATOM     74  H   UNL     1     146.528 172.607 182.955  0.00  0.00    +0.023 HD
ATOM     75  H   UNL     1     147.952 171.992 183.807  0.00  0.00    +0.023 HD
ENDBRANCH   7  72
BRANCH  25  76
ATOM     76  C   UNL     1     146.947 167.065 191.221  0.00  0.00    +0.020 C 
ATOM     77  H   UNL     1     147.383 166.862 190.232  0.00  0.00    +0.036 HD
BRANCH  76  78
ATOM     78  C   UNL     1     147.055 168.598 191.351  0.00  0.00    -0.057 C 
ATOM     79  H   UNL     1     146.092 169.070 191.131  0.00  0.00    +0.023 HD
ATOM     80  H   UNL     1     147.775 169.028 190.650  0.00  0.00    +0.023 HD
ATOM     81  H   UNL     1     147.330 168.898 192.365  0.00  0.00    +0.023 HD
ENDBRANCH  76  78
BRANCH  76  82
ATOM     82  C   UNL     1     147.836 166.306 192.243  0.00  0.00    +0.067 C 
ATOM     83  H   UNL     1     148.694 166.951 192.455  0.00  0.00    +0.060 HD
BRANCH  82  84
ATOM     84  C   UNL     1     148.391 164.903 191.836  0.00  0.00    -0.017 C 
ATOM     85  H   UNL     1     147.554 164.198 191.808  0.00  0.00    +0.032 HD
BRANCH  84  86
ATOM     86  C   UNL     1     148.935 165.018 190.400  0.00  0.00    -0.060 C 
ATOM     87  H   UNL     1     148.131 164.948 189.662  0.00  0.00    +0.023 HD
ATOM     88  H   UNL     1     149.454 165.967 190.239  0.00  0.00    +0.023 HD
ATOM     89  H   UNL     1     149.624 164.201 190.172  0.00  0.00    +0.023 HD
ENDBRANCH  84  86
BRANCH  84  90
ATOM     90  C   UNL     1     149.473 164.349 192.800  0.00  0.00    -0.041 C 
ATOM     91  H   UNL     1     149.437 163.256 192.790  0.00  0.00    +0.027 HD
ATOM     92  H   UNL     1     149.224 164.659 193.822  0.00  0.00    +0.027 HD
BRANCH  90  93
ATOM     93  C   UNL     1     150.923 164.774 192.556  0.00  0.00    +0.007 C 
ATOM     94  H   UNL     1     151.036 164.941 191.473  0.00  0.00    +0.034 HD
ATOM     95  H   UNL     1     151.665 164.007 192.796  0.00  0.00    +0.034 HD
BRANCH  93  96
ATOM     96  C   UNL     1     151.317 166.086 193.211  0.00  0.00    +0.139 C 
ATOM     97  O   UNL     1     151.041 166.279 194.398  0.00  0.00    -0.297 OA
BRANCH  96  98
ATOM     98  C   UNL     1     152.017 167.139 192.355  0.00  0.00    +0.041 C 
ATOM     99  H   UNL     1     152.399 166.641 191.459  0.00  0.00    +0.040 HD
BRANCH  98 100
ATOM    100  C   UNL     1     153.214 167.682 193.134  0.00  0.00    -0.053 C 
ATOM    101  H   UNL     1     154.047 166.975 193.146  0.00  0.00    +0.024 HD
ATOM    102  H   UNL     1     152.930 167.901 194.169  0.00  0.00    +0.024 HD
ATOM    103  H   UNL     1     153.583 168.608 192.684  0.00  0.00    +0.024 HD
ENDBRANCH  98 100
BRANCH  98 104
ATOM    104  C   UNL     1     151.058 168.267 191.894  0.00  0.00    +0.071 C 
ATOM    105  H   UNL     1     150.185 168.234 192.563  0.00  0.00    +0.061 HD
BRANCH 104 106
ATOM    106  C   UNL     1     151.688 169.679 191.972  0.00  0.00    -0.006 C 
ATOM    107  H   UNL     1     152.538 169.681 192.666  0.00  0.00    +0.033 HD
ATOM    108  H   UNL     1     152.129 169.937 191.001  0.00  0.00    +0.033 HD
BRANCH 106 109
ATOM    109  C   UNL     1     150.710 170.749 192.390  0.00  0.00    -0.067 C 
ATOM    110  C   UNL     1     149.744 171.212 191.583  0.00  0.00    -0.005 C 
ATOM    111  H   UNL     1     150.836 171.132 193.395  0.00  0.00    +0.059 HD
ATOM    112  H   UNL     1     149.672 170.808 190.572  0.00  0.00    +0.078 HD
BRANCH 110 113
ATOM    113  N   UNL     1     148.781 172.165 191.882  0.00  0.00    -0.284 N 
ATOM    114  C   UNL     1     147.936 172.773 190.959  0.00  0.00    +0.206 C 
ATOM    115  O   UNL     1     147.110 173.647 191.201  0.00  0.00    -0.279 OA
ATOM    116  H   UNL     1     148.056 172.405 189.930  0.00  0.00    +0.126 HD
BRANCH 113 117
ATOM    117  C   UNL     1     148.663 172.578 193.276  0.00  0.00    +0.007 C 
ATOM    118  H   UNL     1     149.339 173.423 193.451  0.00  0.00    +0.043 HD
ATOM    119  H   UNL     1     147.630 172.886 193.479  0.00  0.00    +0.043 HD
ATOM    120  H   UNL     1     148.926 171.775 193.971  0.00  0.00    +0.043 HD
ENDBRANCH 113 117
ENDBRANCH 110 113
ENDBRANCH 106 109
ENDBRANCH 104 106
BRANCH 104 121
ATOM    121  O   UNL     1     150.610 167.998 190.560  0.00  0.00    -0.379 OA
BRANCH 121 122
ATOM    122  C   UNL     1     151.624 167.507 189.696  0.00  0.00    +0.037 C 
ATOM    123  H   UNL     1     152.193 168.324 189.245  0.00  0.00    +0.052 HD
ATOM    124  H   UNL     1     151.188 166.878 188.917  0.00  0.00    +0.052 HD
ATOM    125  H   UNL     1     152.310 166.896 190.288  0.00  0.00    +0.052 HD
ENDBRANCH 121 122
ENDBRANCH 104 121
ENDBRANCH  98 104
ENDBRANCH  96  98
ENDBRANCH  93  96
ENDBRANCH  90  93
ENDBRANCH  84  90
ENDBRANCH  82  84
BRANCH  82 126
ATOM    126  O   UNL     1     147.103 166.147 193.474  0.00  0.00    -0.379 OA
BRANCH 126 127
ATOM    127  C   UNL     1     147.612 166.935 194.539  0.00  0.00    +0.037 C 
ATOM    128  H   UNL     1     147.144 166.628 195.479  0.00  0.00    +0.052 HD
ATOM    129  H   UNL     1     148.701 166.849 194.610  0.00  0.00    +0.052 HD
ATOM    130  H   UNL     1     147.352 167.980 194.348  0.00  0.00    +0.052 HD
ENDBRANCH 126 127
ENDBRANCH  82 126
ENDBRANCH  76  82
ENDBRANCH  25  76
BRANCH  31 131
ATOM    131  O   UNL     1     148.804 163.177 185.000  0.00  0.00    -0.379 OA
BRANCH 131 132
ATOM    132  C   UNL     1     149.100 161.825 185.331  0.00  0.00    +0.037 C 
ATOM    133  H   UNL     1     149.956 161.470 184.747  0.00  0.00    +0.052 HD
ATOM    134  H   UNL     1     148.236 161.179 185.159  0.00  0.00    +0.052 HD
ATOM    135  H   UNL     1     149.359 161.782 186.390  0.00  0.00    +0.052 HD
ENDBRANCH 131 132
ENDBRANCH  31 131
BRANCH  29 136
ATOM    136  O   UNL     1     146.547 162.045 189.050  0.00  0.00    -0.376 OA
BRANCH 136 137
ATOM    137  C   UNL     1     145.592 160.990 189.021  0.00  0.00    +0.037 C 
ATOM    138  H   UNL     1     146.085 160.020 188.916  0.00  0.00    +0.052 HD
ATOM    139  H   UNL     1     145.039 161.005 189.964  0.00  0.00    +0.052 HD
ATOM    140  H   UNL     1     144.877 161.143 188.204  0.00  0.00    +0.052 HD
ENDBRANCH 136 137
ENDBRANCH  29 136
BRANCH  16 141
ATOM    141  O   UNL     1     141.263 174.562 187.585  0.00  0.00    -0.379 OA
BRANCH 141 142
ATOM    142  C   UNL     1     141.249 175.695 188.445  0.00  0.00    +0.037 C 
ATOM    143  H   UNL     1     142.149 176.284 188.251  0.00  0.00    +0.052 HD
ATOM    144  H   UNL     1     140.372 176.314 188.228  0.00  0.00    +0.052 HD
ATOM    145  H   UNL     1     141.246 175.398 189.498  0.00  0.00    +0.052 HD
ENDBRANCH 141 142
ENDBRANCH  16 141
BRANCH   6 146
ATOM    146  O   UNL     1     145.788 169.926 186.657  0.00  0.00    -0.379 OA
BRANCH 146 147
ATOM    147  C   UNL     1     146.540 170.640 187.632  0.00  0.00    +0.037 C 
ATOM    148  H   UNL     1     147.089 171.433 187.121  0.00  0.00    +0.052 HD
ATOM    149  H   UNL     1     145.870 171.101 188.366  0.00  0.00    +0.052 HD
ATOM    150  H   UNL     1     147.261 169.990 188.133  0.00  0.00    +0.052 HD
ENDBRANCH 146 147
ENDBRANCH   6 146
BRANCH   4 151
ATOM    151  O   UNL     1     145.698 167.043 183.137  0.00  0.00    -0.376 OA
BRANCH 151 152
ATOM    152  C   UNL     1     144.361 166.901 183.598  0.00  0.00    +0.037 C 
ATOM    153  H   UNL     1     143.976 165.941 183.238  0.00  0.00    +0.052 HD
ATOM    154  H   UNL     1     143.724 167.700 183.206  0.00  0.00    +0.052 HD
ATOM    155  H   UNL     1     144.333 166.896 184.692  0.00  0.00    +0.052 HD
ENDBRANCH 151 152
ENDBRANCH   4 151
TORSDOF 33
ENDMDL
MODEL 5
REMARK VINA RESULT:      -4.6      2.858      9.948
REMARK  Name = Reidispongiolide A_conf1
REMARK  33 active torsions:
REMARK  status: ('A' for Active; 'I' for Inactive)
REMARK    1  A    between atoms: C_1  and  C_2
REMARK    2  A    between atoms: C_5  and  O_67
REMARK    3  A    between atoms: C_7  and  O_65
REMARK    4  A    between atoms: C_8  and  C_64
REMARK    5  A    between atoms: C_17  and  O_62
REMARK    6  A    between atoms: C_19  and  C_61
REMARK    7  A    between atoms: C_26  and  C_38
REMARK    8  A    between atoms: C_27  and  C_37
REMARK    9  A    between atoms: C_30  and  O_35
REMARK   10  A    between atoms: C_32  and  O_33
REMARK   11  A    between atoms: O_33  and  C_34
REMARK   12  A    between atoms: O_35  and  C_36
REMARK   13  A    between atoms: C_38  and  C_39
REMARK   14  A    between atoms: C_38  and  C_40
REMARK   15  A    between atoms: C_40  and  C_41
REMARK   16  A    between atoms: C_40  and  O_59
REMARK   17  A    between atoms: C_41  and  C_42
REMARK   18  A    between atoms: C_41  and  C_43
REMARK   19  A    between atoms: C_43  and  C_44
REMARK   20  A    between atoms: C_44  and  C_45
REMARK   21  A    between atoms: C_45  and  C_47
REMARK   22  A    between atoms: C_47  and  C_48
REMARK   23  A    between atoms: C_47  and  C_49
REMARK   24  A    between atoms: C_49  and  C_50
REMARK   25  A    between atoms: C_49  and  O_57
REMARK   26  A    between atoms: C_50  and  C_51
REMARK   27  A    between atoms: C_52  and  N_53
REMARK   28  A    between atoms: N_53  and  C_54
REMARK   29  A    between atoms: O_57  and  C_58
REMARK   30  A    between atoms: O_59  and  C_60
REMARK   31  A    between atoms: O_62  and  C_63
REMARK   32  A    between atoms: O_65  and  C_66
REMARK   33  A    between atoms: O_67  and  C_68
REMARK                            x       y       z     vdW  Elec       q    Type
REMARK                         _______ _______ _______ _____ _____    ______ ____
ROOT
ATOM      1  C   UNL     1     149.037 161.756 187.457  0.00  0.00    +0.001 C 
ATOM      2  C   UNL     1     147.627 162.287 187.271  0.00  0.00    -0.080 C 
ATOM      3  C   UNL     1     147.084 163.267 188.012  0.00  0.00    -0.059 C 
ATOM      4  C   UNL     1     145.668 163.752 187.858  0.00  0.00    +0.079 C 
ATOM      5  C   UNL     1     145.428 165.167 188.415  0.00  0.00    +0.004 C 
ATOM      6  C   UNL     1     146.173 166.291 187.665  0.00  0.00    +0.067 C 
ATOM      7  C   UNL     1     145.250 167.492 187.278  0.00  0.00    +0.020 C 
ATOM      8  C   UNL     1     144.415 168.098 188.451  0.00  0.00    +0.112 C 
ATOM      9  C   UNL     1     145.191 168.889 189.515  0.00  0.00    +0.006 C 
ATOM     10  C   UNL     1     145.474 170.302 189.079  0.00  0.00    -0.057 C 
ATOM     11  C   UNL     1     144.730 170.864 188.114  0.00  0.00    +0.022 C 
ATOM     12  C   UNL     1     143.570 170.185 187.519  0.00  0.00    +0.332 C 
ATOM     13  O   UNL     1     142.832 170.770 186.737  0.00  0.00    -0.246 OA
ATOM     14  O   UNL     1     143.339 168.912 187.919  0.00  0.00    -0.458 OA
ATOM     15  C   UNL     1     146.588 171.060 189.772  0.00  0.00    -0.004 C 
ATOM     16  C   UNL     1     146.327 171.298 191.282  0.00  0.00    +0.066 C 
ATOM     17  C   UNL     1     147.582 171.860 192.003  0.00  0.00    -0.005 C 
ATOM     18  C   UNL     1     148.823 170.979 192.125  0.00  0.00    -0.070 C 
ATOM     19  C   UNL     1     148.795 169.659 191.874  0.00  0.00    -0.062 C 
ATOM     20  C   UNL     1     149.882 168.722 191.801  0.00  0.00    -0.055 C 
ATOM     21  C   UNL     1     150.695 168.334 192.797  0.00  0.00    +0.023 C 
ATOM     22  C   UNL     1     151.602 167.170 192.637  0.00  0.00    +0.332 C 
ATOM     23  O   UNL     1     152.130 166.600 193.577  0.00  0.00    -0.246 OA
ATOM     24  O   UNL     1     151.653 166.792 191.341  0.00  0.00    -0.457 OA
ATOM     25  C   UNL     1     152.076 165.439 191.006  0.00  0.00    +0.114 C 
ATOM     26  C   UNL     1     150.863 164.497 191.339  0.00  0.00    +0.012 C 
ATOM     27  C   UNL     1     151.134 163.013 191.180  0.00  0.00    -0.079 C 
ATOM     28  C   UNL     1     150.295 162.108 190.640  0.00  0.00    -0.059 C 
ATOM     29  C   UNL     1     150.515 160.627 190.450  0.00  0.00    +0.079 C 
ATOM     30  C   UNL     1     150.408 160.189 188.971  0.00  0.00    +0.004 C 
ATOM     31  C   UNL     1     149.023 160.467 188.339  0.00  0.00    +0.067 C 
ATOM     32  H   UNL     1     149.622 162.529 187.967  0.00  0.00    +0.037 HD
ATOM     33  H   UNL     1     147.022 161.791 186.512  0.00  0.00    +0.057 HD
ATOM     34  H   UNL     1     147.662 163.728 188.806  0.00  0.00    +0.059 HD
ATOM     35  H   UNL     1     145.374 163.738 186.798  0.00  0.00    +0.064 HD
ATOM     36  H   UNL     1     145.680 165.187 189.484  0.00  0.00    +0.032 HD
ATOM     37  H   UNL     1     144.344 165.316 188.373  0.00  0.00    +0.032 HD
ATOM     38  H   UNL     1     146.605 165.878 186.743  0.00  0.00    +0.060 HD
ATOM     39  H   UNL     1     145.876 168.299 186.878  0.00  0.00    +0.036 HD
ATOM     40  H   UNL     1     143.903 167.285 188.976  0.00  0.00    +0.074 HD
ATOM     41  H   UNL     1     146.113 168.377 189.795  0.00  0.00    +0.035 HD
ATOM     42  H   UNL     1     144.577 168.946 190.426  0.00  0.00    +0.035 HD
ATOM     43  H   UNL     1     144.889 171.883 187.779  0.00  0.00    +0.069 HD
ATOM     44  H   UNL     1     147.515 170.500 189.609  0.00  0.00    +0.034 HD
ATOM     45  H   UNL     1     146.727 172.033 189.283  0.00  0.00    +0.034 HD
ATOM     46  H   UNL     1     146.006 170.366 191.762  0.00  0.00    +0.060 HD
ATOM     47  H   UNL     1     147.861 172.791 191.486  0.00  0.00    +0.034 HD
ATOM     48  H   UNL     1     147.299 172.173 193.017  0.00  0.00    +0.034 HD
ATOM     49  H   UNL     1     147.857 169.184 191.579  0.00  0.00    +0.062 HD
ATOM     50  H   UNL     1     149.928 168.226 190.832  0.00  0.00    +0.062 HD
ATOM     51  H   UNL     1     150.635 168.752 193.795  0.00  0.00    +0.069 HD
ATOM     52  H   UNL     1     152.937 165.178 191.631  0.00  0.00    +0.074 HD
ATOM     53  H   UNL     1     150.668 164.629 192.415  0.00  0.00    +0.038 HD
ATOM     54  H   UNL     1     152.086 162.661 191.574  0.00  0.00    +0.057 HD
ATOM     55  H   UNL     1     149.312 162.437 190.316  0.00  0.00    +0.059 HD
ATOM     56  H   UNL     1     149.741 160.111 191.036  0.00  0.00    +0.064 HD
ATOM     57  H   UNL     1     151.203 160.678 188.394  0.00  0.00    +0.032 HD
ATOM     58  H   UNL     1     150.651 159.122 188.905  0.00  0.00    +0.032 HD
ATOM     59  H   UNL     1     148.269 160.581 189.132  0.00  0.00    +0.060 HD
ENDROOT
BRANCH   1  60
ATOM     60  C   UNL     1     149.672 161.533 186.078  0.00  0.00    -0.057 C 
ATOM     61  H   UNL     1     150.680 161.111 186.155  0.00  0.00    +0.024 HD
ATOM     62  H   UNL     1     149.071 160.838 185.485  0.00  0.00    +0.024 HD
ATOM     63  H   UNL     1     149.746 162.471 185.518  0.00  0.00    +0.024 HD
ENDBRANCH   1  60
BRANCH  26  64
ATOM     64  C   UNL     1     149.573 164.968 190.643  0.00  0.00    -0.056 C 
ATOM     65  H   UNL     1     149.734 165.858 190.031  0.00  0.00    +0.024 HD
ATOM     66  H   UNL     1     149.156 164.189 189.995  0.00  0.00    +0.024 HD
ATOM     67  H   UNL     1     148.809 165.254 191.375  0.00  0.00    +0.024 HD
ENDBRANCH  26  64
BRANCH  18  68
ATOM     68  C   UNL     1     150.065 171.744 192.505  0.00  0.00    -0.043 C 
ATOM     69  H   UNL     1     150.885 171.483 191.828  0.00  0.00    +0.027 HD
ATOM     70  H   UNL     1     150.370 171.485 193.526  0.00  0.00    +0.027 HD
ATOM     71  H   UNL     1     149.939 172.828 192.467  0.00  0.00    +0.027 HD
ENDBRANCH  18  68
BRANCH   7  72
ATOM     72  C   UNL     1     144.343 167.049 186.114  0.00  0.00    -0.057 C 
ATOM     73  H   UNL     1     143.919 167.920 185.603  0.00  0.00    +0.023 HD
ATOM     74  H   UNL     1     144.891 166.454 185.377  0.00  0.00    +0.023 HD
ATOM     75  H   UNL     1     143.498 166.450 186.468  0.00  0.00    +0.023 HD
ENDBRANCH   7  72
BRANCH  25  76
ATOM     76  C   UNL     1     152.529 165.524 189.515  0.00  0.00    +0.020 C 
ATOM     77  H   UNL     1     151.773 164.993 188.918  0.00  0.00    +0.036 HD
BRANCH  76  78
ATOM     78  C   UNL     1     152.429 166.977 189.007  0.00  0.00    -0.057 C 
ATOM     79  H   UNL     1     152.881 167.666 189.728  0.00  0.00    +0.023 HD
ATOM     80  H   UNL     1     151.395 167.304 188.875  0.00  0.00    +0.023 HD
ATOM     81  H   UNL     1     152.963 167.112 188.063  0.00  0.00    +0.023 HD
ENDBRANCH  76  78
BRANCH  76  82
ATOM     82  C   UNL     1     153.888 164.855 189.173  0.00  0.00    +0.067 C 
ATOM     83  H   UNL     1     154.447 164.777 190.111  0.00  0.00    +0.060 HD
BRANCH  82  84
ATOM     84  C   UNL     1     154.815 165.560 188.132  0.00  0.00    -0.017 C 
ATOM     85  H   UNL     1     154.566 166.626 188.117  0.00  0.00    +0.032 HD
BRANCH  84  86
ATOM     86  C   UNL     1     156.263 165.441 188.643  0.00  0.00    -0.060 C 
ATOM     87  H   UNL     1     156.352 165.797 189.673  0.00  0.00    +0.023 HD
ATOM     88  H   UNL     1     156.617 164.407 188.614  0.00  0.00    +0.023 HD
ATOM     89  H   UNL     1     156.942 166.059 188.051  0.00  0.00    +0.023 HD
ENDBRANCH  84  86
BRANCH  84  90
ATOM     90  C   UNL     1     154.685 165.001 186.690  0.00  0.00    -0.041 C 
ATOM     91  H   UNL     1     154.544 163.917 186.736  0.00  0.00    +0.027 HD
ATOM     92  H   UNL     1     155.632 165.170 186.163  0.00  0.00    +0.027 HD
BRANCH  90  93
ATOM     93  C   UNL     1     153.582 165.582 185.802  0.00  0.00    +0.007 C 
ATOM     94  H   UNL     1     154.020 165.750 184.807  0.00  0.00    +0.034 HD
ATOM     95  H   UNL     1     153.220 166.566 186.116  0.00  0.00    +0.034 HD
BRANCH  93  96
ATOM     96  C   UNL     1     152.400 164.656 185.574  0.00  0.00    +0.139 C 
ATOM     97  O   UNL     1     152.600 163.457 185.362  0.00  0.00    -0.297 OA
BRANCH  96  98
ATOM     98  C   UNL     1     150.998 165.260 185.582  0.00  0.00    +0.041 C 
ATOM     99  H   UNL     1     151.099 166.343 185.462  0.00  0.00    +0.040 HD
BRANCH  98 100
ATOM    100  C   UNL     1     150.363 164.999 186.948  0.00  0.00    -0.053 C 
ATOM    101  H   UNL     1     150.640 164.020 187.346  0.00  0.00    +0.024 HD
ATOM    102  H   UNL     1     149.271 165.048 186.877  0.00  0.00    +0.024 HD
ATOM    103  H   UNL     1     150.686 165.748 187.676  0.00  0.00    +0.024 HD
ENDBRANCH  98 100
BRANCH  98 104
ATOM    104  C   UNL     1     150.116 164.738 184.418  0.00  0.00    +0.071 C 
ATOM    105  H   UNL     1     150.221 163.643 184.407  0.00  0.00    +0.061 HD
BRANCH 104 106
ATOM    106  C   UNL     1     148.617 165.089 184.579  0.00  0.00    -0.006 C 
ATOM    107  H   UNL     1     148.015 164.547 183.839  0.00  0.00    +0.033 HD
ATOM    108  H   UNL     1     148.256 164.720 185.548  0.00  0.00    +0.033 HD
BRANCH 106 109
ATOM    109  C   UNL     1     148.332 166.566 184.457  0.00  0.00    -0.067 C 
ATOM    110  C   UNL     1     147.195 167.052 183.938  0.00  0.00    -0.005 C 
ATOM    111  H   UNL     1     149.114 167.225 184.814  0.00  0.00    +0.059 HD
ATOM    112  H   UNL     1     146.447 166.346 183.573  0.00  0.00    +0.078 HD
BRANCH 110 113
ATOM    113  N   UNL     1     146.826 168.382 183.812  0.00  0.00    -0.284 N 
ATOM    114  C   UNL     1     147.207 169.409 184.671  0.00  0.00    +0.206 C 
ATOM    115  O   UNL     1     146.855 170.582 184.597  0.00  0.00    -0.279 OA
ATOM    116  H   UNL     1     147.885 169.092 185.475  0.00  0.00    +0.126 HD
BRANCH 113 117
ATOM    117  C   UNL     1     145.948 168.728 182.700  0.00  0.00    +0.007 C 
ATOM    118  H   UNL     1     145.073 168.068 182.724  0.00  0.00    +0.043 HD
ATOM    119  H   UNL     1     145.624 169.771 182.801  0.00  0.00    +0.043 HD
ATOM    120  H   UNL     1     146.441 168.613 181.730  0.00  0.00    +0.043 HD
ENDBRANCH 113 117
ENDBRANCH 110 113
ENDBRANCH 106 109
ENDBRANCH 104 106
BRANCH 104 121
ATOM    121  O   UNL     1     150.613 165.249 183.175  0.00  0.00    -0.379 OA
BRANCH 121 122
ATOM    122  C   UNL     1     150.786 164.260 182.170  0.00  0.00    +0.037 C 
ATOM    123  H   UNL     1     151.818 163.903 182.136  0.00  0.00    +0.052 HD
ATOM    124  H   UNL     1     150.491 164.654 181.194  0.00  0.00    +0.052 HD
ATOM    125  H   UNL     1     150.137 163.413 182.409  0.00  0.00    +0.052 HD
ENDBRANCH 121 122
ENDBRANCH 104 121
ENDBRANCH  98 104
ENDBRANCH  96  98
ENDBRANCH  93  96
ENDBRANCH  90  93
ENDBRANCH  84  90
ENDBRANCH  82  84
BRANCH  82 126
ATOM    126  O   UNL     1     153.646 163.513 188.705  0.00  0.00    -0.379 OA
BRANCH 126 127
ATOM    127  C   UNL     1     154.257 162.516 189.509  0.00  0.00    +0.037 C 
ATOM    128  H   UNL     1     153.671 161.594 189.460  0.00  0.00    +0.052 HD
ATOM    129  H   UNL     1     155.289 162.329 189.193  0.00  0.00    +0.052 HD
ATOM    130  H   UNL     1     154.264 162.867 190.545  0.00  0.00    +0.052 HD
ENDBRANCH 126 127
ENDBRANCH  82 126
ENDBRANCH  76  82
ENDBRANCH  25  76
BRANCH  31 131
ATOM    131  O   UNL     1     148.636 159.352 187.512  0.00  0.00    -0.379 OA
BRANCH 131 132
ATOM    132  C   UNL     1     147.700 158.485 188.143  0.00  0.00    +0.037 C 
ATOM    133  H   UNL     1     147.127 159.033 188.899  0.00  0.00    +0.052 HD
ATOM    134  H   UNL     1     148.202 157.630 188.601  0.00  0.00    +0.052 HD
ATOM    135  H   UNL     1     147.010 158.116 187.382  0.00  0.00    +0.052 HD
ENDBRANCH 131 132
ENDBRANCH  31 131
BRANCH  29 136
ATOM    136  O   UNL     1     151.811 160.280 190.951  0.00  0.00    -0.376 OA
BRANCH 136 137
ATOM    137  C   UNL     1     152.015 158.872 191.005  0.00  0.00    +0.037 C 
ATOM    138  H   UNL     1     152.167 158.461 190.004  0.00  0.00    +0.052 HD
ATOM    139  H   UNL     1     152.909 158.680 191.605  0.00  0.00    +0.052 HD
ATOM    140  H   UNL     1     151.166 158.380 191.493  0.00  0.00    +0.052 HD
ENDBRANCH 136 137
ENDBRANCH  29 136
BRANCH  16 141
ATOM    141  O   UNL     1     145.266 172.269 191.381  0.00  0.00    -0.379 OA
BRANCH 141 142
ATOM    142  C   UNL     1     145.675 173.578 191.005  0.00  0.00    +0.037 C 
ATOM    143  H   UNL     1     146.040 173.541 189.976  0.00  0.00    +0.052 HD
ATOM    144  H   UNL     1     144.821 174.261 191.049  0.00  0.00    +0.052 HD
ATOM    145  H   UNL     1     146.481 173.945 191.649  0.00  0.00    +0.052 HD
ENDBRANCH 141 142
ENDBRANCH  16 141
BRANCH   6 146
ATOM    146  O   UNL     1     147.249 166.733 188.509  0.00  0.00    -0.379 OA
BRANCH 146 147
ATOM    147  C   UNL     1     148.097 167.691 187.886  0.00  0.00    +0.037 C 
ATOM    148  H   UNL     1     147.639 168.675 188.003  0.00  0.00    +0.052 HD
ATOM    149  H   UNL     1     149.078 167.705 188.374  0.00  0.00    +0.052 HD
ATOM    150  H   UNL     1     148.209 167.489 186.818  0.00  0.00    +0.052 HD
ENDBRANCH 146 147
ENDBRANCH   6 146
BRANCH   4 151
ATOM    151  O   UNL     1     144.841 162.873 188.636  0.00  0.00    -0.376 OA
BRANCH 151 152
ATOM    152  C   UNL     1     143.504 163.342 188.755  0.00  0.00    +0.037 C 
ATOM    153  H   UNL     1     143.467 164.370 188.380  0.00  0.00    +0.052 HD
ATOM    154  H   UNL     1     143.181 163.343 189.801  0.00  0.00    +0.052 HD
ATOM    155  H   UNL     1     142.829 162.728 188.151  0.00  0.00    +0.052 HD
ENDBRANCH 151 152
ENDBRANCH   4 151
TORSDOF 33
ENDMDL
MODEL 6
REMARK VINA RESULT:      -4.6      2.984      8.237
REMARK  Name = Reidispongiolide A_conf1
REMARK  33 active torsions:
REMARK  status: ('A' for Active; 'I' for Inactive)
REMARK    1  A    between atoms: C_1  and  C_2
REMARK    2  A    between atoms: C_5  and  O_67
REMARK    3  A    between atoms: C_7  and  O_65
REMARK    4  A    between atoms: C_8  and  C_64
REMARK    5  A    between atoms: C_17  and  O_62
REMARK    6  A    between atoms: C_19  and  C_61
REMARK    7  A    between atoms: C_26  and  C_38
REMARK    8  A    between atoms: C_27  and  C_37
REMARK    9  A    between atoms: C_30  and  O_35
REMARK   10  A    between atoms: C_32  and  O_33
REMARK   11  A    between atoms: O_33  and  C_34
REMARK   12  A    between atoms: O_35  and  C_36
REMARK   13  A    between atoms: C_38  and  C_39
REMARK   14  A    between atoms: C_38  and  C_40
REMARK   15  A    between atoms: C_40  and  C_41
REMARK   16  A    between atoms: C_40  and  O_59
REMARK   17  A    between atoms: C_41  and  C_42
REMARK   18  A    between atoms: C_41  and  C_43
REMARK   19  A    between atoms: C_43  and  C_44
REMARK   20  A    between atoms: C_44  and  C_45
REMARK   21  A    between atoms: C_45  and  C_47
REMARK   22  A    between atoms: C_47  and  C_48
REMARK   23  A    between atoms: C_47  and  C_49
REMARK   24  A    between atoms: C_49  and  C_50
REMARK   25  A    between atoms: C_49  and  O_57
REMARK   26  A    between atoms: C_50  and  C_51
REMARK   27  A    between atoms: C_52  and  N_53
REMARK   28  A    between atoms: N_53  and  C_54
REMARK   29  A    between atoms: O_57  and  C_58
REMARK   30  A    between atoms: O_59  and  C_60
REMARK   31  A    between atoms: O_62  and  C_63
REMARK   32  A    between atoms: O_65  and  C_66
REMARK   33  A    between atoms: O_67  and  C_68
REMARK                            x       y       z     vdW  Elec       q    Type
REMARK                         _______ _______ _______ _____ _____    ______ ____
ROOT
ATOM      1  C   UNL     1     144.552 163.364 186.927  0.00  0.00    +0.001 C 
ATOM      2  C   UNL     1     143.556 164.459 187.265  0.00  0.00    -0.080 C 
ATOM      3  C   UNL     1     143.743 165.381 188.224  0.00  0.00    -0.059 C 
ATOM      4  C   UNL     1     142.730 166.430 188.592  0.00  0.00    +0.079 C 
ATOM      5  C   UNL     1     143.328 167.651 189.314  0.00  0.00    +0.004 C 
ATOM      6  C   UNL     1     144.287 168.502 188.456  0.00  0.00    +0.067 C 
ATOM      7  C   UNL     1     143.962 170.031 188.500  0.00  0.00    +0.020 C 
ATOM      8  C   UNL     1     143.841 170.646 189.931  0.00  0.00    +0.112 C 
ATOM      9  C   UNL     1     145.140 170.782 190.738  0.00  0.00    +0.006 C 
ATOM     10  C   UNL     1     145.924 172.009 190.353  0.00  0.00    -0.057 C 
ATOM     11  C   UNL     1     145.306 173.030 189.742  0.00  0.00    +0.022 C 
ATOM     12  C   UNL     1     143.853 173.047 189.512  0.00  0.00    +0.332 C 
ATOM     13  O   UNL     1     143.298 174.046 189.073  0.00  0.00    -0.246 OA
ATOM     14  O   UNL     1     143.170 171.930 189.858  0.00  0.00    -0.458 OA
ATOM     15  C   UNL     1     147.399 172.059 190.697  0.00  0.00    -0.004 C 
ATOM     16  C   UNL     1     147.679 172.035 192.222  0.00  0.00    +0.066 C 
ATOM     17  C   UNL     1     149.189 171.848 192.529  0.00  0.00    -0.005 C 
ATOM     18  C   UNL     1     149.863 170.530 192.156  0.00  0.00    -0.070 C 
ATOM     19  C   UNL     1     149.160 169.434 191.819  0.00  0.00    -0.062 C 
ATOM     20  C   UNL     1     149.627 168.174 191.310  0.00  0.00    -0.055 C 
ATOM     21  C   UNL     1     150.393 167.270 191.942  0.00  0.00    +0.023 C 
ATOM     22  C   UNL     1     150.579 165.904 191.393  0.00  0.00    +0.332 C 
ATOM     23  O   UNL     1     151.004 164.970 192.051  0.00  0.00    -0.246 OA
ATOM     24  O   UNL     1     150.111 165.842 190.127  0.00  0.00    -0.457 OA
ATOM     25  C   UNL     1     149.755 164.550 189.557  0.00  0.00    +0.114 C 
ATOM     26  C   UNL     1     148.376 164.147 190.195  0.00  0.00    +0.012 C 
ATOM     27  C   UNL     1     147.874 162.762 189.831  0.00  0.00    -0.079 C 
ATOM     28  C   UNL     1     146.604 162.434 189.527  0.00  0.00    -0.059 C 
ATOM     29  C   UNL     1     146.053 161.080 189.150  0.00  0.00    +0.079 C 
ATOM     30  C   UNL     1     145.376 161.073 187.760  0.00  0.00    +0.004 C 
ATOM     31  C   UNL     1     144.169 162.035 187.651  0.00  0.00    +0.067 C 
ATOM     32  H   UNL     1     145.538 163.688 187.276  0.00  0.00    +0.037 HD
ATOM     33  H   UNL     1     142.617 164.443 186.712  0.00  0.00    +0.057 HD
ATOM     34  H   UNL     1     144.652 165.368 188.817  0.00  0.00    +0.059 HD
ATOM     35  H   UNL     1     142.200 166.779 187.693  0.00  0.00    +0.064 HD
ATOM     36  H   UNL     1     143.827 167.323 190.235  0.00  0.00    +0.032 HD
ATOM     37  H   UNL     1     142.468 168.242 189.648  0.00  0.00    +0.032 HD
ATOM     38  H   UNL     1     144.222 168.168 187.411  0.00  0.00    +0.060 HD
ATOM     39  H   UNL     1     144.764 170.573 187.984  0.00  0.00    +0.036 HD
ATOM     40  H   UNL     1     143.165 170.024 190.526  0.00  0.00    +0.074 HD
ATOM     41  H   UNL     1     145.756 169.886 190.652  0.00  0.00    +0.035 HD
ATOM     42  H   UNL     1     144.882 170.882 191.803  0.00  0.00    +0.035 HD
ATOM     43  H   UNL     1     145.826 173.939 189.460  0.00  0.00    +0.069 HD
ATOM     44  H   UNL     1     147.882 171.217 190.189  0.00  0.00    +0.034 HD
ATOM     45  H   UNL     1     147.842 172.969 190.273  0.00  0.00    +0.034 HD
ATOM     46  H   UNL     1     147.098 171.239 192.701  0.00  0.00    +0.060 HD
ATOM     47  H   UNL     1     149.724 172.670 192.028  0.00  0.00    +0.034 HD
ATOM     48  H   UNL     1     149.358 172.012 193.602  0.00  0.00    +0.034 HD
ATOM     49  H   UNL     1     148.070 169.470 191.815  0.00  0.00    +0.062 HD
ATOM     50  H   UNL     1     149.185 167.937 190.343  0.00  0.00    +0.062 HD
ATOM     51  H   UNL     1     150.794 167.437 192.934  0.00  0.00    +0.069 HD
ATOM     52  H   UNL     1     150.524 163.821 189.836  0.00  0.00    +0.074 HD
ATOM     53  H   UNL     1     148.550 164.101 191.282  0.00  0.00    +0.038 HD
ATOM     54  H   UNL     1     148.619 161.969 189.854  0.00  0.00    +0.057 HD
ATOM     55  H   UNL     1     145.840 163.205 189.577  0.00  0.00    +0.059 HD
ATOM     56  H   UNL     1     145.309 160.813 189.915  0.00  0.00    +0.064 HD
ATOM     57  H   UNL     1     146.127 161.304 186.995  0.00  0.00    +0.032 HD
ATOM     58  H   UNL     1     145.069 160.046 187.527  0.00  0.00    +0.032 HD
ATOM     59  H   UNL     1     143.789 162.268 188.656  0.00  0.00    +0.060 HD
ENDROOT
BRANCH   1  60
ATOM     60  C   UNL     1     144.630 163.216 185.401  0.00  0.00    -0.057 C 
ATOM     61  H   UNL     1     144.171 162.282 185.056  0.00  0.00    +0.024 HD
ATOM     62  H   UNL     1     144.105 164.039 184.907  0.00  0.00    +0.024 HD
ATOM     63  H   UNL     1     145.667 163.226 185.052  0.00  0.00    +0.024 HD
ENDBRANCH   1  60
BRANCH  26  64
ATOM     64  C   UNL     1     147.322 165.254 190.010  0.00  0.00    -0.056 C 
ATOM     65  H   UNL     1     147.027 165.707 190.959  0.00  0.00    +0.024 HD
ATOM     66  H   UNL     1     147.688 166.055 189.358  0.00  0.00    +0.024 HD
ATOM     67  H   UNL     1     146.397 164.854 189.580  0.00  0.00    +0.024 HD
ENDBRANCH  26  64
BRANCH  18  68
ATOM     68  C   UNL     1     151.368 170.603 192.165  0.00  0.00    -0.043 C 
ATOM     69  H   UNL     1     151.769 169.932 192.931  0.00  0.00    +0.027 HD
ATOM     70  H   UNL     1     151.696 171.623 192.400  0.00  0.00    +0.027 HD
ATOM     71  H   UNL     1     151.824 170.325 191.212  0.00  0.00    +0.027 HD
ENDBRANCH  18  68
BRANCH   7  72
ATOM     72  C   UNL     1     142.688 170.280 187.672  0.00  0.00    -0.057 C 
ATOM     73  H   UNL     1     141.945 170.827 188.263  0.00  0.00    +0.023 HD
ATOM     74  H   UNL     1     142.898 170.859 186.768  0.00  0.00    +0.023 HD
ATOM     75  H   UNL     1     142.217 169.340 187.367  0.00  0.00    +0.023 HD
ENDBRANCH   7  72
BRANCH  25  76
ATOM     76  C   UNL     1     149.792 164.773 188.013  0.00  0.00    +0.020 C 
ATOM     77  H   UNL     1     148.753 164.720 187.655  0.00  0.00    +0.036 HD
BRANCH  76  78
ATOM     78  C   UNL     1     150.206 166.224 187.692  0.00  0.00    -0.057 C 
ATOM     79  H   UNL     1     150.785 166.259 186.763  0.00  0.00    +0.023 HD
ATOM     80  H   UNL     1     150.841 166.658 188.467  0.00  0.00    +0.023 HD
ATOM     81  H   UNL     1     149.336 166.869 187.548  0.00  0.00    +0.023 HD
ENDBRANCH  76  78
BRANCH  76  82
ATOM     82  C   UNL     1     150.581 163.721 187.188  0.00  0.00    +0.067 C 
ATOM     83  H   UNL     1     151.508 164.205 186.863  0.00  0.00    +0.060 HD
BRANCH  82  84
ATOM     84  C   UNL     1     149.898 163.116 185.919  0.00  0.00    -0.017 C 
ATOM     85  H   UNL     1     150.519 162.293 185.554  0.00  0.00    +0.032 HD
BRANCH  84  86
ATOM     86  C   UNL     1     148.554 162.506 186.362  0.00  0.00    -0.060 C 
ATOM     87  H   UNL     1     148.247 161.695 185.697  0.00  0.00    +0.023 HD
ATOM     88  H   UNL     1     148.609 162.104 187.378  0.00  0.00    +0.023 HD
ATOM     89  H   UNL     1     147.753 163.247 186.324  0.00  0.00    +0.023 HD
ENDBRANCH  84  86
BRANCH  84  90
ATOM     90  C   UNL     1     149.695 164.134 184.766  0.00  0.00    -0.041 C 
ATOM     91  H   UNL     1     150.188 163.759 183.865  0.00  0.00    +0.027 HD
ATOM     92  H   UNL     1     150.202 165.069 185.031  0.00  0.00    +0.027 HD
BRANCH  90  93
ATOM     93  C   UNL     1     148.258 164.506 184.395  0.00  0.00    +0.007 C 
ATOM     94  H   UNL     1     147.632 164.313 185.280  0.00  0.00    +0.034 HD
ATOM     95  H   UNL     1     147.820 163.887 183.607  0.00  0.00    +0.034 HD
BRANCH  93  96
ATOM     96  C   UNL     1     148.049 165.973 184.064  0.00  0.00    +0.139 C 
ATOM     97  O   UNL     1     148.495 166.426 183.006  0.00  0.00    -0.297 OA
BRANCH  96  98
ATOM     98  C   UNL     1     147.318 166.846 185.081  0.00  0.00    +0.041 C 
ATOM     99  H   UNL     1     148.029 167.589 185.456  0.00  0.00    +0.040 HD
BRANCH  98 100
ATOM    100  C   UNL     1     146.893 165.970 186.259  0.00  0.00    -0.053 C 
ATOM    101  H   UNL     1     145.950 166.306 186.698  0.00  0.00    +0.024 HD
ATOM    102  H   UNL     1     147.661 165.979 187.040  0.00  0.00    +0.024 HD
ATOM    103  H   UNL     1     146.750 164.933 185.941  0.00  0.00    +0.024 HD
ENDBRANCH  98 100
BRANCH  98 104
ATOM    104  C   UNL     1     146.121 167.612 184.460  0.00  0.00    +0.071 C 
ATOM    105  H   UNL     1     145.465 167.904 185.293  0.00  0.00    +0.061 HD
BRANCH 104 106
ATOM    106  C   UNL     1     146.541 168.887 183.690  0.00  0.00    -0.006 C 
ATOM    107  H   UNL     1     147.607 168.845 183.432  0.00  0.00    +0.033 HD
ATOM    108  H   UNL     1     146.027 168.915 182.720  0.00  0.00    +0.033 HD
BRANCH 106 109
ATOM    109  C   UNL     1     146.270 170.162 184.450  0.00  0.00    -0.067 C 
ATOM    110  C   UNL     1     146.496 171.381 183.939  0.00  0.00    -0.005 C 
ATOM    111  H   UNL     1     145.879 170.035 185.452  0.00  0.00    +0.059 HD
ATOM    112  H   UNL     1     146.910 171.454 182.932  0.00  0.00    +0.078 HD
BRANCH 110 113
ATOM    113  N   UNL     1     146.250 172.606 184.540  0.00  0.00    -0.284 N 
ATOM    114  C   UNL     1     146.075 172.813 185.906  0.00  0.00    +0.206 C 
ATOM    115  O   UNL     1     145.815 173.883 186.447  0.00  0.00    -0.279 OA
ATOM    116  H   UNL     1     146.188 171.905 186.514  0.00  0.00    +0.126 HD
BRANCH 113 117
ATOM    117  C   UNL     1     146.145 173.768 183.665  0.00  0.00    +0.007 C 
ATOM    118  H   UNL     1     146.768 174.573 184.073  0.00  0.00    +0.043 HD
ATOM    119  H   UNL     1     146.498 173.503 182.662  0.00  0.00    +0.043 HD
ATOM    120  H   UNL     1     145.117 174.135 183.583  0.00  0.00    +0.043 HD
ENDBRANCH 113 117
ENDBRANCH 110 113
ENDBRANCH 106 109
ENDBRANCH 104 106
BRANCH 104 121
ATOM    121  O   UNL     1     145.386 166.734 183.599  0.00  0.00    -0.379 OA
BRANCH 121 122
ATOM    122  C   UNL     1     144.993 167.323 182.369  0.00  0.00    +0.037 C 
ATOM    123  H   UNL     1     143.979 167.728 182.426  0.00  0.00    +0.052 HD
ATOM    124  H   UNL     1     145.061 166.594 181.558  0.00  0.00    +0.052 HD
ATOM    125  H   UNL     1     145.680 168.146 182.150  0.00  0.00    +0.052 HD
ENDBRANCH 121 122
ENDBRANCH 104 121
ENDBRANCH  98 104
ENDBRANCH  96  98
ENDBRANCH  93  96
ENDBRANCH  90  93
ENDBRANCH  84  90
ENDBRANCH  82  84
BRANCH  82 126
ATOM    126  O   UNL     1     150.947 162.626 188.051  0.00  0.00    -0.379 OA
BRANCH 126 127
ATOM    127  C   UNL     1     152.297 162.214 187.899  0.00  0.00    +0.037 C 
ATOM    128  H   UNL     1     152.689 162.583 186.947  0.00  0.00    +0.052 HD
ATOM    129  H   UNL     1     152.916 162.570 188.729  0.00  0.00    +0.052 HD
ATOM    130  H   UNL     1     152.323 161.120 187.884  0.00  0.00    +0.052 HD
ENDBRANCH 126 127
ENDBRANCH  82 126
ENDBRANCH  76  82
ENDBRANCH  25  76
BRANCH  31 131
ATOM    131  O   UNL     1     143.109 161.399 186.909  0.00  0.00    -0.379 OA
BRANCH 131 132
ATOM    132  C   UNL     1     143.437 160.082 186.483  0.00  0.00    +0.037 C 
ATOM    133  H   UNL     1     144.260 160.111 185.760  0.00  0.00    +0.052 HD
ATOM    134  H   UNL     1     142.571 159.581 186.045  0.00  0.00    +0.052 HD
ATOM    135  H   UNL     1     143.761 159.512 187.356  0.00  0.00    +0.052 HD
ENDBRANCH 131 132
ENDBRANCH  31 131
BRANCH  29 136
ATOM    136  O   UNL     1     147.119 160.124 189.160  0.00  0.00    -0.376 OA
BRANCH 136 137
ATOM    137  C   UNL     1     146.948 159.128 190.162  0.00  0.00    +0.037 C 
ATOM    138  H   UNL     1     147.763 159.163 190.891  0.00  0.00    +0.052 HD
ATOM    139  H   UNL     1     146.004 159.322 190.679  0.00  0.00    +0.052 HD
ATOM    140  H   UNL     1     146.889 158.132 189.707  0.00  0.00    +0.052 HD
ENDBRANCH 136 137
ENDBRANCH  29 136
BRANCH  16 141
ATOM    141  O   UNL     1     147.257 173.309 192.750  0.00  0.00    -0.379 OA
BRANCH 141 142
ATOM    142  C   UNL     1     147.893 173.640 193.978  0.00  0.00    +0.037 C 
ATOM    143  H   UNL     1     148.925 173.284 193.935  0.00  0.00    +0.052 HD
ATOM    144  H   UNL     1     147.902 174.726 194.110  0.00  0.00    +0.052 HD
ATOM    145  H   UNL     1     147.394 173.163 194.828  0.00  0.00    +0.052 HD
ENDBRANCH 141 142
ENDBRANCH  16 141
BRANCH   6 146
ATOM    146  O   UNL     1     145.622 168.256 188.927  0.00  0.00    -0.379 OA
BRANCH 146 147
ATOM    147  C   UNL     1     146.620 168.937 188.176  0.00  0.00    +0.037 C 
ATOM    148  H   UNL     1     147.081 169.683 188.826  0.00  0.00    +0.052 HD
ATOM    149  H   UNL     1     147.395 168.235 187.850  0.00  0.00    +0.052 HD
ATOM    150  H   UNL     1     146.188 169.450 187.314  0.00  0.00    +0.052 HD
ENDBRANCH 146 147
ENDBRANCH   6 146
BRANCH   4 151
ATOM    151  O   UNL     1     141.822 165.823 189.524  0.00  0.00    -0.376 OA
BRANCH 151 152
ATOM    152  C   UNL     1     142.324 165.816 190.854  0.00  0.00    +0.037 C 
ATOM    153  H   UNL     1     143.400 165.613 190.812  0.00  0.00    +0.052 HD
ATOM    154  H   UNL     1     141.846 165.031 191.449  0.00  0.00    +0.052 HD
ATOM    155  H   UNL     1     142.175 166.792 191.324  0.00  0.00    +0.052 HD
ENDBRANCH 151 152
ENDBRANCH   4 151
TORSDOF 33
ENDMDL
MODEL 7
REMARK VINA RESULT:      -4.6      4.201      8.501
REMARK  Name = Reidispongiolide A_conf1
REMARK  33 active torsions:
REMARK  status: ('A' for Active; 'I' for Inactive)
REMARK    1  A    between atoms: C_1  and  C_2
REMARK    2  A    between atoms: C_5  and  O_67
REMARK    3  A    between atoms: C_7  and  O_65
REMARK    4  A    between atoms: C_8  and  C_64
REMARK    5  A    between atoms: C_17  and  O_62
REMARK    6  A    between atoms: C_19  and  C_61
REMARK    7  A    between atoms: C_26  and  C_38
REMARK    8  A    between atoms: C_27  and  C_37
REMARK    9  A    between atoms: C_30  and  O_35
REMARK   10  A    between atoms: C_32  and  O_33
REMARK   11  A    between atoms: O_33  and  C_34
REMARK   12  A    between atoms: O_35  and  C_36
REMARK   13  A    between atoms: C_38  and  C_39
REMARK   14  A    between atoms: C_38  and  C_40
REMARK   15  A    between atoms: C_40  and  C_41
REMARK   16  A    between atoms: C_40  and  O_59
REMARK   17  A    between atoms: C_41  and  C_42
REMARK   18  A    between atoms: C_41  and  C_43
REMARK   19  A    between atoms: C_43  and  C_44
REMARK   20  A    between atoms: C_44  and  C_45
REMARK   21  A    between atoms: C_45  and  C_47
REMARK   22  A    between atoms: C_47  and  C_48
REMARK   23  A    between atoms: C_47  and  C_49
REMARK   24  A    between atoms: C_49  and  C_50
REMARK   25  A    between atoms: C_49  and  O_57
REMARK   26  A    between atoms: C_50  and  C_51
REMARK   27  A    between atoms: C_52  and  N_53
REMARK   28  A    between atoms: N_53  and  C_54
REMARK   29  A    between atoms: O_57  and  C_58
REMARK   30  A    between atoms: O_59  and  C_60
REMARK   31  A    between atoms: O_62  and  C_63
REMARK   32  A    between atoms: O_65  and  C_66
REMARK   33  A    between atoms: O_67  and  C_68
REMARK                            x       y       z     vdW  Elec       q    Type
REMARK                         _______ _______ _______ _____ _____    ______ ____
ROOT
ATOM      1  C   UNL     1     146.904 159.977 189.863  0.00  0.00    +0.001 C 
ATOM      2  C   UNL     1     147.874 158.957 189.294  0.00  0.00    -0.080 C 
ATOM      3  C   UNL     1     149.038 159.270 188.701  0.00  0.00    -0.059 C 
ATOM      4  C   UNL     1     149.970 158.259 188.091  0.00  0.00    +0.079 C 
ATOM      5  C   UNL     1     151.421 158.754 187.944  0.00  0.00    +0.004 C 
ATOM      6  C   UNL     1     152.152 159.013 189.278  0.00  0.00    +0.067 C 
ATOM      7  C   UNL     1     153.563 158.343 189.348  0.00  0.00    +0.020 C 
ATOM      8  C   UNL     1     154.514 158.661 188.150  0.00  0.00    +0.112 C 
ATOM      9  C   UNL     1     155.069 160.091 188.069  0.00  0.00    +0.006 C 
ATOM     10  C   UNL     1     156.257 160.291 188.973  0.00  0.00    -0.057 C 
ATOM     11  C   UNL     1     156.962 159.230 189.393  0.00  0.00    +0.022 C 
ATOM     12  C   UNL     1     156.682 157.864 188.927  0.00  0.00    +0.332 C 
ATOM     13  O   UNL     1     157.422 156.935 189.223  0.00  0.00    -0.246 OA
ATOM     14  O   UNL     1     155.604 157.706 188.122  0.00  0.00    -0.458 OA
ATOM     15  C   UNL     1     156.635 161.706 189.363  0.00  0.00    -0.004 C 
ATOM     16  C   UNL     1     157.069 162.583 188.159  0.00  0.00    +0.066 C 
ATOM     17  C   UNL     1     157.218 164.076 188.557  0.00  0.00    -0.005 C 
ATOM     18  C   UNL     1     155.974 164.860 188.969  0.00  0.00    -0.070 C 
ATOM     19  C   UNL     1     154.730 164.399 188.753  0.00  0.00    -0.062 C 
ATOM     20  C   UNL     1     153.471 164.931 189.199  0.00  0.00    -0.055 C 
ATOM     21  C   UNL     1     152.908 166.098 188.849  0.00  0.00    +0.023 C 
ATOM     22  C   UNL     1     151.493 166.397 189.182  0.00  0.00    +0.332 C 
ATOM     23  O   UNL     1     150.852 167.285 188.646  0.00  0.00    -0.246 OA
ATOM     24  O   UNL     1     151.017 165.485 190.059  0.00  0.00    -0.457 OA
ATOM     25  C   UNL     1     149.579 165.282 190.172  0.00  0.00    +0.114 C 
ATOM     26  C   UNL     1     149.146 164.448 188.912  0.00  0.00    +0.012 C 
ATOM     27  C   UNL     1     147.652 164.228 188.764  0.00  0.00    -0.079 C 
ATOM     28  C   UNL     1     147.054 163.082 188.387  0.00  0.00    -0.059 C 
ATOM     29  C   UNL     1     145.578 162.804 188.232  0.00  0.00    +0.079 C 
ATOM     30  C   UNL     1     145.087 161.645 189.130  0.00  0.00    +0.004 C 
ATOM     31  C   UNL     1     145.776 160.292 188.830  0.00  0.00    +0.067 C 
ATOM     32  H   UNL     1     147.465 160.895 190.068  0.00  0.00    +0.037 HD
ATOM     33  H   UNL     1     147.559 157.915 189.340  0.00  0.00    +0.057 HD
ATOM     34  H   UNL     1     149.333 160.310 188.602  0.00  0.00    +0.059 HD
ATOM     35  H   UNL     1     149.973 157.335 188.688  0.00  0.00    +0.064 HD
ATOM     36  H   UNL     1     151.438 159.654 187.316  0.00  0.00    +0.032 HD
ATOM     37  H   UNL     1     151.933 157.984 187.357  0.00  0.00    +0.032 HD
ATOM     38  H   UNL     1     151.542 158.616 190.101  0.00  0.00    +0.060 HD
ATOM     39  H   UNL     1     154.068 158.687 190.259  0.00  0.00    +0.036 HD
ATOM     40  H   UNL     1     153.974 158.481 187.215  0.00  0.00    +0.074 HD
ATOM     41  H   UNL     1     154.295 160.830 188.277  0.00  0.00    +0.035 HD
ATOM     42  H   UNL     1     155.410 160.276 187.040  0.00  0.00    +0.035 HD
ATOM     43  H   UNL     1     157.832 159.328 190.033  0.00  0.00    +0.069 HD
ATOM     44  H   UNL     1     155.777 162.142 189.886  0.00  0.00    +0.034 HD
ATOM     45  H   UNL     1     157.457 161.678 190.091  0.00  0.00    +0.034 HD
ATOM     46  H   UNL     1     156.348 162.483 187.339  0.00  0.00    +0.060 HD
ATOM     47  H   UNL     1     157.949 164.120 189.379  0.00  0.00    +0.034 HD
ATOM     48  H   UNL     1     157.690 164.620 187.728  0.00  0.00    +0.034 HD
ATOM     49  H   UNL     1     154.587 163.436 188.261  0.00  0.00    +0.062 HD
ATOM     50  H   UNL     1     152.914 164.211 189.797  0.00  0.00    +0.062 HD
ATOM     51  H   UNL     1     153.399 166.811 188.198  0.00  0.00    +0.069 HD
ATOM     52  H   UNL     1     149.086 166.261 190.160  0.00  0.00    +0.074 HD
ATOM     53  H   UNL     1     149.424 165.058 188.038  0.00  0.00    +0.038 HD
ATOM     54  H   UNL     1     147.025 165.097 188.953  0.00  0.00    +0.057 HD
ATOM     55  H   UNL     1     147.676 162.231 188.121  0.00  0.00    +0.059 HD
ATOM     56  H   UNL     1     145.412 162.541 187.177  0.00  0.00    +0.064 HD
ATOM     57  H   UNL     1     145.221 161.925 190.182  0.00  0.00    +0.032 HD
ATOM     58  H   UNL     1     144.000 161.554 189.017  0.00  0.00    +0.032 HD
ATOM     59  H   UNL     1     146.208 160.312 187.819  0.00  0.00    +0.060 HD
ENDROOT
BRANCH   1  60
ATOM     60  C   UNL     1     146.365 159.458 191.202  0.00  0.00    -0.057 C 
ATOM     61  H   UNL     1     145.909 158.467 191.104  0.00  0.00    +0.024 HD
ATOM     62  H   UNL     1     147.172 159.375 191.936  0.00  0.00    +0.024 HD
ATOM     63  H   UNL     1     145.608 160.133 191.615  0.00  0.00    +0.024 HD
ENDBRANCH   1  60
BRANCH  26  64
ATOM     64  C   UNL     1     149.977 163.159 188.774  0.00  0.00    -0.056 C 
ATOM     65  H   UNL     1     151.003 163.360 188.459  0.00  0.00    +0.024 HD
ATOM     66  H   UNL     1     150.022 162.605 189.719  0.00  0.00    +0.024 HD
ATOM     67  H   UNL     1     149.561 162.499 188.005  0.00  0.00    +0.024 HD
ENDBRANCH  26  64
BRANCH  18  68
ATOM     68  C   UNL     1     156.289 166.157 189.669  0.00  0.00    -0.043 C 
ATOM     69  H   UNL     1     155.408 166.507 190.218  0.00  0.00    +0.027 HD
ATOM     70  H   UNL     1     156.560 166.926 188.935  0.00  0.00    +0.027 HD
ATOM     71  H   UNL     1     157.113 166.080 190.381  0.00  0.00    +0.027 HD
ENDBRANCH  18  68
BRANCH   7  72
ATOM     72  C   UNL     1     153.370 156.825 189.524  0.00  0.00    -0.057 C 
ATOM     73  H   UNL     1     153.190 156.345 188.556  0.00  0.00    +0.023 HD
ATOM     74  H   UNL     1     154.247 156.355 189.979  0.00  0.00    +0.023 HD
ATOM     75  H   UNL     1     152.503 156.600 190.153  0.00  0.00    +0.023 HD
ENDBRANCH   7  72
BRANCH  25  76
ATOM     76  C   UNL     1     149.380 164.622 191.572  0.00  0.00    +0.020 C 
ATOM     77  H   UNL     1     148.824 163.687 191.411  0.00  0.00    +0.036 HD
BRANCH  76  78
ATOM     78  C   UNL     1     150.734 164.141 192.133  0.00  0.00    -0.057 C 
ATOM     79  H   UNL     1     151.338 163.687 191.339  0.00  0.00    +0.023 HD
ATOM     80  H   UNL     1     150.619 163.378 192.906  0.00  0.00    +0.023 HD
ATOM     81  H   UNL     1     151.318 164.969 192.541  0.00  0.00    +0.023 HD
ENDBRANCH  76  78
BRANCH  76  82
ATOM     82  C   UNL     1     148.552 165.437 192.602  0.00  0.00    +0.067 C 
ATOM     83  H   UNL     1     147.973 164.714 193.185  0.00  0.00    +0.060 HD
BRANCH  82  84
ATOM     84  C   UNL     1     147.555 166.511 192.061  0.00  0.00    -0.017 C 
ATOM     85  H   UNL     1     147.446 166.365 190.982  0.00  0.00    +0.032 HD
BRANCH  84  86
ATOM     86  C   UNL     1     146.180 166.230 192.697  0.00  0.00    -0.060 C 
ATOM     87  H   UNL     1     146.007 165.157 192.812  0.00  0.00    +0.023 HD
ATOM     88  H   UNL     1     146.091 166.691 193.684  0.00  0.00    +0.023 HD
ATOM     89  H   UNL     1     145.370 166.600 192.065  0.00  0.00    +0.023 HD
ENDBRANCH  84  86
BRANCH  84  90
ATOM     90  C   UNL     1     148.001 167.974 192.320  0.00  0.00    -0.041 C 
ATOM     91  H   UNL     1     148.685 167.996 193.173  0.00  0.00    +0.027 HD
ATOM     92  H   UNL     1     147.121 168.561 192.613  0.00  0.00    +0.027 HD
BRANCH  90  93
ATOM     93  C   UNL     1     148.664 168.727 191.165  0.00  0.00    +0.007 C 
ATOM     94  H   UNL     1     148.040 168.570 190.272  0.00  0.00    +0.034 HD
ATOM     95  H   UNL     1     149.650 168.345 190.884  0.00  0.00    +0.034 HD
BRANCH  93  96
ATOM     96  C   UNL     1     148.736 170.233 191.350  0.00  0.00    +0.139 C 
ATOM     97  O   UNL     1     149.623 170.716 192.058  0.00  0.00    -0.297 OA
BRANCH  96  98
ATOM     98  C   UNL     1     147.675 171.095 190.670  0.00  0.00    +0.041 C 
ATOM     99  H   UNL     1     148.186 171.776 189.983  0.00  0.00    +0.040 HD
BRANCH  98 100
ATOM    100  C   UNL     1     146.980 171.942 191.735  0.00  0.00    -0.053 C 
ATOM    101  H   UNL     1     146.207 171.378 192.264  0.00  0.00    +0.024 HD
ATOM    102  H   UNL     1     146.515 172.823 191.280  0.00  0.00    +0.024 HD
ATOM    103  H   UNL     1     147.696 172.289 192.485  0.00  0.00    +0.024 HD
ENDBRANCH  98 100
BRANCH  98 104
ATOM    104  C   UNL     1     146.667 170.257 189.840  0.00  0.00    +0.071 C 
ATOM    105  H   UNL     1     147.023 169.217 189.865  0.00  0.00    +0.061 HD
BRANCH 104 106
ATOM    106  C   UNL     1     145.225 170.301 190.400  0.00  0.00    -0.006 C 
ATOM    107  H   UNL     1     145.199 170.847 191.351  0.00  0.00    +0.033 HD
ATOM    108  H   UNL     1     144.589 170.892 189.728  0.00  0.00    +0.033 HD
BRANCH 106 109
ATOM    109  C   UNL     1     144.620 168.933 190.602  0.00  0.00    -0.067 C 
ATOM    110  C   UNL     1     143.330 168.742 190.913  0.00  0.00    -0.005 C 
ATOM    111  H   UNL     1     145.300 168.099 190.484  0.00  0.00    +0.059 HD
ATOM    112  H   UNL     1     142.691 169.617 191.041  0.00  0.00    +0.078 HD
BRANCH 110 113
ATOM    113  N   UNL     1     142.675 167.532 191.088  0.00  0.00    -0.284 N 
ATOM    114  C   UNL     1     142.226 167.026 192.304  0.00  0.00    +0.206 C 
ATOM    115  O   UNL     1     141.684 165.940 192.480  0.00  0.00    -0.279 OA
ATOM    116  H   UNL     1     142.395 167.697 193.158  0.00  0.00    +0.126 HD
BRANCH 113 117
ATOM    117  C   UNL     1     142.461 166.714 189.900  0.00  0.00    +0.007 C 
ATOM    118  H   UNL     1     141.697 165.960 190.124  0.00  0.00    +0.043 HD
ATOM    119  H   UNL     1     142.118 167.350 189.075  0.00  0.00    +0.043 HD
ATOM    120  H   UNL     1     143.371 166.198 189.580  0.00  0.00    +0.043 HD
ENDBRANCH 113 117
ENDBRANCH 110 113
ENDBRANCH 106 109
ENDBRANCH 104 106
BRANCH 104 121
ATOM    121  O   UNL     1     146.683 170.703 188.478  0.00  0.00    -0.379 OA
BRANCH 121 122
ATOM    122  C   UNL     1     146.887 169.664 187.531  0.00  0.00    +0.037 C 
ATOM    123  H   UNL     1     146.183 168.843 187.682  0.00  0.00    +0.052 HD
ATOM    124  H   UNL     1     147.914 169.294 187.587  0.00  0.00    +0.052 HD
ATOM    125  H   UNL     1     146.725 170.077 186.532  0.00  0.00    +0.052 HD
ENDBRANCH 121 122
ENDBRANCH 104 121
ENDBRANCH  98 104
ENDBRANCH  96  98
ENDBRANCH  93  96
ENDBRANCH  90  93
ENDBRANCH  84  90
ENDBRANCH  82  84
BRANCH  82 126
ATOM    126  O   UNL     1     149.455 166.097 193.512  0.00  0.00    -0.379 OA
BRANCH 126 127
ATOM    127  C   UNL     1     149.146 165.870 194.878  0.00  0.00    +0.037 C 
ATOM    128  H   UNL     1     148.280 165.207 194.953  0.00  0.00    +0.052 HD
ATOM    129  H   UNL     1     150.001 165.443 195.412  0.00  0.00    +0.052 HD
ATOM    130  H   UNL     1     148.889 166.830 195.336  0.00  0.00    +0.052 HD
ENDBRANCH 126 127
ENDBRANCH  82 126
ENDBRANCH  76  82
ENDBRANCH  25  76
BRANCH  31 131
ATOM    131  O   UNL     1     144.801 159.232 188.880  0.00  0.00    -0.379 OA
BRANCH 131 132
ATOM    132  C   UNL     1     144.517 158.674 187.603  0.00  0.00    +0.037 C 
ATOM    133  H   UNL     1     144.757 157.605 187.594  0.00  0.00    +0.052 HD
ATOM    134  H   UNL     1     145.072 159.189 186.815  0.00  0.00    +0.052 HD
ATOM    135  H   UNL     1     143.449 158.792 187.409  0.00  0.00    +0.052 HD
ENDBRANCH 131 132
ENDBRANCH  31 131
BRANCH  29 136
ATOM    136  O   UNL     1     144.845 163.992 188.553  0.00  0.00    -0.376 OA
BRANCH 136 137
ATOM    137  C   UNL     1     144.116 164.499 187.441  0.00  0.00    +0.037 C 
ATOM    138  H   UNL     1     143.937 163.714 186.701  0.00  0.00    +0.052 HD
ATOM    139  H   UNL     1     143.153 164.868 187.804  0.00  0.00    +0.052 HD
ATOM    140  H   UNL     1     144.651 165.339 186.982  0.00  0.00    +0.052 HD
ENDBRANCH 136 137
ENDBRANCH  29 136
BRANCH  16 141
ATOM    141  O   UNL     1     158.353 162.093 187.721  0.00  0.00    -0.379 OA
BRANCH 141 142
ATOM    142  C   UNL     1     159.439 162.660 188.443  0.00  0.00    +0.037 C 
ATOM    143  H   UNL     1     160.013 161.845 188.892  0.00  0.00    +0.052 HD
ATOM    144  H   UNL     1     160.091 163.212 187.760  0.00  0.00    +0.052 HD
ATOM    145  H   UNL     1     159.087 163.321 189.242  0.00  0.00    +0.052 HD
ENDBRANCH 141 142
ENDBRANCH  16 141
BRANCH   6 146
ATOM    146  O   UNL     1     152.260 160.436 189.441  0.00  0.00    -0.379 OA
BRANCH 146 147
ATOM    147  C   UNL     1     152.014 160.872 190.773  0.00  0.00    +0.037 C 
ATOM    148  H   UNL     1     151.198 160.271 191.180  0.00  0.00    +0.052 HD
ATOM    149  H   UNL     1     152.902 160.716 191.395  0.00  0.00    +0.052 HD
ATOM    150  H   UNL     1     151.713 161.922 190.799  0.00  0.00    +0.052 HD
ENDBRANCH 146 147
ENDBRANCH   6 146
BRANCH   4 151
ATOM    151  O   UNL     1     149.499 158.010 186.758  0.00  0.00    -0.376 OA
BRANCH 151 152
ATOM    152  C   UNL     1     149.881 159.028 185.842  0.00  0.00    +0.037 C 
ATOM    153  H   UNL     1     149.272 158.922 184.938  0.00  0.00    +0.052 HD
ATOM    154  H   UNL     1     150.935 158.928 185.563  0.00  0.00    +0.052 HD
ATOM    155  H   UNL     1     149.695 160.017 186.270  0.00  0.00    +0.052 HD
ENDBRANCH 151 152
ENDBRANCH   4 151
TORSDOF 33
ENDMDL
MODEL 8
REMARK VINA RESULT:      -4.6      4.265     10.543
REMARK  Name = Reidispongiolide A_conf1
REMARK  33 active torsions:
REMARK  status: ('A' for Active; 'I' for Inactive)
REMARK    1  A    between atoms: C_1  and  C_2
REMARK    2  A    between atoms: C_5  and  O_67
REMARK    3  A    between atoms: C_7  and  O_65
REMARK    4  A    between atoms: C_8  and  C_64
REMARK    5  A    between atoms: C_17  and  O_62
REMARK    6  A    between atoms: C_19  and  C_61
REMARK    7  A    between atoms: C_26  and  C_38
REMARK    8  A    between atoms: C_27  and  C_37
REMARK    9  A    between atoms: C_30  and  O_35
REMARK   10  A    between atoms: C_32  and  O_33
REMARK   11  A    between atoms: O_33  and  C_34
REMARK   12  A    between atoms: O_35  and  C_36
REMARK   13  A    between atoms: C_38  and  C_39
REMARK   14  A    between atoms: C_38  and  C_40
REMARK   15  A    between atoms: C_40  and  C_41
REMARK   16  A    between atoms: C_40  and  O_59
REMARK   17  A    between atoms: C_41  and  C_42
REMARK   18  A    between atoms: C_41  and  C_43
REMARK   19  A    between atoms: C_43  and  C_44
REMARK   20  A    between atoms: C_44  and  C_45
REMARK   21  A    between atoms: C_45  and  C_47
REMARK   22  A    between atoms: C_47  and  C_48
REMARK   23  A    between atoms: C_47  and  C_49
REMARK   24  A    between atoms: C_49  and  C_50
REMARK   25  A    between atoms: C_49  and  O_57
REMARK   26  A    between atoms: C_50  and  C_51
REMARK   27  A    between atoms: C_52  and  N_53
REMARK   28  A    between atoms: N_53  and  C_54
REMARK   29  A    between atoms: O_57  and  C_58
REMARK   30  A    between atoms: O_59  and  C_60
REMARK   31  A    between atoms: O_62  and  C_63
REMARK   32  A    between atoms: O_65  and  C_66
REMARK   33  A    between atoms: O_67  and  C_68
REMARK                            x       y       z     vdW  Elec       q    Type
REMARK                         _______ _______ _______ _____ _____    ______ ____
ROOT
ATOM      1  C   UNL     1     149.109 161.597 187.392  0.00  0.00    +0.001 C 
ATOM      2  C   UNL     1     147.695 162.106 187.181  0.00  0.00    -0.080 C 
ATOM      3  C   UNL     1     147.129 163.088 187.901  0.00  0.00    -0.059 C 
ATOM      4  C   UNL     1     145.708 163.551 187.723  0.00  0.00    +0.079 C 
ATOM      5  C   UNL     1     145.442 164.970 188.258  0.00  0.00    +0.004 C 
ATOM      6  C   UNL     1     146.180 166.094 187.502  0.00  0.00    +0.067 C 
ATOM      7  C   UNL     1     145.245 167.276 187.086  0.00  0.00    +0.020 C 
ATOM      8  C   UNL     1     144.387 167.886 188.241  0.00  0.00    +0.112 C 
ATOM      9  C   UNL     1     145.139 168.702 189.303  0.00  0.00    +0.006 C 
ATOM     10  C   UNL     1     145.407 170.113 188.851  0.00  0.00    -0.057 C 
ATOM     11  C   UNL     1     144.668 170.652 187.870  0.00  0.00    +0.022 C 
ATOM     12  C   UNL     1     143.525 169.948 187.269  0.00  0.00    +0.332 C 
ATOM     13  O   UNL     1     142.789 170.513 186.470  0.00  0.00    -0.246 OA
ATOM     14  O   UNL     1     143.307 168.678 187.683  0.00  0.00    -0.458 OA
ATOM     15  C   UNL     1     146.502 170.897 189.548  0.00  0.00    -0.004 C 
ATOM     16  C   UNL     1     146.218 171.151 191.051  0.00  0.00    +0.066 C 
ATOM     17  C   UNL     1     147.456 171.741 191.780  0.00  0.00    -0.005 C 
ATOM     18  C   UNL     1     148.708 170.879 191.929  0.00  0.00    -0.070 C 
ATOM     19  C   UNL     1     148.701 169.555 191.696  0.00  0.00    -0.062 C 
ATOM     20  C   UNL     1     149.802 168.633 191.650  0.00  0.00    -0.055 C 
ATOM     21  C   UNL     1     150.608 168.271 192.662  0.00  0.00    +0.023 C 
ATOM     22  C   UNL     1     151.532 167.117 192.529  0.00  0.00    +0.332 C 
ATOM     23  O   UNL     1     152.056 166.567 193.483  0.00  0.00    -0.246 OA
ATOM     24  O   UNL     1     151.605 166.722 191.239  0.00  0.00    -0.457 OA
ATOM     25  C   UNL     1     152.051 165.371 190.928  0.00  0.00    +0.114 C 
ATOM     26  C   UNL     1     150.847 164.416 191.259  0.00  0.00    +0.012 C 
ATOM     27  C   UNL     1     151.141 162.934 191.124  0.00  0.00    -0.079 C 
ATOM     28  C   UNL     1     150.322 162.010 190.586  0.00  0.00    -0.059 C 
ATOM     29  C   UNL     1     150.565 160.530 190.418  0.00  0.00    +0.079 C 
ATOM     30  C   UNL     1     150.482 160.071 188.944  0.00  0.00    +0.004 C 
ATOM     31  C   UNL     1     149.102 160.320 188.291  0.00  0.00    +0.067 C 
ATOM     32  H   UNL     1     149.677 162.385 187.899  0.00  0.00    +0.037 HD
ATOM     33  H   UNL     1     147.107 161.591 186.421  0.00  0.00    +0.057 HD
ATOM     34  H   UNL     1     147.690 163.568 188.697  0.00  0.00    +0.059 HD
ATOM     35  H   UNL     1     145.428 163.518 186.660  0.00  0.00    +0.064 HD
ATOM     36  H   UNL     1     145.680 165.008 189.329  0.00  0.00    +0.032 HD
ATOM     37  H   UNL     1     144.356 165.103 188.200  0.00  0.00    +0.032 HD
ATOM     38  H   UNL     1     146.629 165.674 186.590  0.00  0.00    +0.060 HD
ATOM     39  H   UNL     1     145.865 168.087 186.683  0.00  0.00    +0.036 HD
ATOM     40  H   UNL     1     143.880 167.074 188.770  0.00  0.00    +0.074 HD
ATOM     41  H   UNL     1     146.064 168.208 189.602  0.00  0.00    +0.035 HD
ATOM     42  H   UNL     1     144.512 168.764 190.205  0.00  0.00    +0.035 HD
ATOM     43  H   UNL     1     144.817 171.668 187.522  0.00  0.00    +0.069 HD
ATOM     44  H   UNL     1     147.439 170.347 189.405  0.00  0.00    +0.034 HD
ATOM     45  H   UNL     1     146.634 171.865 189.047  0.00  0.00    +0.034 HD
ATOM     46  H   UNL     1     145.904 170.221 191.539  0.00  0.00    +0.060 HD
ATOM     47  H   UNL     1     147.728 172.668 191.253  0.00  0.00    +0.034 HD
ATOM     48  H   UNL     1     147.156 172.063 192.786  0.00  0.00    +0.034 HD
ATOM     49  H   UNL     1     147.774 169.063 191.397  0.00  0.00    +0.062 HD
ATOM     50  H   UNL     1     149.867 168.125 190.689  0.00  0.00    +0.062 HD
ATOM     51  H   UNL     1     150.529 168.700 193.652  0.00  0.00    +0.069 HD
ATOM     52  H   UNL     1     152.908 165.130 191.567  0.00  0.00    +0.074 HD
ATOM     53  H   UNL     1     150.637 164.560 192.331  0.00  0.00    +0.038 HD
ATOM     54  H   UNL     1     152.092 162.602 191.534  0.00  0.00    +0.057 HD
ATOM     55  H   UNL     1     149.338 162.321 190.245  0.00  0.00    +0.059 HD
ATOM     56  H   UNL     1     149.791 160.011 191.002  0.00  0.00    +0.064 HD
ATOM     57  H   UNL     1     151.278 160.563 188.371  0.00  0.00    +0.032 HD
ATOM     58  H   UNL     1     150.741 159.006 188.896  0.00  0.00    +0.032 HD
ATOM     59  H   UNL     1     148.337 160.434 189.073  0.00  0.00    +0.060 HD
ENDROOT
BRANCH   1  60
ATOM     60  C   UNL     1     149.765 161.365 186.025  0.00  0.00    -0.057 C 
ATOM     61  H   UNL     1     150.401 162.207 185.726  0.00  0.00    +0.024 HD
ATOM     62  H   UNL     1     150.396 160.472 186.047  0.00  0.00    +0.024 HD
ATOM     63  H   UNL     1     149.014 161.222 185.242  0.00  0.00    +0.024 HD
ENDBRANCH   1  60
BRANCH  26  64
ATOM     64  C   UNL     1     149.560 164.860 190.540  0.00  0.00    -0.056 C 
ATOM     65  H   UNL     1     149.743 165.656 189.817  0.00  0.00    +0.024 HD
ATOM     66  H   UNL     1     149.088 164.027 190.006  0.00  0.00    +0.024 HD
ATOM     67  H   UNL     1     148.832 165.273 191.249  0.00  0.00    +0.024 HD
ENDBRANCH  26  64
BRANCH  18  68
ATOM     68  C   UNL     1     149.933 171.667 192.315  0.00  0.00    -0.043 C 
ATOM     69  H   UNL     1     150.834 171.085 192.094  0.00  0.00    +0.027 HD
ATOM     70  H   UNL     1     149.922 171.881 193.390  0.00  0.00    +0.027 HD
ATOM     71  H   UNL     1     150.021 172.621 191.792  0.00  0.00    +0.027 HD
ENDBRANCH  18  68
BRANCH   7  72
ATOM     72  C   UNL     1     144.359 166.805 185.917  0.00  0.00    -0.057 C 
ATOM     73  H   UNL     1     144.062 167.654 185.293  0.00  0.00    +0.023 HD
ATOM     74  H   UNL     1     144.878 166.080 185.283  0.00  0.00    +0.023 HD
ATOM     75  H   UNL     1     143.436 166.339 186.275  0.00  0.00    +0.023 HD
ENDBRANCH   7  72
BRANCH  25  76
ATOM     76  C   UNL     1     152.522 165.442 189.441  0.00  0.00    +0.020 C 
ATOM     77  H   UNL     1     151.913 164.722 188.876  0.00  0.00    +0.036 HD
BRANCH  76  78
ATOM     78  C   UNL     1     152.136 166.801 188.822  0.00  0.00    -0.057 C 
ATOM     79  H   UNL     1     151.050 166.941 188.856  0.00  0.00    +0.023 HD
ATOM     80  H   UNL     1     152.424 166.878 187.771  0.00  0.00    +0.023 HD
ATOM     81  H   UNL     1     152.581 167.634 189.370  0.00  0.00    +0.023 HD
ENDBRANCH  76  78
BRANCH  76  82
ATOM     82  C   UNL     1     154.001 165.051 189.172  0.00  0.00    +0.067 C 
ATOM     83  H   UNL     1     154.394 164.638 190.107  0.00  0.00    +0.060 HD
BRANCH  82  84
ATOM     84  C   UNL     1     154.984 166.172 188.704  0.00  0.00    -0.017 C 
ATOM     85  H   UNL     1     154.510 167.142 188.884  0.00  0.00    +0.032 HD
BRANCH  84  86
ATOM     86  C   UNL     1     156.231 166.102 189.606  0.00  0.00    -0.060 C 
ATOM     87  H   UNL     1     156.130 166.757 190.476  0.00  0.00    +0.023 HD
ATOM     88  H   UNL     1     156.409 165.086 189.970  0.00  0.00    +0.023 HD
ATOM     89  H   UNL     1     157.122 166.443 189.074  0.00  0.00    +0.023 HD
ENDBRANCH  84  86
BRANCH  84  90
ATOM     90  C   UNL     1     155.374 166.083 187.205  0.00  0.00    -0.041 C 
ATOM     91  H   UNL     1     155.071 165.108 186.811  0.00  0.00    +0.027 HD
ATOM     92  H   UNL     1     156.468 166.123 187.125  0.00  0.00    +0.027 HD
BRANCH  90  93
ATOM     93  C   UNL     1     154.828 167.160 186.266  0.00  0.00    +0.007 C 
ATOM     94  H   UNL     1     155.363 168.095 186.496  0.00  0.00    +0.034 HD
ATOM     95  H   UNL     1     153.772 167.401 186.419  0.00  0.00    +0.034 HD
BRANCH  93  96
ATOM     96  C   UNL     1     155.081 166.902 184.791  0.00  0.00    +0.139 C 
ATOM     97  O   UNL     1     154.770 165.812 184.303  0.00  0.00    -0.297 OA
BRANCH  96  98
ATOM     98  C   UNL     1     155.749 168.003 183.970  0.00  0.00    +0.041 C 
ATOM     99  H   UNL     1     155.398 168.966 184.353  0.00  0.00    +0.040 HD
BRANCH  98 100
ATOM    100  C   UNL     1     155.283 167.880 182.520  0.00  0.00    -0.053 C 
ATOM    101  H   UNL     1     155.361 168.830 181.985  0.00  0.00    +0.024 HD
ATOM    102  H   UNL     1     154.240 167.546 182.480  0.00  0.00    +0.024 HD
ATOM    103  H   UNL     1     155.890 167.151 181.976  0.00  0.00    +0.024 HD
ENDBRANCH  98 100
BRANCH  98 104
ATOM    104  C   UNL     1     157.295 167.983 184.091  0.00  0.00    +0.071 C 
ATOM    105  H   UNL     1     157.694 168.127 183.076  0.00  0.00    +0.061 HD
BRANCH 104 106
ATOM    106  C   UNL     1     157.853 169.101 185.005  0.00  0.00    -0.006 C 
ATOM    107  H   UNL     1     157.792 168.800 186.059  0.00  0.00    +0.033 HD
ATOM    108  H   UNL     1     158.927 169.224 184.819  0.00  0.00    +0.033 HD
BRANCH 106 109
ATOM    109  C   UNL     1     157.148 170.424 184.831  0.00  0.00    -0.067 C 
ATOM    110  C   UNL     1     157.458 171.295 183.860  0.00  0.00    -0.005 C 
ATOM    111  H   UNL     1     156.367 170.636 185.550  0.00  0.00    +0.059 HD
ATOM    112  H   UNL     1     158.268 171.043 183.174  0.00  0.00    +0.078 HD
BRANCH 110 113
ATOM    113  N   UNL     1     156.853 172.515 183.598  0.00  0.00    -0.284 N 
ATOM    114  C   UNL     1     157.405 173.764 183.866  0.00  0.00    +0.206 C 
ATOM    115  O   UNL     1     156.865 174.849 183.679  0.00  0.00    -0.279 OA
ATOM    116  H   UNL     1     158.421 173.724 184.285  0.00  0.00    +0.126 HD
BRANCH 113 117
ATOM    117  C   UNL     1     155.517 172.483 183.013  0.00  0.00    +0.007 C 
ATOM    118  H   UNL     1     155.023 173.442 183.211  0.00  0.00    +0.043 HD
ATOM    119  H   UNL     1     155.595 172.327 181.931  0.00  0.00    +0.043 HD
ATOM    120  H   UNL     1     154.898 171.684 183.432  0.00  0.00    +0.043 HD
ENDBRANCH 113 117
ENDBRANCH 110 113
ENDBRANCH 106 109
ENDBRANCH 104 106
BRANCH 104 121
ATOM    121  O   UNL     1     157.722 166.699 184.561  0.00  0.00    -0.379 OA
BRANCH 121 122
ATOM    122  C   UNL     1     158.765 166.752 185.524  0.00  0.00    +0.037 C 
ATOM    123  H   UNL     1     158.446 167.277 186.428  0.00  0.00    +0.052 HD
ATOM    124  H   UNL     1     159.649 167.236 185.101  0.00  0.00    +0.052 HD
ATOM    125  H   UNL     1     159.031 165.727 185.796  0.00  0.00    +0.052 HD
ENDBRANCH 121 122
ENDBRANCH 104 121
ENDBRANCH  98 104
ENDBRANCH  96  98
ENDBRANCH  93  96
ENDBRANCH  90  93
ENDBRANCH  84  90
ENDBRANCH  82  84
BRANCH  82 126
ATOM    126  O   UNL     1     154.037 163.998 188.188  0.00  0.00    -0.379 OA
BRANCH 126 127
ATOM    127  C   UNL     1     152.767 163.413 187.943  0.00  0.00    +0.037 C 
ATOM    128  H   UNL     1     152.390 163.748 186.973  0.00  0.00    +0.052 HD
ATOM    129  H   UNL     1     152.822 162.320 187.974  0.00  0.00    +0.052 HD
ATOM    130  H   UNL     1     152.076 163.753 188.720  0.00  0.00    +0.052 HD
ENDBRANCH 126 127
ENDBRANCH  82 126
ENDBRANCH  76  82
ENDBRANCH  25  76
BRANCH  31 131
ATOM    131  O   UNL     1     148.741 159.189 187.475  0.00  0.00    -0.379 OA
BRANCH 131 132
ATOM    132  C   UNL     1     149.137 157.944 188.038  0.00  0.00    +0.037 C 
ATOM    133  H   UNL     1     148.968 157.132 187.323  0.00  0.00    +0.052 HD
ATOM    134  H   UNL     1     148.598 157.742 188.967  0.00  0.00    +0.052 HD
ATOM    135  H   UNL     1     150.205 157.995 188.260  0.00  0.00    +0.052 HD
ENDBRANCH 131 132
ENDBRANCH  31 131
BRANCH  29 136
ATOM    136  O   UNL     1     151.859 160.208 190.940  0.00  0.00    -0.376 OA
BRANCH 136 137
ATOM    137  C   UNL     1     152.044 158.807 191.112  0.00  0.00    +0.037 C 
ATOM    138  H   UNL     1     151.183 158.359 191.615  0.00  0.00    +0.052 HD
ATOM    139  H   UNL     1     152.152 158.353 190.124  0.00  0.00    +0.052 HD
ATOM    140  H   UNL     1     152.961 158.609 191.680  0.00  0.00    +0.052 HD
ENDBRANCH 136 137
ENDBRANCH  29 136
BRANCH  16 141
ATOM    141  O   UNL     1     145.142 172.108 191.123  0.00  0.00    -0.379 OA
BRANCH 141 142
ATOM    142  C   UNL     1     145.506 173.302 191.805  0.00  0.00    +0.037 C 
ATOM    143  H   UNL     1     146.305 173.063 192.512  0.00  0.00    +0.052 HD
ATOM    144  H   UNL     1     145.883 174.038 191.088  0.00  0.00    +0.052 HD
ATOM    145  H   UNL     1     144.660 173.719 192.361  0.00  0.00    +0.052 HD
ENDBRANCH 141 142
ENDBRANCH  16 141
BRANCH   6 146
ATOM    146  O   UNL     1     147.239 166.563 188.352  0.00  0.00    -0.379 OA
BRANCH 146 147
ATOM    147  C   UNL     1     148.223 167.325 187.662  0.00  0.00    +0.037 C 
ATOM    148  H   UNL     1     148.663 166.689 186.891  0.00  0.00    +0.052 HD
ATOM    149  H   UNL     1     147.760 168.190 187.176  0.00  0.00    +0.052 HD
ATOM    150  H   UNL     1     149.019 167.650 188.335  0.00  0.00    +0.052 HD
ENDBRANCH 146 147
ENDBRANCH   6 146
BRANCH   4 151
ATOM    151  O   UNL     1     144.884 162.671 188.502  0.00  0.00    -0.376 OA
BRANCH 151 152
ATOM    152  C   UNL     1     143.577 163.190 188.716  0.00  0.00    +0.037 C 
ATOM    153  H   UNL     1     142.931 162.831 187.908  0.00  0.00    +0.052 HD
ATOM    154  H   UNL     1     143.582 164.284 188.696  0.00  0.00    +0.052 HD
ATOM    155  H   UNL     1     143.174 162.830 189.667  0.00  0.00    +0.052 HD
ENDBRANCH 151 152
ENDBRANCH   4 151
TORSDOF 33
ENDMDL
MODEL 9
REMARK VINA RESULT:      -4.6      3.661      6.678
REMARK  Name = Reidispongiolide A_conf1
REMARK  33 active torsions:
REMARK  status: ('A' for Active; 'I' for Inactive)
REMARK    1  A    between atoms: C_1  and  C_2
REMARK    2  A    between atoms: C_5  and  O_67
REMARK    3  A    between atoms: C_7  and  O_65
REMARK    4  A    between atoms: C_8  and  C_64
REMARK    5  A    between atoms: C_17  and  O_62
REMARK    6  A    between atoms: C_19  and  C_61
REMARK    7  A    between atoms: C_26  and  C_38
REMARK    8  A    between atoms: C_27  and  C_37
REMARK    9  A    between atoms: C_30  and  O_35
REMARK   10  A    between atoms: C_32  and  O_33
REMARK   11  A    between atoms: O_33  and  C_34
REMARK   12  A    between atoms: O_35  and  C_36
REMARK   13  A    between atoms: C_38  and  C_39
REMARK   14  A    between atoms: C_38  and  C_40
REMARK   15  A    between atoms: C_40  and  C_41
REMARK   16  A    between atoms: C_40  and  O_59
REMARK   17  A    between atoms: C_41  and  C_42
REMARK   18  A    between atoms: C_41  and  C_43
REMARK   19  A    between atoms: C_43  and  C_44
REMARK   20  A    between atoms: C_44  and  C_45
REMARK   21  A    between atoms: C_45  and  C_47
REMARK   22  A    between atoms: C_47  and  C_48
REMARK   23  A    between atoms: C_47  and  C_49
REMARK   24  A    between atoms: C_49  and  C_50
REMARK   25  A    between atoms: C_49  and  O_57
REMARK   26  A    between atoms: C_50  and  C_51
REMARK   27  A    between atoms: C_52  and  N_53
REMARK   28  A    between atoms: N_53  and  C_54
REMARK   29  A    between atoms: O_57  and  C_58
REMARK   30  A    between atoms: O_59  and  C_60
REMARK   31  A    between atoms: O_62  and  C_63
REMARK   32  A    between atoms: O_65  and  C_66
REMARK   33  A    between atoms: O_67  and  C_68
REMARK                            x       y       z     vdW  Elec       q    Type
REMARK                         _______ _______ _______ _____ _____    ______ ____
ROOT
ATOM      1  C   UNL     1     144.575 166.244 189.898  0.00  0.00    +0.001 C 
ATOM      2  C   UNL     1     144.325 164.802 189.496  0.00  0.00    -0.080 C 
ATOM      3  C   UNL     1     145.253 163.997 188.953  0.00  0.00    -0.059 C 
ATOM      4  C   UNL     1     144.985 162.585 188.507  0.00  0.00    +0.079 C 
ATOM      5  C   UNL     1     146.249 161.710 188.408  0.00  0.00    +0.004 C 
ATOM      6  C   UNL     1     146.947 161.431 189.755  0.00  0.00    +0.067 C 
ATOM      7  C   UNL     1     147.266 159.918 189.983  0.00  0.00    +0.020 C 
ATOM      8  C   UNL     1     148.047 159.218 188.824  0.00  0.00    +0.112 C 
ATOM      9  C   UNL     1     149.518 159.620 188.641  0.00  0.00    +0.006 C 
ATOM     10  C   UNL     1     150.428 158.895 189.597  0.00  0.00    -0.057 C 
ATOM     11  C   UNL     1     150.024 157.749 190.164  0.00  0.00    +0.022 C 
ATOM     12  C   UNL     1     148.748 157.105 189.815  0.00  0.00    +0.332 C 
ATOM     13  O   UNL     1     148.465 155.996 190.248  0.00  0.00    -0.246 OA
ATOM     14  O   UNL     1     147.942 157.779 188.961  0.00  0.00    -0.458 OA
ATOM     15  C   UNL     1     151.799 159.482 189.871  0.00  0.00    -0.004 C 
ATOM     16  C   UNL     1     152.713 159.525 188.619  0.00  0.00    +0.066 C 
ATOM     17  C   UNL     1     154.008 160.341 188.878  0.00  0.00    -0.005 C 
ATOM     18  C   UNL     1     153.899 161.843 189.130  0.00  0.00    -0.070 C 
ATOM     19  C   UNL     1     152.773 162.534 188.879  0.00  0.00    -0.062 C 
ATOM     20  C   UNL     1     152.456 163.901 189.187  0.00  0.00    -0.055 C 
ATOM     21  C   UNL     1     153.033 165.007 188.689  0.00  0.00    +0.023 C 
ATOM     22  C   UNL     1     152.430 166.347 188.898  0.00  0.00    +0.332 C 
ATOM     23  O   UNL     1     152.732 167.326 188.237  0.00  0.00    -0.246 OA
ATOM     24  O   UNL     1     151.451 166.279 189.826  0.00  0.00    -0.457 OA
ATOM     25  C   UNL     1     150.427 167.314 189.864  0.00  0.00    +0.114 C 
ATOM     26  C   UNL     1     149.452 167.021 188.665  0.00  0.00    +0.012 C 
ATOM     27  C   UNL     1     148.371 168.061 188.442  0.00  0.00    -0.079 C 
ATOM     28  C   UNL     1     147.082 167.812 188.140  0.00  0.00    -0.059 C 
ATOM     29  C   UNL     1     145.966 168.803 187.916  0.00  0.00    +0.079 C 
ATOM     30  C   UNL     1     144.781 168.602 188.888  0.00  0.00    +0.004 C 
ATOM     31  C   UNL     1     144.106 167.215 188.768  0.00  0.00    +0.067 C 
ATOM     32  H   UNL     1     145.652 166.368 190.049  0.00  0.00    +0.037 HD
ATOM     33  H   UNL     1     143.306 164.436 189.623  0.00  0.00    +0.057 HD
ATOM     34  H   UNL     1     146.255 164.371 188.772  0.00  0.00    +0.059 HD
ATOM     35  H   UNL     1     144.274 162.098 189.190  0.00  0.00    +0.064 HD
ATOM     36  H   UNL     1     146.953 162.164 187.698  0.00  0.00    +0.032 HD
ATOM     37  H   UNL     1     145.921 160.779 187.933  0.00  0.00    +0.032 HD
ATOM     38  H   UNL     1     146.294 161.771 190.571  0.00  0.00    +0.060 HD
ATOM     39  H   UNL     1     147.880 159.823 190.887  0.00  0.00    +0.036 HD
ATOM     40  H   UNL     1     147.542 159.436 187.877  0.00  0.00    +0.074 HD
ATOM     41  H   UNL     1     149.648 160.700 188.724  0.00  0.00    +0.035 HD
ATOM     42  H   UNL     1     149.831 159.345 187.623  0.00  0.00    +0.035 HD
ATOM     43  H   UNL     1     150.651 157.186 190.847  0.00  0.00    +0.069 HD
ATOM     44  H   UNL     1     151.649 160.482 190.292  0.00  0.00    +0.034 HD
ATOM     45  H   UNL     1     152.299 158.892 190.650  0.00  0.00    +0.034 HD
ATOM     46  H   UNL     1     152.168 159.948 187.767  0.00  0.00    +0.060 HD
ATOM     47  H   UNL     1     154.515 159.877 189.738  0.00  0.00    +0.034 HD
ATOM     48  H   UNL     1     154.694 160.198 188.033  0.00  0.00    +0.034 HD
ATOM     49  H   UNL     1     151.901 162.019 188.474  0.00  0.00    +0.062 HD
ATOM     50  H   UNL     1     151.569 163.982 189.815  0.00  0.00    +0.062 HD
ATOM     51  H   UNL     1     153.872 164.969 188.005  0.00  0.00    +0.069 HD
ATOM     52  H   UNL     1     150.909 168.288 189.725  0.00  0.00    +0.074 HD
ATOM     53  H   UNL     1     150.073 167.067 187.756  0.00  0.00    +0.038 HD
ATOM     54  H   UNL     1     148.693 169.099 188.504  0.00  0.00    +0.057 HD
ATOM     55  H   UNL     1     146.770 166.781 188.000  0.00  0.00    +0.059 HD
ATOM     56  H   UNL     1     145.615 168.661 186.884  0.00  0.00    +0.064 HD
ATOM     57  H   UNL     1     145.125 168.779 189.915  0.00  0.00    +0.032 HD
ATOM     58  H   UNL     1     144.048 169.399 188.714  0.00  0.00    +0.032 HD
ATOM     59  H   UNL     1     144.343 166.771 187.790  0.00  0.00    +0.060 HD
ENDROOT
BRANCH   1  60
ATOM     60  C   UNL     1     143.887 166.512 191.244  0.00  0.00    -0.057 C 
ATOM     61  H   UNL     1     143.890 165.627 191.889  0.00  0.00    +0.024 HD
ATOM     62  H   UNL     1     144.400 167.313 191.785  0.00  0.00    +0.024 HD
ATOM     63  H   UNL     1     142.846 166.819 191.105  0.00  0.00    +0.024 HD
ENDBRANCH   1  60
BRANCH  26  64
ATOM     64  C   UNL     1     148.921 165.576 188.709  0.00  0.00    -0.056 C 
ATOM     65  H   UNL     1     149.002 165.136 189.704  0.00  0.00    +0.024 HD
ATOM     66  H   UNL     1     147.869 165.524 188.406  0.00  0.00    +0.024 HD
ATOM     67  H   UNL     1     149.504 164.920 188.052  0.00  0.00    +0.024 HD
ENDBRANCH  26  64
BRANCH  18  68
ATOM     68  C   UNL     1     155.149 162.444 189.719  0.00  0.00    -0.043 C 
ATOM     69  H   UNL     1     155.847 162.711 188.917  0.00  0.00    +0.027 HD
ATOM     70  H   UNL     1     155.646 161.718 190.373  0.00  0.00    +0.027 HD
ATOM     71  H   UNL     1     154.965 163.344 190.309  0.00  0.00    +0.027 HD
ENDBRANCH  18  68
BRANCH   7  72
ATOM     72  C   UNL     1     145.947 159.186 190.292  0.00  0.00    -0.057 C 
ATOM     73  H   UNL     1     145.143 159.905 190.484  0.00  0.00    +0.023 HD
ATOM     74  H   UNL     1     145.637 158.541 189.464  0.00  0.00    +0.023 HD
ATOM     75  H   UNL     1     146.033 158.563 191.189  0.00  0.00    +0.023 HD
ENDBRANCH   7  72
BRANCH  25  76
ATOM     76  C   UNL     1     149.834 167.234 191.305  0.00  0.00    +0.020 C 
ATOM     77  H   UNL     1     148.797 167.593 191.248  0.00  0.00    +0.036 HD
BRANCH  76  78
ATOM     78  C   UNL     1     149.678 165.761 191.738  0.00  0.00    -0.057 C 
ATOM     79  H   UNL     1     149.158 165.188 190.962  0.00  0.00    +0.023 HD
ATOM     80  H   UNL     1     149.086 165.653 192.649  0.00  0.00    +0.023 HD
ATOM     81  H   UNL     1     150.647 165.280 191.889  0.00  0.00    +0.023 HD
ENDBRANCH  76  78
BRANCH  76  82
ATOM     82  C   UNL     1     150.530 168.111 192.382  0.00  0.00    +0.067 C 
ATOM     83  H   UNL     1     150.231 167.711 193.356  0.00  0.00    +0.060 HD
BRANCH  82  84
ATOM     84  C   UNL     1     150.228 169.643 192.390  0.00  0.00    -0.017 C 
ATOM     85  H   UNL     1     150.297 170.001 193.422  0.00  0.00    +0.032 HD
BRANCH  84  86
ATOM     86  C   UNL     1     151.346 170.341 191.593  0.00  0.00    -0.060 C 
ATOM     87  H   UNL     1     152.311 170.252 192.099  0.00  0.00    +0.023 HD
ATOM     88  H   UNL     1     151.453 169.916 190.591  0.00  0.00    +0.023 HD
ATOM     89  H   UNL     1     151.154 171.412 191.498  0.00  0.00    +0.023 HD
ENDBRANCH  84  86
BRANCH  84  90
ATOM     90  C   UNL     1     148.829 170.014 191.830  0.00  0.00    -0.041 C 
ATOM     91  H   UNL     1     148.176 169.139 191.886  0.00  0.00    +0.027 HD
ATOM     92  H   UNL     1     148.932 170.258 190.765  0.00  0.00    +0.027 HD
BRANCH  90  93
ATOM     93  C   UNL     1     148.096 171.191 192.478  0.00  0.00    +0.007 C 
ATOM     94  H   UNL     1     148.839 171.755 193.062  0.00  0.00    +0.034 HD
ATOM     95  H   UNL     1     147.333 170.901 193.207  0.00  0.00    +0.034 HD
BRANCH  93  96
ATOM     96  C   UNL     1     147.508 172.189 191.497  0.00  0.00    +0.139 C 
ATOM     97  O   UNL     1     147.797 172.107 190.300  0.00  0.00    -0.297 OA
BRANCH  96  98
ATOM     98  C   UNL     1     146.600 173.288 192.043  0.00  0.00    +0.041 C 
ATOM     99  H   UNL     1     146.818 174.208 191.490  0.00  0.00    +0.040 HD
BRANCH  98 100
ATOM    100  C   UNL     1     146.954 173.530 193.509  0.00  0.00    -0.053 C 
ATOM    101  H   UNL     1     146.690 174.540 193.832  0.00  0.00    +0.024 HD
ATOM    102  H   UNL     1     148.028 173.385 193.673  0.00  0.00    +0.024 HD
ATOM    103  H   UNL     1     146.418 172.832 194.159  0.00  0.00    +0.024 HD
ENDBRANCH  98 100
BRANCH  98 104
ATOM    104  C   UNL     1     145.094 172.970 191.849  0.00  0.00    +0.071 C 
ATOM    105  H   UNL     1     144.620 173.069 192.837  0.00  0.00    +0.061 HD
BRANCH 104 106
ATOM    106  C   UNL     1     144.386 173.928 190.862  0.00  0.00    -0.006 C 
ATOM    107  H   UNL     1     145.125 174.495 190.282  0.00  0.00    +0.033 HD
ATOM    108  H   UNL     1     143.841 173.342 190.111  0.00  0.00    +0.033 HD
BRANCH 106 109
ATOM    109  C   UNL     1     143.446 174.896 191.537  0.00  0.00    -0.067 C 
ATOM    110  C   UNL     1     143.096 174.796 192.828  0.00  0.00    -0.005 C 
ATOM    111  H   UNL     1     143.058 175.687 190.909  0.00  0.00    +0.059 HD
ATOM    112  H   UNL     1     143.498 173.967 193.413  0.00  0.00    +0.078 HD
BRANCH 110 113
ATOM    113  N   UNL     1     142.269 175.647 193.546  0.00  0.00    -0.284 N 
ATOM    114  C   UNL     1     141.931 175.500 194.888  0.00  0.00    +0.206 C 
ATOM    115  O   UNL     1     141.168 176.219 195.524  0.00  0.00    -0.279 OA
ATOM    116  H   UNL     1     142.416 174.646 195.381  0.00  0.00    +0.126 HD
BRANCH 113 117
ATOM    117  C   UNL     1     141.689 176.775 192.826  0.00  0.00    +0.007 C 
ATOM    118  H   UNL     1     142.191 177.695 193.150  0.00  0.00    +0.043 HD
ATOM    119  H   UNL     1     141.837 176.636 191.749  0.00  0.00    +0.043 HD
ATOM    120  H   UNL     1     140.617 176.882 193.016  0.00  0.00    +0.043 HD
ENDBRANCH 113 117
ENDBRANCH 110 113
ENDBRANCH 106 109
ENDBRANCH 104 106
BRANCH 104 121
ATOM    121  O   UNL     1     144.944 171.613 191.416  0.00  0.00    -0.379 OA
BRANCH 121 122
ATOM    122  C   UNL     1     143.617 171.264 191.051  0.00  0.00    +0.037 C 
ATOM    123  H   UNL     1     143.232 170.452 191.672  0.00  0.00    +0.052 HD
ATOM    124  H   UNL     1     143.574 170.983 189.995  0.00  0.00    +0.052 HD
ATOM    125  H   UNL     1     142.981 172.142 191.199  0.00  0.00    +0.052 HD
ENDBRANCH 121 122
ENDBRANCH 104 121
ENDBRANCH  98 104
ENDBRANCH  96  98
ENDBRANCH  93  96
ENDBRANCH  90  93
ENDBRANCH  84  90
ENDBRANCH  82  84
BRANCH  82 126
ATOM    126  O   UNL     1     151.958 167.946 192.269  0.00  0.00    -0.379 OA
BRANCH 126 127
ATOM    127  C   UNL     1     152.502 167.061 193.235  0.00  0.00    +0.037 C 
ATOM    128  H   UNL     1     152.162 167.352 194.233  0.00  0.00    +0.052 HD
ATOM    129  H   UNL     1     152.222 166.024 193.025  0.00  0.00    +0.052 HD
ATOM    130  H   UNL     1     153.593 167.144 193.202  0.00  0.00    +0.052 HD
ENDBRANCH 126 127
ENDBRANCH  82 126
ENDBRANCH  76  82
ENDBRANCH  25  76
BRANCH  31 131
ATOM    131  O   UNL     1     142.675 167.363 188.857  0.00  0.00    -0.379 OA
BRANCH 131 132
ATOM    132  C   UNL     1     142.233 168.690 188.597  0.00  0.00    +0.037 C 
ATOM    133  H   UNL     1     141.228 168.677 188.163  0.00  0.00    +0.052 HD
ATOM    134  H   UNL     1     142.923 169.212 187.929  0.00  0.00    +0.052 HD
ATOM    135  H   UNL     1     142.196 169.228 189.546  0.00  0.00    +0.052 HD
ENDBRANCH 131 132
ENDBRANCH  31 131
BRANCH  29 136
ATOM    136  O   UNL     1     146.483 170.130 188.071  0.00  0.00    -0.376 OA
BRANCH 136 137
ATOM    137  C   UNL     1     146.017 171.017 187.061  0.00  0.00    +0.037 C 
ATOM    138  H   UNL     1     145.651 171.950 187.499  0.00  0.00    +0.052 HD
ATOM    139  H   UNL     1     146.854 171.245 186.395  0.00  0.00    +0.052 HD
ATOM    140  H   UNL     1     145.228 170.542 186.467  0.00  0.00    +0.052 HD
ENDBRANCH 136 137
ENDBRANCH  29 136
BRANCH  16 141
ATOM    141  O   UNL     1     153.080 158.164 188.315  0.00  0.00    -0.379 OA
BRANCH 141 142
ATOM    142  C   UNL     1     153.927 157.585 189.300  0.00  0.00    +0.037 C 
ATOM    143  H   UNL     1     154.480 156.764 188.836  0.00  0.00    +0.052 HD
ATOM    144  H   UNL     1     154.644 158.330 189.657  0.00  0.00    +0.052 HD
ATOM    145  H   UNL     1     153.350 157.187 190.141  0.00  0.00    +0.052 HD
ENDBRANCH 141 142
ENDBRANCH  16 141
BRANCH   6 146
ATOM    146  O   UNL     1     148.153 162.212 189.786  0.00  0.00    -0.379 OA
BRANCH 146 147
ATOM    147  C   UNL     1     148.802 162.197 191.052  0.00  0.00    +0.037 C 
ATOM    148  H   UNL     1     148.046 162.358 191.822  0.00  0.00    +0.052 HD
ATOM    149  H   UNL     1     149.273 161.224 191.226  0.00  0.00    +0.052 HD
ATOM    150  H   UNL     1     149.545 162.995 191.127  0.00  0.00    +0.052 HD
ENDBRANCH 146 147
ENDBRANCH   6 146
BRANCH   4 151
ATOM    151  O   UNL     1     144.452 162.664 187.176  0.00  0.00    -0.376 OA
BRANCH 151 152
ATOM    152  C   UNL     1     145.461 162.830 186.189  0.00  0.00    +0.037 C 
ATOM    153  H   UNL     1     146.055 163.711 186.452  0.00  0.00    +0.052 HD
ATOM    154  H   UNL     1     145.020 162.991 185.200  0.00  0.00    +0.052 HD
ATOM    155  H   UNL     1     146.124 161.960 186.170  0.00  0.00    +0.052 HD
ENDBRANCH 151 152
ENDBRANCH   4 151
TORSDOF 33
ENDMDL
MODEL 10
REMARK VINA RESULT:      -4.5      3.765      9.300
REMARK  Name = Reidispongiolide A_conf1
REMARK  33 active torsions:
REMARK  status: ('A' for Active; 'I' for Inactive)
REMARK    1  A    between atoms: C_1  and  C_2
REMARK    2  A    between atoms: C_5  and  O_67
REMARK    3  A    between atoms: C_7  and  O_65
REMARK    4  A    between atoms: C_8  and  C_64
REMARK    5  A    between atoms: C_17  and  O_62
REMARK    6  A    between atoms: C_19  and  C_61
REMARK    7  A    between atoms: C_26  and  C_38
REMARK    8  A    between atoms: C_27  and  C_37
REMARK    9  A    between atoms: C_30  and  O_35
REMARK   10  A    between atoms: C_32  and  O_33
REMARK   11  A    between atoms: O_33  and  C_34
REMARK   12  A    between atoms: O_35  and  C_36
REMARK   13  A    between atoms: C_38  and  C_39
REMARK   14  A    between atoms: C_38  and  C_40
REMARK   15  A    between atoms: C_40  and  C_41
REMARK   16  A    between atoms: C_40  and  O_59
REMARK   17  A    between atoms: C_41  and  C_42
REMARK   18  A    between atoms: C_41  and  C_43
REMARK   19  A    between atoms: C_43  and  C_44
REMARK   20  A    between atoms: C_44  and  C_45
REMARK   21  A    between atoms: C_45  and  C_47
REMARK   22  A    between atoms: C_47  and  C_48
REMARK   23  A    between atoms: C_47  and  C_49
REMARK   24  A    between atoms: C_49  and  C_50
REMARK   25  A    between atoms: C_49  and  O_57
REMARK   26  A    between atoms: C_50  and  C_51
REMARK   27  A    between atoms: C_52  and  N_53
REMARK   28  A    between atoms: N_53  and  C_54
REMARK   29  A    between atoms: O_57  and  C_58
REMARK   30  A    between atoms: O_59  and  C_60
REMARK   31  A    between atoms: O_62  and  C_63
REMARK   32  A    between atoms: O_65  and  C_66
REMARK   33  A    between atoms: O_67  and  C_68
REMARK                            x       y       z     vdW  Elec       q    Type
REMARK                         _______ _______ _______ _____ _____    ______ ____
ROOT
ATOM      1  C   UNL     1     144.672 163.331 186.967  0.00  0.00    +0.001 C 
ATOM      2  C   UNL     1     143.661 164.400 187.340  0.00  0.00    -0.080 C 
ATOM      3  C   UNL     1     143.853 165.320 188.300  0.00  0.00    -0.059 C 
ATOM      4  C   UNL     1     142.826 166.343 188.702  0.00  0.00    +0.079 C 
ATOM      5  C   UNL     1     143.415 167.573 189.416  0.00  0.00    +0.004 C 
ATOM      6  C   UNL     1     144.331 168.452 188.539  0.00  0.00    +0.067 C 
ATOM      7  C   UNL     1     143.973 169.972 188.603  0.00  0.00    +0.020 C 
ATOM      8  C   UNL     1     143.875 170.575 190.041  0.00  0.00    +0.112 C 
ATOM      9  C   UNL     1     145.192 170.735 190.815  0.00  0.00    +0.006 C 
ATOM     10  C   UNL     1     145.937 171.983 190.418  0.00  0.00    -0.057 C 
ATOM     11  C   UNL     1     145.280 172.993 189.831  0.00  0.00    +0.022 C 
ATOM     12  C   UNL     1     143.821 172.979 189.639  0.00  0.00    +0.332 C 
ATOM     13  O   UNL     1     143.232 173.967 189.222  0.00  0.00    -0.246 OA
ATOM     14  O   UNL     1     143.173 171.844 189.994  0.00  0.00    -0.458 OA
ATOM     15  C   UNL     1     147.419 172.064 190.723  0.00  0.00    -0.004 C 
ATOM     16  C   UNL     1     147.740 172.037 192.240  0.00  0.00    +0.066 C 
ATOM     17  C   UNL     1     149.262 171.883 192.506  0.00  0.00    -0.005 C 
ATOM     18  C   UNL     1     149.955 170.583 192.106  0.00  0.00    -0.070 C 
ATOM     19  C   UNL     1     149.269 169.473 191.780  0.00  0.00    -0.062 C 
ATOM     20  C   UNL     1     149.751 168.228 191.249  0.00  0.00    -0.055 C 
ATOM     21  C   UNL     1     150.554 167.338 191.855  0.00  0.00    +0.023 C 
ATOM     22  C   UNL     1     150.756 165.980 191.291  0.00  0.00    +0.332 C 
ATOM     23  O   UNL     1     151.220 165.052 191.931  0.00  0.00    -0.246 OA
ATOM     24  O   UNL     1     150.257 165.916 190.037  0.00  0.00    -0.457 OA
ATOM     25  C   UNL     1     149.915 164.619 189.468  0.00  0.00    +0.114 C 
ATOM     26  C   UNL     1     148.563 164.180 190.139  0.00  0.00    +0.012 C 
ATOM     27  C   UNL     1     148.084 162.787 189.778  0.00  0.00    -0.079 C 
ATOM     28  C   UNL     1     146.814 162.432 189.506  0.00  0.00    -0.059 C 
ATOM     29  C   UNL     1     146.284 161.068 189.134  0.00  0.00    +0.079 C 
ATOM     30  C   UNL     1     145.571 161.054 187.762  0.00  0.00    +0.004 C 
ATOM     31  C   UNL     1     144.339 161.988 187.692  0.00  0.00    +0.067 C 
ATOM     32  H   UNL     1     145.660 163.675 187.293  0.00  0.00    +0.037 HD
ATOM     33  H   UNL     1     142.709 164.367 186.811  0.00  0.00    +0.057 HD
ATOM     34  H   UNL     1     144.777 165.324 188.868  0.00  0.00    +0.059 HD
ATOM     35  H   UNL     1     142.264 166.685 187.819  0.00  0.00    +0.064 HD
ATOM     36  H   UNL     1     143.945 167.250 190.322  0.00  0.00    +0.032 HD
ATOM     37  H   UNL     1     142.551 168.142 189.777  0.00  0.00    +0.032 HD
ATOM     38  H   UNL     1     144.246 168.122 187.495  0.00  0.00    +0.060 HD
ATOM     39  H   UNL     1     144.748 170.536 188.070  0.00  0.00    +0.036 HD
ATOM     40  H   UNL     1     143.230 169.934 190.650  0.00  0.00    +0.074 HD
ATOM     41  H   UNL     1     145.826 169.854 190.706  0.00  0.00    +0.035 HD
ATOM     42  H   UNL     1     144.960 170.822 191.887  0.00  0.00    +0.035 HD
ATOM     43  H   UNL     1     145.772 173.915 189.541  0.00  0.00    +0.069 HD
ATOM     44  H   UNL     1     147.908 171.237 190.196  0.00  0.00    +0.034 HD
ATOM     45  H   UNL     1     147.830 172.988 190.294  0.00  0.00    +0.034 HD
ATOM     46  H   UNL     1     147.190 171.224 192.729  0.00  0.00    +0.060 HD
ATOM     47  H   UNL     1     149.764 172.720 191.997  0.00  0.00    +0.034 HD
ATOM     48  H   UNL     1     149.455 172.044 193.575  0.00  0.00    +0.034 HD
ATOM     49  H   UNL     1     148.178 169.485 191.804  0.00  0.00    +0.062 HD
ATOM     50  H   UNL     1     149.289 167.987 190.293  0.00  0.00    +0.062 HD
ATOM     51  H   UNL     1     150.977 167.508 192.837  0.00  0.00    +0.069 HD
ATOM     52  H   UNL     1     150.708 163.907 189.721  0.00  0.00    +0.074 HD
ATOM     53  H   UNL     1     148.767 164.131 191.220  0.00  0.00    +0.038 HD
ATOM     54  H   UNL     1     148.847 162.011 189.776  0.00  0.00    +0.057 HD
ATOM     55  H   UNL     1     146.034 163.184 189.582  0.00  0.00    +0.059 HD
ATOM     56  H   UNL     1     145.567 160.779 189.917  0.00  0.00    +0.064 HD
ATOM     57  H   UNL     1     146.296 161.308 186.979  0.00  0.00    +0.032 HD
ATOM     58  H   UNL     1     145.281 160.022 187.531  0.00  0.00    +0.032 HD
ATOM     59  H   UNL     1     143.981 162.207 188.709  0.00  0.00    +0.060 HD
ENDROOT
BRANCH   1  60
ATOM     60  C   UNL     1     144.713 163.195 185.439  0.00  0.00    -0.057 C 
ATOM     61  H   UNL     1     145.566 163.727 185.002  0.00  0.00    +0.024 HD
ATOM     62  H   UNL     1     144.802 162.144 185.149  0.00  0.00    +0.024 HD
ATOM     63  H   UNL     1     143.803 163.591 184.979  0.00  0.00    +0.024 HD
ENDBRANCH   1  60
BRANCH  26  64
ATOM     64  C   UNL     1     147.479 165.265 189.990  0.00  0.00    -0.056 C 
ATOM     65  H   UNL     1     147.898 166.230 189.702  0.00  0.00    +0.024 HD
ATOM     66  H   UNL     1     146.732 164.987 189.238  0.00  0.00    +0.024 HD
ATOM     67  H   UNL     1     146.964 165.443 190.941  0.00  0.00    +0.024 HD
ENDBRANCH  26  64
BRANCH  18  68
ATOM     68  C   UNL     1     151.458 170.691 192.075  0.00  0.00    -0.043 C 
ATOM     69  H   UNL     1     151.905 169.790 192.509  0.00  0.00    +0.027 HD
ATOM     70  H   UNL     1     151.787 171.553 192.668  0.00  0.00    +0.027 HD
ATOM     71  H   UNL     1     151.867 170.810 191.069  0.00  0.00    +0.027 HD
ENDBRANCH  18  68
BRANCH   7  72
ATOM     72  C   UNL     1     142.671 170.197 187.811  0.00  0.00    -0.057 C 
ATOM     73  H   UNL     1     142.806 169.917 186.761  0.00  0.00    +0.023 HD
ATOM     74  H   UNL     1     141.843 169.608 188.216  0.00  0.00    +0.023 HD
ATOM     75  H   UNL     1     142.371 171.250 187.820  0.00  0.00    +0.023 HD
ENDBRANCH   7  72
BRANCH  25  76
ATOM     76  C   UNL     1     149.906 164.853 187.925  0.00  0.00    +0.020 C 
ATOM     77  H   UNL     1     148.877 164.679 187.579  0.00  0.00    +0.036 HD
BRANCH  76  78
ATOM     78  C   UNL     1     150.141 166.345 187.609  0.00  0.00    -0.057 C 
ATOM     79  H   UNL     1     150.262 166.492 186.530  0.00  0.00    +0.023 HD
ATOM     80  H   UNL     1     151.049 166.733 188.076  0.00  0.00    +0.023 HD
ATOM     81  H   UNL     1     149.295 166.961 187.920  0.00  0.00    +0.023 HD
ENDBRANCH  76  78
BRANCH  76  82
ATOM     82  C   UNL     1     150.804 163.906 187.083  0.00  0.00    +0.067 C 
ATOM     83  H   UNL     1     150.155 163.432 186.341  0.00  0.00    +0.060 HD
BRANCH  82  84
ATOM     84  C   UNL     1     151.575 162.770 187.828  0.00  0.00    -0.017 C 
ATOM     85  H   UNL     1     151.133 162.648 188.821  0.00  0.00    +0.032 HD
BRANCH  84  86
ATOM     86  C   UNL     1     151.327 161.459 187.058  0.00  0.00    -0.060 C 
ATOM     87  H   UNL     1     150.279 161.365 186.758  0.00  0.00    +0.023 HD
ATOM     88  H   UNL     1     151.940 161.400 186.154  0.00  0.00    +0.023 HD
ATOM     89  H   UNL     1     151.541 160.588 187.681  0.00  0.00    +0.023 HD
ENDBRANCH  84  86
BRANCH  84  90
ATOM     90  C   UNL     1     153.094 163.040 187.992  0.00  0.00    -0.041 C 
ATOM     91  H   UNL     1     153.464 163.564 187.106  0.00  0.00    +0.027 HD
ATOM     92  H   UNL     1     153.620 162.078 188.027  0.00  0.00    +0.027 HD
BRANCH  90  93
ATOM     93  C   UNL     1     153.544 163.827 189.225  0.00  0.00    +0.007 C 
ATOM     94  H   UNL     1     153.613 163.113 190.060  0.00  0.00    +0.034 HD
ATOM     95  H   UNL     1     152.828 164.582 189.565  0.00  0.00    +0.034 HD
BRANCH  93  96
ATOM     96  C   UNL     1     154.924 164.450 189.110  0.00  0.00    +0.139 C 
ATOM     97  O   UNL     1     155.909 163.822 189.506  0.00  0.00    -0.297 OA
BRANCH  96  98
ATOM     98  C   UNL     1     155.033 165.860 188.535  0.00  0.00    +0.041 C 
ATOM     99  H   UNL     1     155.781 166.403 189.121  0.00  0.00    +0.040 HD
BRANCH  98 100
ATOM    100  C   UNL     1     153.692 166.568 188.721  0.00  0.00    -0.053 C 
ATOM    101  H   UNL     1     153.572 167.404 188.027  0.00  0.00    +0.024 HD
ATOM    102  H   UNL     1     153.599 166.951 189.743  0.00  0.00    +0.024 HD
ATOM    103  H   UNL     1     152.860 165.880 188.544  0.00  0.00    +0.024 HD
ENDBRANCH  98 100
BRANCH  98 104
ATOM    104  C   UNL     1     155.498 165.867 187.055  0.00  0.00    +0.071 C 
ATOM    105  H   UNL     1     155.366 164.843 186.677  0.00  0.00    +0.061 HD
BRANCH 104 106
ATOM    106  C   UNL     1     154.685 166.835 186.161  0.00  0.00    -0.006 C 
ATOM    107  H   UNL     1     154.335 166.319 185.259  0.00  0.00    +0.033 HD
ATOM    108  H   UNL     1     153.764 167.128 186.682  0.00  0.00    +0.033 HD
BRANCH 106 109
ATOM    109  C   UNL     1     155.457 168.066 185.755  0.00  0.00    -0.067 C 
ATOM    110  C   UNL     1     155.832 168.311 184.492  0.00  0.00    -0.005 C 
ATOM    111  H   UNL     1     155.700 168.751 186.558  0.00  0.00    +0.059 HD
ATOM    112  H   UNL     1     155.580 167.578 183.723  0.00  0.00    +0.078 HD
BRANCH 110 113
ATOM    113  N   UNL     1     156.512 169.421 184.014  0.00  0.00    -0.284 N 
ATOM    114  C   UNL     1     156.957 170.489 184.788  0.00  0.00    +0.206 C 
ATOM    115  O   UNL     1     157.521 171.497 184.375  0.00  0.00    -0.279 OA
ATOM    116  H   UNL     1     156.762 170.374 185.864  0.00  0.00    +0.126 HD
BRANCH 113 117
ATOM    117  C   UNL     1     156.758 169.484 182.578  0.00  0.00    +0.007 C 
ATOM    118  H   UNL     1     157.157 168.518 182.247  0.00  0.00    +0.043 HD
ATOM    119  H   UNL     1     155.817 169.692 182.054  0.00  0.00    +0.043 HD
ATOM    120  H   UNL     1     157.478 170.264 182.313  0.00  0.00    +0.043 HD
ENDBRANCH 113 117
ENDBRANCH 110 113
ENDBRANCH 106 109
ENDBRANCH 104 106
BRANCH 104 121
ATOM    121  O   UNL     1     156.892 166.191 186.994  0.00  0.00    -0.379 OA
BRANCH 121 122
ATOM    122  C   UNL     1     157.725 165.099 186.633  0.00  0.00    +0.037 C 
ATOM    123  H   UNL     1     158.664 165.442 186.191  0.00  0.00    +0.052 HD
ATOM    124  H   UNL     1     157.203 164.435 185.940  0.00  0.00    +0.052 HD
ATOM    125  H   UNL     1     157.958 164.534 187.540  0.00  0.00    +0.052 HD
ENDBRANCH 121 122
ENDBRANCH 104 121
ENDBRANCH  98 104
ENDBRANCH  96  98
ENDBRANCH  93  96
ENDBRANCH  90  93
ENDBRANCH  84  90
ENDBRANCH  82  84
BRANCH  82 126
ATOM    126  O   UNL     1     151.774 164.696 186.365  0.00  0.00    -0.379 OA
BRANCH 126 127
ATOM    127  C   UNL     1     151.704 164.530 184.957  0.00  0.00    +0.037 C 
ATOM    128  H   UNL     1     151.960 163.500 184.695  0.00  0.00    +0.052 HD
ATOM    129  H   UNL     1     150.709 164.785 184.577  0.00  0.00    +0.052 HD
ATOM    130  H   UNL     1     152.439 165.198 184.496  0.00  0.00    +0.052 HD
ENDBRANCH 126 127
ENDBRANCH  82 126
ENDBRANCH  76  82
ENDBRANCH  25  76
BRANCH  31 131
ATOM    131  O   UNL     1     143.275 161.333 186.974  0.00  0.00    -0.379 OA
BRANCH 131 132
ATOM    132  C   UNL     1     143.614 160.018 186.551  0.00  0.00    +0.037 C 
ATOM    133  H   UNL     1     144.292 160.058 185.692  0.00  0.00    +0.052 HD
ATOM    134  H   UNL     1     142.720 159.443 186.296  0.00  0.00    +0.052 HD
ATOM    135  H   UNL     1     144.125 159.516 187.375  0.00  0.00    +0.052 HD
ENDBRANCH 131 132
ENDBRANCH  31 131
BRANCH  29 136
ATOM    136  O   UNL     1     147.371 160.136 189.109  0.00  0.00    -0.376 OA
BRANCH 136 137
ATOM    137  C   UNL     1     147.241 159.121 190.098  0.00  0.00    +0.037 C 
ATOM    138  H   UNL     1     148.157 159.033 190.690  0.00  0.00    +0.052 HD
ATOM    139  H   UNL     1     146.417 159.395 190.762  0.00  0.00    +0.052 HD
ATOM    140  H   UNL     1     146.998 158.160 189.631  0.00  0.00    +0.052 HD
ENDBRANCH 136 137
ENDBRANCH  29 136
BRANCH  16 141
ATOM    141  O   UNL     1     147.303 173.298 192.787  0.00  0.00    -0.379 OA
BRANCH 141 142
ATOM    142  C   UNL     1     147.957 173.631 194.006  0.00  0.00    +0.037 C 
ATOM    143  H   UNL     1     149.036 173.601 193.834  0.00  0.00    +0.052 HD
ATOM    144  H   UNL     1     147.679 174.644 194.311  0.00  0.00    +0.052 HD
ATOM    145  H   UNL     1     147.710 172.919 194.800  0.00  0.00    +0.052 HD
ENDBRANCH 141 142
ENDBRANCH  16 141
BRANCH   6 146
ATOM    146  O   UNL     1     145.683 168.233 188.973  0.00  0.00    -0.379 OA
BRANCH 146 147
ATOM    147  C   UNL     1     146.656 168.694 188.043  0.00  0.00    +0.037 C 
ATOM    148  H   UNL     1     146.719 169.781 188.131  0.00  0.00    +0.052 HD
ATOM    149  H   UNL     1     147.638 168.270 188.279  0.00  0.00    +0.052 HD
ATOM    150  H   UNL     1     146.374 168.447 187.017  0.00  0.00    +0.052 HD
ENDBRANCH 146 147
ENDBRANCH   6 146
BRANCH   4 151
ATOM    151  O   UNL     1     141.957 165.709 189.653  0.00  0.00    -0.376 OA
BRANCH 151 152
ATOM    152  C   UNL     1     142.418 165.843 190.991  0.00  0.00    +0.037 C 
ATOM    153  H   UNL     1     143.373 165.314 191.078  0.00  0.00    +0.052 HD
ATOM    154  H   UNL     1     141.709 165.397 191.696  0.00  0.00    +0.052 HD
ATOM    155  H   UNL     1     142.583 166.896 191.235  0.00  0.00    +0.052 HD
ENDBRANCH 151 152
ENDBRANCH   4 151
TORSDOF 33
ENDMDL
