MODEL 1
REMARK VINA RESULT:      -5.3      0.000      0.000
REMARK  Name = Sphinxolide B_conf1
REMARK  33 active torsions:
REMARK  status: ('A' for Active; 'I' for Inactive)
REMARK    1  A    between atoms: C_1  and  C_2
REMARK    2  A    between atoms: C_5  and  O_67
REMARK    3  A    between atoms: C_7  and  O_65
REMARK    4  A    between atoms: C_8  and  C_64
REMARK    5  A    between atoms: C_10  and  O_63
REMARK    6  A    between atoms: C_17  and  O_61
REMARK    7  A    between atoms: C_19  and  C_60
REMARK    8  A    between atoms: C_26  and  C_37
REMARK    9  A    between atoms: C_27  and  C_36
REMARK   10  A    between atoms: C_30  and  O_34
REMARK   11  A    between atoms: C_32  and  O_33
REMARK   12  A    between atoms: O_34  and  C_35
REMARK   13  A    between atoms: C_37  and  C_38
REMARK   14  A    between atoms: C_37  and  C_39
REMARK   15  A    between atoms: C_39  and  C_40
REMARK   16  A    between atoms: C_39  and  O_58
REMARK   17  A    between atoms: C_40  and  C_41
REMARK   18  A    between atoms: C_40  and  C_42
REMARK   19  A    between atoms: C_42  and  C_43
REMARK   20  A    between atoms: C_43  and  C_44
REMARK   21  A    between atoms: C_44  and  C_46
REMARK   22  A    between atoms: C_46  and  C_47
REMARK   23  A    between atoms: C_46  and  C_48
REMARK   24  A    between atoms: C_48  and  C_49
REMARK   25  A    between atoms: C_48  and  O_56
REMARK   26  A    between atoms: C_49  and  C_50
REMARK   27  A    between atoms: C_51  and  N_52
REMARK   28  A    between atoms: N_52  and  C_53
REMARK   29  A    between atoms: O_56  and  C_57
REMARK   30  A    between atoms: O_58  and  C_59
REMARK   31  A    between atoms: O_61  and  C_62
REMARK   32  A    between atoms: O_65  and  C_66
REMARK   33  A    between atoms: O_67  and  C_68
REMARK                            x       y       z     vdW  Elec       q    Type
REMARK                         _______ _______ _______ _____ _____    ______ ____
ROOT
ATOM      1  C   UNL     1     151.759 166.363 190.583  0.00  0.00    +0.000 C 
ATOM      2  C   UNL     1     151.653 164.901 190.195  0.00  0.00    -0.080 C 
ATOM      3  C   UNL     1     152.617 164.098 189.709  0.00  0.00    -0.059 C 
ATOM      4  C   UNL     1     152.479 162.638 189.300  0.00  0.00    +0.079 C 
ATOM      5  C   UNL     1     151.021 162.147 189.257  0.00  0.00    +0.004 C 
ATOM      6  C   UNL     1     150.844 160.676 188.850  0.00  0.00    +0.067 C 
ATOM      7  C   UNL     1     149.332 160.255 188.784  0.00  0.00    +0.022 C 
ATOM      8  C   UNL     1     148.603 160.444 190.160  0.00  0.00    +0.138 C 
ATOM      9  C   UNL     1     147.590 161.618 190.207  0.00  0.00    +0.114 C 
ATOM     10  C   UNL     1     146.336 161.241 189.457  0.00  0.00    -0.029 C 
ATOM     11  C   UNL     1     145.948 159.954 189.510  0.00  0.00    +0.024 C 
ATOM     12  C   UNL     1     146.688 158.929 190.270  0.00  0.00    +0.332 C 
ATOM     13  O   UNL     1     146.160 157.858 190.543  0.00  0.00    -0.246 OA
ATOM     14  O   UNL     1     147.960 159.229 190.629  0.00  0.00    -0.455 OA
ATOM     15  C   UNL     1     145.602 162.332 188.691  0.00  0.00    -0.002 C 
ATOM     16  C   UNL     1     144.276 161.974 187.978  0.00  0.00    +0.066 C 
ATOM     17  C   UNL     1     143.583 163.244 187.412  0.00  0.00    -0.005 C 
ATOM     18  C   UNL     1     144.406 164.086 186.448  0.00  0.00    -0.070 C 
ATOM     19  C   UNL     1     144.939 165.295 186.712  0.00  0.00    -0.062 C 
ATOM     20  C   UNL     1     144.883 166.024 187.961  0.00  0.00    -0.055 C 
ATOM     21  C   UNL     1     145.503 167.203 188.122  0.00  0.00    +0.023 C 
ATOM     22  C   UNL     1     145.448 167.903 189.420  0.00  0.00    +0.332 C 
ATOM     23  O   UNL     1     144.755 167.576 190.371  0.00  0.00    -0.246 OA
ATOM     24  O   UNL     1     146.318 168.936 189.351  0.00  0.00    -0.457 OA
ATOM     25  C   UNL     1     146.478 169.792 190.520  0.00  0.00    +0.114 C 
ATOM     26  C   UNL     1     147.985 169.728 190.921  0.00  0.00    +0.012 C 
ATOM     27  C   UNL     1     148.393 168.270 191.125  0.00  0.00    -0.079 C 
ATOM     28  C   UNL     1     148.751 167.651 192.263  0.00  0.00    -0.059 C 
ATOM     29  C   UNL     1     149.120 166.192 192.328  0.00  0.00    +0.079 C 
ATOM     30  C   UNL     1     150.537 165.936 192.873  0.00  0.00    +0.004 C 
ATOM     31  C   UNL     1     151.724 166.567 192.123  0.00  0.00    +0.064 C 
ATOM     32  H   UNL     1     150.891 166.869 190.144  0.00  0.00    +0.037 HD
ATOM     33  H   UNL     1     150.656 164.486 190.325  0.00  0.00    +0.057 HD
ATOM     34  H   UNL     1     153.618 164.501 189.570  0.00  0.00    +0.059 HD
ATOM     35  H   UNL     1     152.923 162.515 188.304  0.00  0.00    +0.064 HD
ATOM     36  H   UNL     1     150.592 162.278 190.255  0.00  0.00    +0.032 HD
ATOM     37  H   UNL     1     150.472 162.776 188.546  0.00  0.00    +0.032 HD
ATOM     38  H   UNL     1     151.358 160.030 189.576  0.00  0.00    +0.060 HD
ATOM     39  H   UNL     1     148.858 160.907 188.035  0.00  0.00    +0.036 HD
ATOM     40  H   UNL     1     149.364 160.648 190.923  0.00  0.00    +0.077 HD
ATOM     41  H   UNL     1     147.315 161.806 191.252  0.00  0.00    +0.068 HD
ATOM     42  H   UNL     1     145.052 159.580 189.027  0.00  0.00    +0.069 HD
ATOM     43  H   UNL     1     145.398 163.145 189.400  0.00  0.00    +0.034 HD
ATOM     44  H   UNL     1     146.305 162.709 187.937  0.00  0.00    +0.034 HD
ATOM     45  H   UNL     1     143.599 161.519 188.714  0.00  0.00    +0.060 HD
ATOM     46  H   UNL     1     143.249 163.849 188.262  0.00  0.00    +0.034 HD
ATOM     47  H   UNL     1     142.657 162.963 186.898  0.00  0.00    +0.034 HD
ATOM     48  H   UNL     1     145.498 165.791 185.915  0.00  0.00    +0.062 HD
ATOM     49  H   UNL     1     144.331 165.600 188.795  0.00  0.00    +0.062 HD
ATOM     50  H   UNL     1     146.072 167.677 187.329  0.00  0.00    +0.069 HD
ATOM     51  H   UNL     1     145.905 169.366 191.356  0.00  0.00    +0.074 HD
ATOM     52  H   UNL     1     148.594 170.058 190.072  0.00  0.00    +0.038 HD
ATOM     53  H   UNL     1     148.390 167.677 190.209  0.00  0.00    +0.057 HD
ATOM     54  H   UNL     1     148.780 168.183 193.209  0.00  0.00    +0.059 HD
ATOM     55  H   UNL     1     149.026 165.722 191.344  0.00  0.00    +0.064 HD
ATOM     56  H   UNL     1     150.684 164.849 192.923  0.00  0.00    +0.032 HD
ATOM     57  H   UNL     1     150.569 166.273 193.921  0.00  0.00    +0.032 HD
ATOM     58  H   UNL     1     152.635 166.134 192.556  0.00  0.00    +0.060 HD
ENDROOT
BRANCH   1  59
ATOM     59  C   UNL     1     152.983 167.069 189.970  0.00  0.00    -0.057 C 
ATOM     60  H   UNL     1     152.685 167.762 189.175  0.00  0.00    +0.024 HD
ATOM     61  H   UNL     1     153.511 167.662 190.726  0.00  0.00    +0.024 HD
ATOM     62  H   UNL     1     153.694 166.350 189.549  0.00  0.00    +0.024 HD
ENDBRANCH   1  59
BRANCH  26  63
ATOM     63  C   UNL     1     148.350 170.599 192.125  0.00  0.00    -0.056 C 
ATOM     64  H   UNL     1     148.032 171.636 191.984  0.00  0.00    +0.024 HD
ATOM     65  H   UNL     1     147.887 170.222 193.045  0.00  0.00    +0.024 HD
ATOM     66  H   UNL     1     149.424 170.589 192.316  0.00  0.00    +0.024 HD
ENDBRANCH  26  63
BRANCH  18  67
ATOM     67  C   UNL     1     144.594 163.486 185.074  0.00  0.00    -0.043 C 
ATOM     68  H   UNL     1     145.456 162.812 185.060  0.00  0.00    +0.027 HD
ATOM     69  H   UNL     1     144.767 164.249 184.309  0.00  0.00    +0.027 HD
ATOM     70  H   UNL     1     143.702 162.926 184.772  0.00  0.00    +0.027 HD
ENDBRANCH  18  67
BRANCH   7  71
ATOM     71  C   UNL     1     149.208 158.828 188.225  0.00  0.00    -0.057 C 
ATOM     72  H   UNL     1     148.569 158.205 188.860  0.00  0.00    +0.023 HD
ATOM     73  H   UNL     1     148.801 158.828 187.211  0.00  0.00    +0.023 HD
ATOM     74  H   UNL     1     150.188 158.345 188.149  0.00  0.00    +0.023 HD
ENDBRANCH   7  71
BRANCH  31  75
ATOM     75  O   UNL     1     151.761 167.963 192.445  0.00  0.00    -0.391 OA
ATOM     76  H   UNL     1     151.496 168.455 191.651  0.00  0.00    +0.210 HD
ENDBRANCH  31  75
BRANCH  25  77
ATOM     77  C   UNL     1     145.805 171.158 190.154  0.00  0.00    +0.020 C 
ATOM     78  H   UNL     1     146.396 171.922 190.676  0.00  0.00    +0.036 HD
BRANCH  77  79
ATOM     79  C   UNL     1     145.979 171.492 188.663  0.00  0.00    -0.057 C 
ATOM     80  H   UNL     1     146.992 171.800 188.409  0.00  0.00    +0.023 HD
ATOM     81  H   UNL     1     145.291 172.289 188.358  0.00  0.00    +0.023 HD
ATOM     82  H   UNL     1     145.746 170.613 188.049  0.00  0.00    +0.023 HD
ENDBRANCH  77  79
BRANCH  77  83
ATOM     83  C   UNL     1     144.322 171.384 190.601  0.00  0.00    +0.067 C 
ATOM     84  H   UNL     1     143.712 171.436 189.685  0.00  0.00    +0.060 HD
BRANCH  83  85
ATOM     85  C   UNL     1     144.089 172.729 191.363  0.00  0.00    -0.017 C 
ATOM     86  H   UNL     1     143.524 172.548 192.275  0.00  0.00    +0.032 HD
BRANCH  85  87
ATOM     87  C   UNL     1     145.440 173.317 191.801  0.00  0.00    -0.060 C 
ATOM     88  H   UNL     1     145.994 172.599 192.410  0.00  0.00    +0.023 HD
ATOM     89  H   UNL     1     146.070 173.563 190.940  0.00  0.00    +0.023 HD
ATOM     90  H   UNL     1     145.303 174.229 192.391  0.00  0.00    +0.023 HD
ENDBRANCH  85  87
BRANCH  85  91
ATOM     91  C   UNL     1     143.304 173.796 190.563  0.00  0.00    -0.041 C 
ATOM     92  H   UNL     1     142.241 173.527 190.531  0.00  0.00    +0.027 HD
ATOM     93  H   UNL     1     143.640 173.805 189.518  0.00  0.00    +0.027 HD
BRANCH  91  94
ATOM     94  C   UNL     1     143.456 175.213 191.135  0.00  0.00    +0.007 C 
ATOM     95  H   UNL     1     144.140 175.167 191.990  0.00  0.00    +0.034 HD
ATOM     96  H   UNL     1     143.892 175.880 190.392  0.00  0.00    +0.034 HD
BRANCH  94  97
ATOM     97  C   UNL     1     142.142 175.816 191.627  0.00  0.00    +0.139 C 
ATOM     98  O   UNL     1     141.253 176.156 190.842  0.00  0.00    -0.297 OA
BRANCH  97  99
ATOM     99  C   UNL     1     141.889 175.938 193.131  0.00  0.00    +0.041 C 
ATOM    100  H   UNL     1     141.755 177.016 193.295  0.00  0.00    +0.040 HD
BRANCH  99 101
ATOM    101  C   UNL     1     143.084 175.566 194.006  0.00  0.00    -0.053 C 
ATOM    102  H   UNL     1     142.783 175.153 194.974  0.00  0.00    +0.024 HD
ATOM    103  H   UNL     1     143.715 176.441 194.193  0.00  0.00    +0.024 HD
ATOM    104  H   UNL     1     143.704 174.814 193.507  0.00  0.00    +0.024 HD
ENDBRANCH  99 101
BRANCH  99 105
ATOM    105  C   UNL     1     140.573 175.231 193.526  0.00  0.00    +0.071 C 
ATOM    106  H   UNL     1     139.874 175.239 192.679  0.00  0.00    +0.061 HD
BRANCH 105 107
ATOM    107  C   UNL     1     140.778 173.768 193.976  0.00  0.00    -0.006 C 
ATOM    108  H   UNL     1     141.781 173.633 194.389  0.00  0.00    +0.033 HD
ATOM    109  H   UNL     1     140.059 173.516 194.765  0.00  0.00    +0.033 HD
BRANCH 107 110
ATOM    110  C   UNL     1     140.641 172.778 192.843  0.00  0.00    -0.067 C 
ATOM    111  C   UNL     1     139.766 172.938 191.837  0.00  0.00    -0.005 C 
ATOM    112  H   UNL     1     141.282 171.905 192.899  0.00  0.00    +0.059 HD
ATOM    113  H   UNL     1     139.147 173.833 191.817  0.00  0.00    +0.078 HD
BRANCH 111 114
ATOM    114  N   UNL     1     139.565 172.053 190.789  0.00  0.00    -0.284 N 
ATOM    115  C   UNL     1     138.934 170.832 191.006  0.00  0.00    +0.206 C 
ATOM    116  O   UNL     1     138.701 169.970 190.166  0.00  0.00    -0.279 OA
ATOM    117  H   UNL     1     138.644 170.683 192.062  0.00  0.00    +0.126 HD
BRANCH 114 118
ATOM    118  C   UNL     1     139.995 172.366 189.434  0.00  0.00    +0.007 C 
ATOM    119  H   UNL     1     139.137 172.315 188.755  0.00  0.00    +0.043 HD
ATOM    120  H   UNL     1     140.422 173.370 189.364  0.00  0.00    +0.043 HD
ATOM    121  H   UNL     1     140.760 171.645 189.127  0.00  0.00    +0.043 HD
ENDBRANCH 114 118
ENDBRANCH 111 114
ENDBRANCH 107 110
ENDBRANCH 105 107
BRANCH 105 122
ATOM    122  O   UNL     1     139.985 175.928 194.643  0.00  0.00    -0.379 OA
BRANCH 122 123
ATOM    123  C   UNL     1     138.777 175.334 195.103  0.00  0.00    +0.037 C 
ATOM    124  H   UNL     1     138.833 174.259 194.917  0.00  0.00    +0.052 HD
ATOM    125  H   UNL     1     137.921 175.736 194.553  0.00  0.00    +0.052 HD
ATOM    126  H   UNL     1     138.643 175.494 196.176  0.00  0.00    +0.052 HD
ENDBRANCH 122 123
ENDBRANCH 105 122
ENDBRANCH  99 105
ENDBRANCH  97  99
ENDBRANCH  94  97
ENDBRANCH  91  94
ENDBRANCH  85  91
ENDBRANCH  83  85
BRANCH  83 127
ATOM    127  O   UNL     1     143.884 170.272 191.381  0.00  0.00    -0.379 OA
BRANCH 127 128
ATOM    128  C   UNL     1     142.496 169.981 191.240  0.00  0.00    +0.037 C 
ATOM    129  H   UNL     1     141.974 170.119 192.191  0.00  0.00    +0.052 HD
ATOM    130  H   UNL     1     142.404 168.934 190.938  0.00  0.00    +0.052 HD
ATOM    131  H   UNL     1     142.045 170.610 190.467  0.00  0.00    +0.052 HD
ENDBRANCH 127 128
ENDBRANCH  83 127
ENDBRANCH  77  83
ENDBRANCH  25  77
BRANCH   9 132
ATOM    132  O   UNL     1     148.159 162.811 189.694  0.00  0.00    -0.384 OA
ATOM    133  H   UNL     1     148.156 162.742 188.724  0.00  0.00    +0.210 HD
ENDBRANCH   9 132
BRANCH  29 134
ATOM    134  O   UNL     1     148.217 165.518 193.222  0.00  0.00    -0.376 OA
BRANCH 134 135
ATOM    135  C   UNL     1     147.796 166.311 194.324  0.00  0.00    +0.037 C 
ATOM    136  H   UNL     1     148.509 167.131 194.444  0.00  0.00    +0.052 HD
ATOM    137  H   UNL     1     146.808 166.745 194.143  0.00  0.00    +0.052 HD
ATOM    138  H   UNL     1     147.791 165.723 195.249  0.00  0.00    +0.052 HD
ENDBRANCH 134 135
ENDBRANCH  29 134
BRANCH   6 139
ATOM    139  O   UNL     1     151.422 160.525 187.540  0.00  0.00    -0.379 OA
BRANCH 139 140
ATOM    140  C   UNL     1     152.460 159.552 187.501  0.00  0.00    +0.037 C 
ATOM    141  H   UNL     1     152.129 158.721 186.871  0.00  0.00    +0.052 HD
ATOM    142  H   UNL     1     153.368 159.977 187.067  0.00  0.00    +0.052 HD
ATOM    143  H   UNL     1     152.673 159.167 188.502  0.00  0.00    +0.052 HD
ENDBRANCH 139 140
ENDBRANCH   6 139
BRANCH  16 144
ATOM    144  O   UNL     1     144.552 161.016 186.947  0.00  0.00    -0.379 OA
BRANCH 144 145
ATOM    145  C   UNL     1     143.411 160.291 186.508  0.00  0.00    +0.037 C 
ATOM    146  H   UNL     1     143.653 159.230 186.379  0.00  0.00    +0.052 HD
ATOM    147  H   UNL     1     143.103 160.695 185.539  0.00  0.00    +0.052 HD
ATOM    148  H   UNL     1     142.578 160.408 187.206  0.00  0.00    +0.052 HD
ENDBRANCH 144 145
ENDBRANCH  16 144
BRANCH   4 149
ATOM    149  O   UNL     1     153.184 161.832 190.256  0.00  0.00    -0.376 OA
BRANCH 149 150
ATOM    150  C   UNL     1     154.525 161.546 189.881  0.00  0.00    +0.037 C 
ATOM    151  H   UNL     1     154.833 162.160 189.029  0.00  0.00    +0.052 HD
ATOM    152  H   UNL     1     154.578 160.496 189.587  0.00  0.00    +0.052 HD
ATOM    153  H   UNL     1     155.207 161.700 190.721  0.00  0.00    +0.052 HD
ENDBRANCH 149 150
ENDBRANCH   4 149
TORSDOF 33
ENDMDL
MODEL 2
REMARK VINA RESULT:      -5.2      3.542     10.142
REMARK  Name = Sphinxolide B_conf1
REMARK  33 active torsions:
REMARK  status: ('A' for Active; 'I' for Inactive)
REMARK    1  A    between atoms: C_1  and  C_2
REMARK    2  A    between atoms: C_5  and  O_67
REMARK    3  A    between atoms: C_7  and  O_65
REMARK    4  A    between atoms: C_8  and  C_64
REMARK    5  A    between atoms: C_10  and  O_63
REMARK    6  A    between atoms: C_17  and  O_61
REMARK    7  A    between atoms: C_19  and  C_60
REMARK    8  A    between atoms: C_26  and  C_37
REMARK    9  A    between atoms: C_27  and  C_36
REMARK   10  A    between atoms: C_30  and  O_34
REMARK   11  A    between atoms: C_32  and  O_33
REMARK   12  A    between atoms: O_34  and  C_35
REMARK   13  A    between atoms: C_37  and  C_38
REMARK   14  A    between atoms: C_37  and  C_39
REMARK   15  A    between atoms: C_39  and  C_40
REMARK   16  A    between atoms: C_39  and  O_58
REMARK   17  A    between atoms: C_40  and  C_41
REMARK   18  A    between atoms: C_40  and  C_42
REMARK   19  A    between atoms: C_42  and  C_43
REMARK   20  A    between atoms: C_43  and  C_44
REMARK   21  A    between atoms: C_44  and  C_46
REMARK   22  A    between atoms: C_46  and  C_47
REMARK   23  A    between atoms: C_46  and  C_48
REMARK   24  A    between atoms: C_48  and  C_49
REMARK   25  A    between atoms: C_48  and  O_56
REMARK   26  A    between atoms: C_49  and  C_50
REMARK   27  A    between atoms: C_51  and  N_52
REMARK   28  A    between atoms: N_52  and  C_53
REMARK   29  A    between atoms: O_56  and  C_57
REMARK   30  A    between atoms: O_58  and  C_59
REMARK   31  A    between atoms: O_61  and  C_62
REMARK   32  A    between atoms: O_65  and  C_66
REMARK   33  A    between atoms: O_67  and  C_68
REMARK                            x       y       z     vdW  Elec       q    Type
REMARK                         _______ _______ _______ _____ _____    ______ ____
ROOT
ATOM      1  C   UNL     1     145.482 161.727 186.993  0.00  0.00    +0.000 C 
ATOM      2  C   UNL     1     144.256 162.613 187.100  0.00  0.00    -0.080 C 
ATOM      3  C   UNL     1     143.001 162.349 186.693  0.00  0.00    -0.059 C 
ATOM      4  C   UNL     1     141.790 163.268 186.787  0.00  0.00    +0.079 C 
ATOM      5  C   UNL     1     142.143 164.708 187.200  0.00  0.00    +0.004 C 
ATOM      6  C   UNL     1     140.944 165.663 187.307  0.00  0.00    +0.067 C 
ATOM      7  C   UNL     1     141.380 167.124 187.689  0.00  0.00    +0.022 C 
ATOM      8  C   UNL     1     142.136 167.177 189.061  0.00  0.00    +0.138 C 
ATOM      9  C   UNL     1     143.658 167.459 188.958  0.00  0.00    +0.114 C 
ATOM     10  C   UNL     1     143.888 168.915 188.637  0.00  0.00    -0.029 C 
ATOM     11  C   UNL     1     143.026 169.806 189.159  0.00  0.00    +0.024 C 
ATOM     12  C   UNL     1     141.898 169.412 190.024  0.00  0.00    +0.332 C 
ATOM     13  O   UNL     1     141.325 170.245 190.714  0.00  0.00    -0.246 OA
ATOM     14  O   UNL     1     141.534 168.106 190.002  0.00  0.00    -0.455 OA
ATOM     15  C   UNL     1     145.067 169.277 187.745  0.00  0.00    -0.002 C 
ATOM     16  C   UNL     1     145.356 170.771 187.467  0.00  0.00    +0.066 C 
ATOM     17  C   UNL     1     146.693 170.951 186.698  0.00  0.00    -0.005 C 
ATOM     18  C   UNL     1     146.812 170.210 185.374  0.00  0.00    -0.070 C 
ATOM     19  C   UNL     1     147.582 169.129 185.140  0.00  0.00    -0.062 C 
ATOM     20  C   UNL     1     148.415 168.423 186.090  0.00  0.00    -0.055 C 
ATOM     21  C   UNL     1     149.098 167.320 185.750  0.00  0.00    +0.023 C 
ATOM     22  C   UNL     1     149.914 166.610 186.755  0.00  0.00    +0.332 C 
ATOM     23  O   UNL     1     150.156 167.012 187.883  0.00  0.00    -0.246 OA
ATOM     24  O   UNL     1     150.308 165.444 186.195  0.00  0.00    -0.457 OA
ATOM     25  C   UNL     1     151.121 164.529 186.987  0.00  0.00    +0.114 C 
ATOM     26  C   UNL     1     150.335 163.182 187.066  0.00  0.00    +0.012 C 
ATOM     27  C   UNL     1     148.934 163.445 187.615  0.00  0.00    -0.079 C 
ATOM     28  C   UNL     1     148.406 163.054 188.787  0.00  0.00    -0.059 C 
ATOM     29  C   UNL     1     147.004 163.395 189.216  0.00  0.00    +0.079 C 
ATOM     30  C   UNL     1     146.127 162.163 189.506  0.00  0.00    +0.004 C 
ATOM     31  C   UNL     1     145.910 161.147 188.369  0.00  0.00    +0.064 C 
ATOM     32  H   UNL     1     146.293 162.357 186.611  0.00  0.00    +0.037 HD
ATOM     33  H   UNL     1     144.456 163.581 187.555  0.00  0.00    +0.057 HD
ATOM     34  H   UNL     1     142.788 161.387 186.232  0.00  0.00    +0.059 HD
ATOM     35  H   UNL     1     141.298 163.292 185.807  0.00  0.00    +0.064 HD
ATOM     36  H   UNL     1     142.634 164.667 188.177  0.00  0.00    +0.032 HD
ATOM     37  H   UNL     1     142.846 165.110 186.462  0.00  0.00    +0.032 HD
ATOM     38  H   UNL     1     140.247 165.293 188.072  0.00  0.00    +0.060 HD
ATOM     39  H   UNL     1     142.057 167.466 186.893  0.00  0.00    +0.036 HD
ATOM     40  H   UNL     1     142.025 166.202 189.550  0.00  0.00    +0.077 HD
ATOM     41  H   UNL     1     144.124 167.249 189.929  0.00  0.00    +0.068 HD
ATOM     42  H   UNL     1     143.111 170.877 189.011  0.00  0.00    +0.069 HD
ATOM     43  H   UNL     1     145.964 168.836 188.198  0.00  0.00    +0.034 HD
ATOM     44  H   UNL     1     144.893 168.778 186.783  0.00  0.00    +0.034 HD
ATOM     45  H   UNL     1     145.448 171.291 188.431  0.00  0.00    +0.060 HD
ATOM     46  H   UNL     1     147.507 170.664 187.373  0.00  0.00    +0.034 HD
ATOM     47  H   UNL     1     146.868 172.014 186.498  0.00  0.00    +0.034 HD
ATOM     48  H   UNL     1     147.577 168.708 184.132  0.00  0.00    +0.062 HD
ATOM     49  H   UNL     1     148.482 168.794 187.109  0.00  0.00    +0.062 HD
ATOM     50  H   UNL     1     149.070 166.900 184.751  0.00  0.00    +0.069 HD
ATOM     51  H   UNL     1     151.198 164.916 188.013  0.00  0.00    +0.074 HD
ATOM     52  H   UNL     1     150.157 162.815 186.049  0.00  0.00    +0.038 HD
ATOM     53  H   UNL     1     148.297 164.027 186.945  0.00  0.00    +0.057 HD
ATOM     54  H   UNL     1     148.983 162.469 189.498  0.00  0.00    +0.059 HD
ATOM     55  H   UNL     1     146.506 164.017 188.464  0.00  0.00    +0.064 HD
ATOM     56  H   UNL     1     145.149 162.523 189.853  0.00  0.00    +0.032 HD
ATOM     57  H   UNL     1     146.556 161.632 190.370  0.00  0.00    +0.032 HD
ATOM     58  H   UNL     1     145.136 160.450 188.715  0.00  0.00    +0.060 HD
ENDROOT
BRANCH   1  59
ATOM     59  C   UNL     1     145.330 160.601 185.953  0.00  0.00    -0.057 C 
ATOM     60  H   UNL     1     145.602 160.947 184.949  0.00  0.00    +0.024 HD
ATOM     61  H   UNL     1     145.992 159.760 186.189  0.00  0.00    +0.024 HD
ATOM     62  H   UNL     1     144.304 160.221 185.917  0.00  0.00    +0.024 HD
ENDBRANCH   1  59
BRANCH  26  63
ATOM     63  C   UNL     1     151.058 162.081 187.843  0.00  0.00    -0.056 C 
ATOM     64  H   UNL     1     152.102 161.985 187.531  0.00  0.00    +0.024 HD
ATOM     65  H   UNL     1     151.041 162.277 188.922  0.00  0.00    +0.024 HD
ATOM     66  H   UNL     1     150.568 161.114 187.717  0.00  0.00    +0.024 HD
ENDBRANCH  26  63
BRANCH  18  67
ATOM     67  C   UNL     1     145.997 170.789 184.241  0.00  0.00    -0.043 C 
ATOM     68  H   UNL     1     145.499 169.996 183.677  0.00  0.00    +0.027 HD
ATOM     69  H   UNL     1     146.614 171.352 183.533  0.00  0.00    +0.027 HD
ATOM     70  H   UNL     1     145.239 171.481 184.625  0.00  0.00    +0.027 HD
ENDBRANCH  18  67
BRANCH   7  71
ATOM     71  C   UNL     1     140.166 168.066 187.631  0.00  0.00    -0.057 C 
ATOM     72  H   UNL     1     139.974 168.405 186.607  0.00  0.00    +0.023 HD
ATOM     73  H   UNL     1     139.264 167.582 188.015  0.00  0.00    +0.023 HD
ATOM     74  H   UNL     1     140.317 168.949 188.260  0.00  0.00    +0.023 HD
ENDBRANCH   7  71
BRANCH  31  75
ATOM     75  O   UNL     1     147.108 160.371 188.235  0.00  0.00    -0.391 OA
ATOM     76  H   UNL     1     147.785 160.772 188.802  0.00  0.00    +0.210 HD
ENDBRANCH  31  75
BRANCH  25  77
ATOM     77  C   UNL     1     152.559 164.581 186.370  0.00  0.00    +0.020 C 
ATOM     78  H   UNL     1     152.885 163.535 186.304  0.00  0.00    +0.036 HD
BRANCH  77  79
ATOM     79  C   UNL     1     152.531 165.066 184.910  0.00  0.00    -0.057 C 
ATOM     80  H   UNL     1     151.680 165.706 184.689  0.00  0.00    +0.023 HD
ATOM     81  H   UNL     1     152.514 164.218 184.217  0.00  0.00    +0.023 HD
ATOM     82  H   UNL     1     153.436 165.645 184.689  0.00  0.00    +0.023 HD
ENDBRANCH  77  79
BRANCH  77  83
ATOM     83  C   UNL     1     153.674 165.326 187.178  0.00  0.00    +0.067 C 
ATOM     84  H   UNL     1     154.642 165.022 186.751  0.00  0.00    +0.060 HD
BRANCH  83  85
ATOM     85  C   UNL     1     153.720 164.941 188.693  0.00  0.00    -0.017 C 
ATOM     86  H   UNL     1     153.211 163.992 188.853  0.00  0.00    +0.032 HD
BRANCH  85  87
ATOM     87  C   UNL     1     155.178 164.728 189.130  0.00  0.00    -0.060 C 
ATOM     88  H   UNL     1     155.492 163.700 188.938  0.00  0.00    +0.023 HD
ATOM     89  H   UNL     1     155.862 165.383 188.581  0.00  0.00    +0.023 HD
ATOM     90  H   UNL     1     155.305 164.928 190.199  0.00  0.00    +0.023 HD
ENDBRANCH  85  87
BRANCH  85  91
ATOM     91  C   UNL     1     153.049 165.965 189.640  0.00  0.00    -0.041 C 
ATOM     92  H   UNL     1     152.664 166.811 189.057  0.00  0.00    +0.027 HD
ATOM     93  H   UNL     1     153.795 166.389 190.323  0.00  0.00    +0.027 HD
BRANCH  91  94
ATOM     94  C   UNL     1     151.911 165.360 190.476  0.00  0.00    +0.007 C 
ATOM     95  H   UNL     1     150.985 165.426 189.894  0.00  0.00    +0.034 HD
ATOM     96  H   UNL     1     152.106 164.308 190.680  0.00  0.00    +0.034 HD
BRANCH  94  97
ATOM     97  C   UNL     1     151.677 166.083 191.800  0.00  0.00    +0.139 C 
ATOM     98  O   UNL     1     151.136 165.520 192.757  0.00  0.00    -0.297 OA
BRANCH  97  99
ATOM     99  C   UNL     1     152.187 167.514 191.974  0.00  0.00    +0.041 C 
ATOM    100  H   UNL     1     152.755 167.711 191.054  0.00  0.00    +0.040 HD
BRANCH  99 101
ATOM    101  C   UNL     1     153.207 167.691 193.095  0.00  0.00    -0.053 C 
ATOM    102  H   UNL     1     154.237 167.722 192.725  0.00  0.00    +0.024 HD
ATOM    103  H   UNL     1     153.133 166.874 193.820  0.00  0.00    +0.024 HD
ATOM    104  H   UNL     1     153.025 168.626 193.635  0.00  0.00    +0.024 HD
ENDBRANCH  99 101
BRANCH  99 105
ATOM    105  C   UNL     1     151.010 168.515 192.027  0.00  0.00    +0.071 C 
ATOM    106  H   UNL     1     150.526 168.472 193.012  0.00  0.00    +0.061 HD
BRANCH 105 107
ATOM    107  C   UNL     1     151.437 169.974 191.755  0.00  0.00    -0.006 C 
ATOM    108  H   UNL     1     152.420 170.170 192.190  0.00  0.00    +0.033 HD
ATOM    109  H   UNL     1     151.512 170.146 190.675  0.00  0.00    +0.033 HD
BRANCH 107 110
ATOM    110  C   UNL     1     150.490 170.986 192.356  0.00  0.00    -0.067 C 
ATOM    111  C   UNL     1     149.543 171.613 191.640  0.00  0.00    -0.005 C 
ATOM    112  H   UNL     1     150.635 171.200 193.410  0.00  0.00    +0.059 HD
ATOM    113  H   UNL     1     149.429 171.362 190.587  0.00  0.00    +0.078 HD
BRANCH 111 114
ATOM    114  N   UNL     1     148.668 172.576 192.120  0.00  0.00    -0.284 N 
ATOM    115  C   UNL     1     148.613 172.867 193.479  0.00  0.00    +0.206 C 
ATOM    116  O   UNL     1     147.886 173.691 194.021  0.00  0.00    -0.279 OA
ATOM    117  H   UNL     1     149.316 172.257 194.075  0.00  0.00    +0.126 HD
BRANCH 114 118
ATOM    118  C   UNL     1     147.787 173.316 191.229  0.00  0.00    +0.007 C 
ATOM    119  H   UNL     1     148.332 174.157 190.786  0.00  0.00    +0.043 HD
ATOM    120  H   UNL     1     147.413 172.690 190.414  0.00  0.00    +0.043 HD
ATOM    121  H   UNL     1     146.928 173.684 191.801  0.00  0.00    +0.043 HD
ENDBRANCH 114 118
ENDBRANCH 111 114
ENDBRANCH 107 110
ENDBRANCH 105 107
BRANCH 105 122
ATOM    122  O   UNL     1     150.054 168.167 191.005  0.00  0.00    -0.379 OA
BRANCH 122 123
ATOM    123  C   UNL     1     148.742 167.954 191.512  0.00  0.00    +0.037 C 
ATOM    124  H   UNL     1     148.103 168.765 191.155  0.00  0.00    +0.052 HD
ATOM    125  H   UNL     1     148.747 167.975 192.606  0.00  0.00    +0.052 HD
ATOM    126  H   UNL     1     148.331 167.006 191.156  0.00  0.00    +0.052 HD
ENDBRANCH 122 123
ENDBRANCH 105 122
ENDBRANCH  99 105
ENDBRANCH  97  99
ENDBRANCH  94  97
ENDBRANCH  91  94
ENDBRANCH  85  91
ENDBRANCH  83  85
BRANCH  83 127
ATOM    127  O   UNL     1     153.522 166.735 187.013  0.00  0.00    -0.379 OA
BRANCH 127 128
ATOM    128  C   UNL     1     154.685 167.384 186.506  0.00  0.00    +0.037 C 
ATOM    129  H   UNL     1     155.445 167.482 187.286  0.00  0.00    +0.052 HD
ATOM    130  H   UNL     1     154.391 168.383 186.174  0.00  0.00    +0.052 HD
ATOM    131  H   UNL     1     155.091 166.836 185.650  0.00  0.00    +0.052 HD
ENDBRANCH 127 128
ENDBRANCH  83 127
ENDBRANCH  77  83
ENDBRANCH  25  77
BRANCH   9 132
ATOM    132  O   UNL     1     144.275 166.616 187.999  0.00  0.00    -0.384 OA
ATOM    133  H   UNL     1     143.617 166.430 187.308  0.00  0.00    +0.210 HD
ENDBRANCH   9 132
BRANCH  29 134
ATOM    134  O   UNL     1     147.055 164.149 190.440  0.00  0.00    -0.376 OA
BRANCH 134 135
ATOM    135  C   UNL     1     148.341 164.175 191.048  0.00  0.00    +0.037 C 
ATOM    136  H   UNL     1     148.210 164.028 192.123  0.00  0.00    +0.052 HD
ATOM    137  H   UNL     1     148.973 163.366 190.670  0.00  0.00    +0.052 HD
ATOM    138  H   UNL     1     148.827 165.144 190.891  0.00  0.00    +0.052 HD
ENDBRANCH 134 135
ENDBRANCH  29 134
BRANCH   6 139
ATOM    139  O   UNL     1     140.309 165.695 186.016  0.00  0.00    -0.379 OA
BRANCH 139 140
ATOM    140  C   UNL     1     141.184 166.122 184.978  0.00  0.00    +0.037 C 
ATOM    141  H   UNL     1     141.763 166.974 185.345  0.00  0.00    +0.052 HD
ATOM    142  H   UNL     1     141.877 165.322 184.707  0.00  0.00    +0.052 HD
ATOM    143  H   UNL     1     140.620 166.438 184.096  0.00  0.00    +0.052 HD
ENDBRANCH 139 140
ENDBRANCH   6 139
BRANCH  16 144
ATOM    144  O   UNL     1     144.249 171.328 186.744  0.00  0.00    -0.379 OA
BRANCH 144 145
ATOM    145  C   UNL     1     144.098 172.732 186.904  0.00  0.00    +0.037 C 
ATOM    146  H   UNL     1     144.112 173.004 187.965  0.00  0.00    +0.052 HD
ATOM    147  H   UNL     1     143.128 173.020 186.486  0.00  0.00    +0.052 HD
ATOM    148  H   UNL     1     144.876 173.276 186.363  0.00  0.00    +0.052 HD
ENDBRANCH 144 145
ENDBRANCH  16 144
BRANCH   4 149
ATOM    149  O   UNL     1     140.895 162.736 187.775  0.00  0.00    -0.376 OA
BRANCH 149 150
ATOM    150  C   UNL     1     139.722 162.152 187.224  0.00  0.00    +0.037 C 
ATOM    151  H   UNL     1     139.904 161.794 186.206  0.00  0.00    +0.052 HD
ATOM    152  H   UNL     1     138.947 162.920 187.186  0.00  0.00    +0.052 HD
ATOM    153  H   UNL     1     139.360 161.334 187.852  0.00  0.00    +0.052 HD
ENDBRANCH 149 150
ENDBRANCH   4 149
TORSDOF 33
ENDMDL
MODEL 3
REMARK VINA RESULT:      -5.2      2.333      6.909
REMARK  Name = Sphinxolide B_conf1
REMARK  33 active torsions:
REMARK  status: ('A' for Active; 'I' for Inactive)
REMARK    1  A    between atoms: C_1  and  C_2
REMARK    2  A    between atoms: C_5  and  O_67
REMARK    3  A    between atoms: C_7  and  O_65
REMARK    4  A    between atoms: C_8  and  C_64
REMARK    5  A    between atoms: C_10  and  O_63
REMARK    6  A    between atoms: C_17  and  O_61
REMARK    7  A    between atoms: C_19  and  C_60
REMARK    8  A    between atoms: C_26  and  C_37
REMARK    9  A    between atoms: C_27  and  C_36
REMARK   10  A    between atoms: C_30  and  O_34
REMARK   11  A    between atoms: C_32  and  O_33
REMARK   12  A    between atoms: O_34  and  C_35
REMARK   13  A    between atoms: C_37  and  C_38
REMARK   14  A    between atoms: C_37  and  C_39
REMARK   15  A    between atoms: C_39  and  C_40
REMARK   16  A    between atoms: C_39  and  O_58
REMARK   17  A    between atoms: C_40  and  C_41
REMARK   18  A    between atoms: C_40  and  C_42
REMARK   19  A    between atoms: C_42  and  C_43
REMARK   20  A    between atoms: C_43  and  C_44
REMARK   21  A    between atoms: C_44  and  C_46
REMARK   22  A    between atoms: C_46  and  C_47
REMARK   23  A    between atoms: C_46  and  C_48
REMARK   24  A    between atoms: C_48  and  C_49
REMARK   25  A    between atoms: C_48  and  O_56
REMARK   26  A    between atoms: C_49  and  C_50
REMARK   27  A    between atoms: C_51  and  N_52
REMARK   28  A    between atoms: N_52  and  C_53
REMARK   29  A    between atoms: O_56  and  C_57
REMARK   30  A    between atoms: O_58  and  C_59
REMARK   31  A    between atoms: O_61  and  C_62
REMARK   32  A    between atoms: O_65  and  C_66
REMARK   33  A    between atoms: O_67  and  C_68
REMARK                            x       y       z     vdW  Elec       q    Type
REMARK                         _______ _______ _______ _____ _____    ______ ____
ROOT
ATOM      1  C   UNL     1     145.734 160.730 188.875  0.00  0.00    +0.000 C 
ATOM      2  C   UNL     1     147.230 160.563 189.058  0.00  0.00    -0.080 C 
ATOM      3  C   UNL     1     147.913 159.437 189.334  0.00  0.00    -0.059 C 
ATOM      4  C   UNL     1     149.416 159.299 189.541  0.00  0.00    +0.079 C 
ATOM      5  C   UNL     1     150.148 160.648 189.646  0.00  0.00    +0.004 C 
ATOM      6  C   UNL     1     151.667 160.547 189.853  0.00  0.00    +0.067 C 
ATOM      7  C   UNL     1     152.343 161.958 189.996  0.00  0.00    +0.022 C 
ATOM      8  C   UNL     1     152.109 162.858 188.733  0.00  0.00    +0.138 C 
ATOM      9  C   UNL     1     151.128 164.040 188.946  0.00  0.00    +0.114 C 
ATOM     10  C   UNL     1     151.804 165.127 189.746  0.00  0.00    -0.029 C 
ATOM     11  C   UNL     1     153.120 165.313 189.545  0.00  0.00    +0.024 C 
ATOM     12  C   UNL     1     153.901 164.514 188.582  0.00  0.00    +0.332 C 
ATOM     13  O   UNL     1     155.003 164.896 188.208  0.00  0.00    -0.246 OA
ATOM     14  O   UNL     1     153.346 163.353 188.155  0.00  0.00    -0.455 OA
ATOM     15  C   UNL     1     150.958 165.930 190.724  0.00  0.00    -0.002 C 
ATOM     16  C   UNL     1     151.623 167.095 191.496  0.00  0.00    +0.066 C 
ATOM     17  C   UNL     1     150.571 167.909 192.299  0.00  0.00    -0.005 C 
ATOM     18  C   UNL     1     149.730 167.123 193.294  0.00  0.00    -0.070 C 
ATOM     19  C   UNL     1     148.425 166.818 193.158  0.00  0.00    -0.062 C 
ATOM     20  C   UNL     1     147.563 167.128 192.037  0.00  0.00    -0.055 C 
ATOM     21  C   UNL     1     146.286 166.721 191.991  0.00  0.00    +0.023 C 
ATOM     22  C   UNL     1     145.448 167.031 190.816  0.00  0.00    +0.332 C 
ATOM     23  O   UNL     1     145.764 167.768 189.895  0.00  0.00    -0.246 OA
ATOM     24  O   UNL     1     144.299 166.331 190.953  0.00  0.00    -0.457 OA
ATOM     25  C   UNL     1     143.287 166.440 189.909  0.00  0.00    +0.114 C 
ATOM     26  C   UNL     1     143.043 164.996 189.367  0.00  0.00    +0.012 C 
ATOM     27  C   UNL     1     144.373 164.392 188.921  0.00  0.00    -0.079 C 
ATOM     28  C   UNL     1     144.774 164.073 187.678  0.00  0.00    -0.059 C 
ATOM     29  C   UNL     1     146.129 163.492 187.371  0.00  0.00    +0.079 C 
ATOM     30  C   UNL     1     146.070 162.122 186.668  0.00  0.00    +0.004 C 
ATOM     31  C   UNL     1     145.347 160.971 187.390  0.00  0.00    +0.064 C 
ATOM     32  H   UNL     1     145.443 161.611 189.459  0.00  0.00    +0.037 HD
ATOM     33  H   UNL     1     147.789 161.492 188.961  0.00  0.00    +0.057 HD
ATOM     34  H   UNL     1     147.367 158.502 189.438  0.00  0.00    +0.059 HD
ATOM     35  H   UNL     1     149.586 158.731 190.465  0.00  0.00    +0.064 HD
ATOM     36  H   UNL     1     149.966 161.202 188.720  0.00  0.00    +0.032 HD
ATOM     37  H   UNL     1     149.716 161.204 190.487  0.00  0.00    +0.032 HD
ATOM     38  H   UNL     1     152.120 160.024 188.998  0.00  0.00    +0.060 HD
ATOM     39  H   UNL     1     151.881 162.439 190.870  0.00  0.00    +0.036 HD
ATOM     40  H   UNL     1     151.684 162.230 187.941  0.00  0.00    +0.077 HD
ATOM     41  H   UNL     1     150.858 164.458 187.969  0.00  0.00    +0.068 HD
ATOM     42  H   UNL     1     153.699 166.079 190.049  0.00  0.00    +0.069 HD
ATOM     43  H   UNL     1     150.108 166.338 190.160  0.00  0.00    +0.034 HD
ATOM     44  H   UNL     1     150.566 165.214 191.457  0.00  0.00    +0.034 HD
ATOM     45  H   UNL     1     152.089 167.772 190.767  0.00  0.00    +0.060 HD
ATOM     46  H   UNL     1     149.929 168.427 191.578  0.00  0.00    +0.034 HD
ATOM     47  H   UNL     1     151.067 168.716 192.850  0.00  0.00    +0.034 HD
ATOM     48  H   UNL     1     147.945 166.256 193.964  0.00  0.00    +0.062 HD
ATOM     49  H   UNL     1     147.967 167.698 191.204  0.00  0.00    +0.062 HD
ATOM     50  H   UNL     1     145.827 166.148 192.788  0.00  0.00    +0.069 HD
ATOM     51  H   UNL     1     143.695 167.030 189.076  0.00  0.00    +0.074 HD
ATOM     52  H   UNL     1     142.725 164.354 190.196  0.00  0.00    +0.038 HD
ATOM     53  H   UNL     1     145.070 164.199 189.738  0.00  0.00    +0.057 HD
ATOM     54  H   UNL     1     144.130 164.234 186.819  0.00  0.00    +0.059 HD
ATOM     55  H   UNL     1     146.729 163.399 188.282  0.00  0.00    +0.064 HD
ATOM     56  H   UNL     1     147.102 161.814 186.451  0.00  0.00    +0.032 HD
ATOM     57  H   UNL     1     145.603 162.263 185.681  0.00  0.00    +0.032 HD
ATOM     58  H   UNL     1     145.561 160.059 186.818  0.00  0.00    +0.060 HD
ENDROOT
BRANCH   1  59
ATOM     59  C   UNL     1     144.915 159.570 189.469  0.00  0.00    -0.057 C 
ATOM     60  H   UNL     1     143.907 159.898 189.748  0.00  0.00    +0.024 HD
ATOM     61  H   UNL     1     144.793 158.763 188.737  0.00  0.00    +0.024 HD
ATOM     62  H   UNL     1     145.396 159.149 190.357  0.00  0.00    +0.024 HD
ENDBRANCH   1  59
BRANCH  26  63
ATOM     63  C   UNL     1     141.979 164.910 188.272  0.00  0.00    -0.056 C 
ATOM     64  H   UNL     1     142.368 165.236 187.303  0.00  0.00    +0.024 HD
ATOM     65  H   UNL     1     141.603 163.885 188.160  0.00  0.00    +0.024 HD
ATOM     66  H   UNL     1     141.103 165.513 188.515  0.00  0.00    +0.024 HD
ENDBRANCH  26  63
BRANCH  18  67
ATOM     67  C   UNL     1     150.458 166.689 194.545  0.00  0.00    -0.043 C 
ATOM     68  H   UNL     1     149.885 166.956 195.439  0.00  0.00    +0.027 HD
ATOM     69  H   UNL     1     151.441 167.161 194.637  0.00  0.00    +0.027 HD
ATOM     70  H   UNL     1     150.621 165.606 194.541  0.00  0.00    +0.027 HD
ENDBRANCH  18  67
BRANCH   7  71
ATOM     71  C   UNL     1     153.830 161.793 190.353  0.00  0.00    -0.057 C 
ATOM     72  H   UNL     1     154.024 162.081 191.392  0.00  0.00    +0.023 HD
ATOM     73  H   UNL     1     154.166 160.764 190.206  0.00  0.00    +0.023 HD
ATOM     74  H   UNL     1     154.465 162.406 189.705  0.00  0.00    +0.023 HD
ENDBRANCH   7  71
BRANCH  31  75
ATOM     75  O   UNL     1     143.936 161.189 187.269  0.00  0.00    -0.391 OA
ATOM     76  H   UNL     1     143.769 161.560 186.388  0.00  0.00    +0.210 HD
ENDBRANCH  31  75
BRANCH  25  77
ATOM     77  C   UNL     1     142.113 167.271 190.526  0.00  0.00    +0.020 C 
ATOM     78  H   UNL     1     141.203 166.698 190.304  0.00  0.00    +0.036 HD
BRANCH  77  79
ATOM     79  C   UNL     1     142.184 167.296 192.062  0.00  0.00    -0.057 C 
ATOM     80  H   UNL     1     142.762 166.473 192.477  0.00  0.00    +0.023 HD
ATOM     81  H   UNL     1     141.180 167.266 192.500  0.00  0.00    +0.023 HD
ATOM     82  H   UNL     1     142.656 168.226 192.403  0.00  0.00    +0.023 HD
ENDBRANCH  77  79
BRANCH  77  83
ATOM     83  C   UNL     1     141.861 168.710 189.962  0.00  0.00    +0.067 C 
ATOM     84  H   UNL     1     142.580 168.866 189.143  0.00  0.00    +0.060 HD
BRANCH  83  85
ATOM     85  C   UNL     1     142.120 169.850 190.999  0.00  0.00    -0.017 C 
ATOM     86  H   UNL     1     142.022 169.463 192.012  0.00  0.00    +0.032 HD
BRANCH  85  87
ATOM     87  C   UNL     1     143.566 170.354 190.868  0.00  0.00    -0.060 C 
ATOM     88  H   UNL     1     144.134 169.720 190.183  0.00  0.00    +0.023 HD
ATOM     89  H   UNL     1     143.602 171.373 190.470  0.00  0.00    +0.023 HD
ATOM     90  H   UNL     1     144.077 170.351 191.836  0.00  0.00    +0.023 HD
ENDBRANCH  85  87
BRANCH  85  91
ATOM     91  C   UNL     1     141.151 171.052 190.893  0.00  0.00    -0.041 C 
ATOM     92  H   UNL     1     140.114 170.691 190.882  0.00  0.00    +0.027 HD
ATOM     93  H   UNL     1     141.296 171.567 189.935  0.00  0.00    +0.027 HD
BRANCH  91  94
ATOM     94  C   UNL     1     141.325 172.072 192.027  0.00  0.00    +0.007 C 
ATOM     95  H   UNL     1     140.658 171.790 192.849  0.00  0.00    +0.034 HD
ATOM     96  H   UNL     1     142.348 172.053 192.402  0.00  0.00    +0.034 HD
BRANCH  94  97
ATOM     97  C   UNL     1     140.977 173.502 191.620  0.00  0.00    +0.139 C 
ATOM     98  O   UNL     1     139.815 173.918 191.650  0.00  0.00    -0.297 OA
BRANCH  97  99
ATOM     99  C   UNL     1     142.099 174.467 191.235  0.00  0.00    +0.041 C 
ATOM    100  H   UNL     1     141.733 175.450 191.562  0.00  0.00    +0.040 HD
BRANCH  99 101
ATOM    101  C   UNL     1     142.311 174.622 189.731  0.00  0.00    -0.053 C 
ATOM    102  H   UNL     1     142.600 175.640 189.451  0.00  0.00    +0.024 HD
ATOM    103  H   UNL     1     141.399 174.366 189.182  0.00  0.00    +0.024 HD
ATOM    104  H   UNL     1     143.103 173.950 189.384  0.00  0.00    +0.024 HD
ENDBRANCH  99 101
BRANCH  99 105
ATOM    105  C   UNL     1     143.389 174.154 192.025  0.00  0.00    +0.071 C 
ATOM    106  H   UNL     1     143.212 173.319 192.717  0.00  0.00    +0.061 HD
BRANCH 105 107
ATOM    107  C   UNL     1     144.587 173.791 191.120  0.00  0.00    -0.006 C 
ATOM    108  H   UNL     1     144.318 172.978 190.441  0.00  0.00    +0.033 HD
ATOM    109  H   UNL     1     144.867 174.656 190.507  0.00  0.00    +0.033 HD
BRANCH 107 110
ATOM    110  C   UNL     1     145.793 173.322 191.899  0.00  0.00    -0.067 C 
ATOM    111  C   UNL     1     147.034 173.317 191.387  0.00  0.00    -0.005 C 
ATOM    112  H   UNL     1     145.596 172.961 192.903  0.00  0.00    +0.059 HD
ATOM    113  H   UNL     1     147.188 173.695 190.378  0.00  0.00    +0.078 HD
BRANCH 111 114
ATOM    114  N   UNL     1     148.176 172.867 192.032  0.00  0.00    -0.284 N 
ATOM    115  C   UNL     1     148.506 173.342 193.298  0.00  0.00    +0.206 C 
ATOM    116  O   UNL     1     149.483 173.023 193.967  0.00  0.00    -0.279 OA
ATOM    117  H   UNL     1     147.777 174.079 193.681  0.00  0.00    +0.126 HD
BRANCH 114 118
ATOM    118  C   UNL     1     149.062 171.888 191.420  0.00  0.00    +0.007 C 
ATOM    119  H   UNL     1     148.879 170.901 191.859  0.00  0.00    +0.043 HD
ATOM    120  H   UNL     1     148.902 171.812 190.342  0.00  0.00    +0.043 HD
ATOM    121  H   UNL     1     150.101 172.189 191.593  0.00  0.00    +0.043 HD
ENDBRANCH 114 118
ENDBRANCH 111 114
ENDBRANCH 107 110
ENDBRANCH 105 107
BRANCH 105 122
ATOM    122  O   UNL     1     143.776 175.325 192.772  0.00  0.00    -0.379 OA
BRANCH 122 123
ATOM    123  C   UNL     1     143.007 175.517 193.953  0.00  0.00    +0.037 C 
ATOM    124  H   UNL     1     143.509 176.269 194.567  0.00  0.00    +0.052 HD
ATOM    125  H   UNL     1     142.948 174.587 194.526  0.00  0.00    +0.052 HD
ATOM    126  H   UNL     1     142.003 175.877 193.715  0.00  0.00    +0.052 HD
ENDBRANCH 122 123
ENDBRANCH 105 122
ENDBRANCH  99 105
ENDBRANCH  97  99
ENDBRANCH  94  97
ENDBRANCH  91  94
ENDBRANCH  85  91
ENDBRANCH  83  85
BRANCH  83 127
ATOM    127  O   UNL     1     140.539 168.790 189.433  0.00  0.00    -0.379 OA
BRANCH 127 128
ATOM    128  C   UNL     1     140.457 168.501 188.040  0.00  0.00    +0.037 C 
ATOM    129  H   UNL     1     140.007 169.337 187.497  0.00  0.00    +0.052 HD
ATOM    130  H   UNL     1     139.820 167.621 187.919  0.00  0.00    +0.052 HD
ATOM    131  H   UNL     1     141.447 168.275 187.633  0.00  0.00    +0.052 HD
ENDBRANCH 127 128
ENDBRANCH  83 127
ENDBRANCH  77  83
ENDBRANCH  25  77
BRANCH   9 132
ATOM    132  O   UNL     1     149.929 163.610 189.571  0.00  0.00    -0.384 OA
ATOM    133  H   UNL     1     149.194 164.085 189.149  0.00  0.00    +0.210 HD
ENDBRANCH   9 132
BRANCH  29 134
ATOM    134  O   UNL     1     146.829 164.373 186.476  0.00  0.00    -0.376 OA
BRANCH 134 135
ATOM    135  C   UNL     1     148.236 164.171 186.449  0.00  0.00    +0.037 C 
ATOM    136  H   UNL     1     148.721 165.141 186.588  0.00  0.00    +0.052 HD
ATOM    137  H   UNL     1     148.556 163.513 187.263  0.00  0.00    +0.052 HD
ATOM    138  H   UNL     1     148.554 163.764 185.483  0.00  0.00    +0.052 HD
ENDBRANCH 134 135
ENDBRANCH  29 134
BRANCH   6 139
ATOM    139  O   UNL     1     151.882 159.808 191.070  0.00  0.00    -0.379 OA
BRANCH 139 140
ATOM    140  C   UNL     1     152.424 158.511 190.842  0.00  0.00    +0.037 C 
ATOM    141  H   UNL     1     151.684 157.770 191.158  0.00  0.00    +0.052 HD
ATOM    142  H   UNL     1     152.632 158.363 189.781  0.00  0.00    +0.052 HD
ATOM    143  H   UNL     1     153.337 158.361 191.424  0.00  0.00    +0.052 HD
ENDBRANCH 139 140
ENDBRANCH   6 139
BRANCH  16 144
ATOM    144  O   UNL     1     152.643 166.558 192.350  0.00  0.00    -0.379 OA
BRANCH 144 145
ATOM    145  C   UNL     1     153.414 167.544 193.023  0.00  0.00    +0.037 C 
ATOM    146  H   UNL     1     153.872 167.127 193.927  0.00  0.00    +0.052 HD
ATOM    147  H   UNL     1     152.743 168.357 193.320  0.00  0.00    +0.052 HD
ATOM    148  H   UNL     1     154.182 167.960 192.366  0.00  0.00    +0.052 HD
ENDBRANCH 144 145
ENDBRANCH  16 144
BRANCH   4 149
ATOM    149  O   UNL     1     149.963 158.590 188.419  0.00  0.00    -0.376 OA
BRANCH 149 150
ATOM    150  C   UNL     1     149.476 157.260 188.294  0.00  0.00    +0.037 C 
ATOM    151  H   UNL     1     148.385 157.234 188.368  0.00  0.00    +0.052 HD
ATOM    152  H   UNL     1     149.892 156.669 189.112  0.00  0.00    +0.052 HD
ATOM    153  H   UNL     1     149.800 156.812 187.351  0.00  0.00    +0.052 HD
ENDBRANCH 149 150
ENDBRANCH   4 149
TORSDOF 33
ENDMDL
MODEL 4
REMARK VINA RESULT:      -5.2      2.066      2.988
REMARK  Name = Sphinxolide B_conf1
REMARK  33 active torsions:
REMARK  status: ('A' for Active; 'I' for Inactive)
REMARK    1  A    between atoms: C_1  and  C_2
REMARK    2  A    between atoms: C_5  and  O_67
REMARK    3  A    between atoms: C_7  and  O_65
REMARK    4  A    between atoms: C_8  and  C_64
REMARK    5  A    between atoms: C_10  and  O_63
REMARK    6  A    between atoms: C_17  and  O_61
REMARK    7  A    between atoms: C_19  and  C_60
REMARK    8  A    between atoms: C_26  and  C_37
REMARK    9  A    between atoms: C_27  and  C_36
REMARK   10  A    between atoms: C_30  and  O_34
REMARK   11  A    between atoms: C_32  and  O_33
REMARK   12  A    between atoms: O_34  and  C_35
REMARK   13  A    between atoms: C_37  and  C_38
REMARK   14  A    between atoms: C_37  and  C_39
REMARK   15  A    between atoms: C_39  and  C_40
REMARK   16  A    between atoms: C_39  and  O_58
REMARK   17  A    between atoms: C_40  and  C_41
REMARK   18  A    between atoms: C_40  and  C_42
REMARK   19  A    between atoms: C_42  and  C_43
REMARK   20  A    between atoms: C_43  and  C_44
REMARK   21  A    between atoms: C_44  and  C_46
REMARK   22  A    between atoms: C_46  and  C_47
REMARK   23  A    between atoms: C_46  and  C_48
REMARK   24  A    between atoms: C_48  and  C_49
REMARK   25  A    between atoms: C_48  and  O_56
REMARK   26  A    between atoms: C_49  and  C_50
REMARK   27  A    between atoms: C_51  and  N_52
REMARK   28  A    between atoms: N_52  and  C_53
REMARK   29  A    between atoms: O_56  and  C_57
REMARK   30  A    between atoms: O_58  and  C_59
REMARK   31  A    between atoms: O_61  and  C_62
REMARK   32  A    between atoms: O_65  and  C_66
REMARK   33  A    between atoms: O_67  and  C_68
REMARK                            x       y       z     vdW  Elec       q    Type
REMARK                         _______ _______ _______ _____ _____    ______ ____
ROOT
ATOM      1  C   UNL     1     151.940 166.407 190.182  0.00  0.00    +0.000 C 
ATOM      2  C   UNL     1     151.498 165.076 189.606  0.00  0.00    -0.080 C 
ATOM      3  C   UNL     1     152.227 164.195 188.896  0.00  0.00    -0.059 C 
ATOM      4  C   UNL     1     151.752 162.874 188.304  0.00  0.00    +0.079 C 
ATOM      5  C   UNL     1     150.227 162.683 188.372  0.00  0.00    +0.004 C 
ATOM      6  C   UNL     1     149.712 161.359 187.785  0.00  0.00    +0.067 C 
ATOM      7  C   UNL     1     148.146 161.250 187.846  0.00  0.00    +0.022 C 
ATOM      8  C   UNL     1     147.603 161.346 189.314  0.00  0.00    +0.138 C 
ATOM      9  C   UNL     1     146.863 162.667 189.653  0.00  0.00    +0.114 C 
ATOM     10  C   UNL     1     145.495 162.663 189.016  0.00  0.00    -0.029 C 
ATOM     11  C   UNL     1     144.856 161.483 188.934  0.00  0.00    +0.024 C 
ATOM     12  C   UNL     1     145.434 160.225 189.443  0.00  0.00    +0.332 C 
ATOM     13  O   UNL     1     144.724 159.244 189.624  0.00  0.00    -0.246 OA
ATOM     14  O   UNL     1     146.768 160.215 189.682  0.00  0.00    -0.455 OA
ATOM     15  C   UNL     1     144.934 163.984 188.510  0.00  0.00    -0.002 C 
ATOM     16  C   UNL     1     143.503 164.007 187.922  0.00  0.00    +0.066 C 
ATOM     17  C   UNL     1     143.038 165.460 187.632  0.00  0.00    -0.005 C 
ATOM     18  C   UNL     1     143.925 166.276 186.703  0.00  0.00    -0.070 C 
ATOM     19  C   UNL     1     144.718 167.302 187.069  0.00  0.00    -0.062 C 
ATOM     20  C   UNL     1     144.930 167.814 188.406  0.00  0.00    -0.055 C 
ATOM     21  C   UNL     1     145.792 168.811 188.654  0.00  0.00    +0.023 C 
ATOM     22  C   UNL     1     146.003 169.287 190.036  0.00  0.00    +0.332 C 
ATOM     23  O   UNL     1     145.349 168.947 191.009  0.00  0.00    -0.246 OA
ATOM     24  O   UNL     1     147.058 170.133 190.008  0.00  0.00    -0.457 OA
ATOM     25  C   UNL     1     147.498 170.740 191.258  0.00  0.00    +0.114 C 
ATOM     26  C   UNL     1     148.990 170.326 191.457  0.00  0.00    +0.012 C 
ATOM     27  C   UNL     1     149.105 168.804 191.400  0.00  0.00    -0.079 C 
ATOM     28  C   UNL     1     149.430 167.950 192.385  0.00  0.00    -0.059 C 
ATOM     29  C   UNL     1     149.494 166.457 192.197  0.00  0.00    +0.079 C 
ATOM     30  C   UNL     1     150.872 165.851 192.521  0.00  0.00    +0.004 C 
ATOM     31  C   UNL     1     152.089 166.358 191.728  0.00  0.00    +0.064 C 
ATOM     32  H   UNL     1     151.158 167.133 189.930  0.00  0.00    +0.037 HD
ATOM     33  H   UNL     1     150.453 164.842 189.798  0.00  0.00    +0.057 HD
ATOM     34  H   UNL     1     153.271 164.418 188.693  0.00  0.00    +0.059 HD
ATOM     35  H   UNL     1     152.067 162.834 187.254  0.00  0.00    +0.064 HD
ATOM     36  H   UNL     1     149.928 162.728 189.424  0.00  0.00    +0.032 HD
ATOM     37  H   UNL     1     149.756 163.513 187.830  0.00  0.00    +0.032 HD
ATOM     38  H   UNL     1     150.146 160.518 188.343  0.00  0.00    +0.060 HD
ATOM     39  H   UNL     1     147.751 162.093 187.262  0.00  0.00    +0.036 HD
ATOM     40  H   UNL     1     148.456 161.274 189.999  0.00  0.00    +0.077 HD
ATOM     41  H   UNL     1     146.730 162.731 190.740  0.00  0.00    +0.068 HD
ATOM     42  H   UNL     1     143.861 161.370 188.517  0.00  0.00    +0.069 HD
ATOM     43  H   UNL     1     144.969 164.694 189.347  0.00  0.00    +0.034 HD
ATOM     44  H   UNL     1     145.627 164.339 187.736  0.00  0.00    +0.034 HD
ATOM     45  H   UNL     1     142.818 163.574 188.664  0.00  0.00    +0.060 HD
ATOM     46  H   UNL     1     142.917 165.970 188.594  0.00  0.00    +0.034 HD
ATOM     47  H   UNL     1     142.030 165.449 187.201  0.00  0.00    +0.034 HD
ATOM     48  H   UNL     1     145.292 167.807 186.288  0.00  0.00    +0.062 HD
ATOM     49  H   UNL     1     144.381 167.372 189.233  0.00  0.00    +0.062 HD
ATOM     50  H   UNL     1     146.371 169.292 187.873  0.00  0.00    +0.069 HD
ATOM     51  H   UNL     1     146.929 170.300 192.089  0.00  0.00    +0.074 HD
ATOM     52  H   UNL     1     149.573 170.669 190.594  0.00  0.00    +0.038 HD
ATOM     53  H   UNL     1     148.894 168.380 190.416  0.00  0.00    +0.057 HD
ATOM     54  H   UNL     1     149.657 168.305 193.387  0.00  0.00    +0.059 HD
ATOM     55  H   UNL     1     149.215 166.181 191.175  0.00  0.00    +0.064 HD
ATOM     56  H   UNL     1     150.795 164.762 192.397  0.00  0.00    +0.032 HD
ATOM     57  H   UNL     1     151.069 166.000 193.595  0.00  0.00    +0.032 HD
ATOM     58  H   UNL     1     152.928 165.695 191.980  0.00  0.00    +0.060 HD
ENDROOT
BRANCH   1  59
ATOM     59  C   UNL     1     153.221 166.958 189.529  0.00  0.00    -0.057 C 
ATOM     60  H   UNL     1     153.033 167.287 188.500  0.00  0.00    +0.024 HD
ATOM     61  H   UNL     1     153.594 167.831 190.077  0.00  0.00    +0.024 HD
ATOM     62  H   UNL     1     154.018 166.208 189.509  0.00  0.00    +0.024 HD
ENDBRANCH   1  59
BRANCH  26  63
ATOM     63  C   UNL     1     149.637 170.902 192.718  0.00  0.00    -0.056 C 
ATOM     64  H   UNL     1     148.970 171.602 193.231  0.00  0.00    +0.024 HD
ATOM     65  H   UNL     1     149.908 170.109 193.426  0.00  0.00    +0.024 HD
ATOM     66  H   UNL     1     150.571 171.418 192.490  0.00  0.00    +0.024 HD
ENDBRANCH  26  63
BRANCH  18  67
ATOM     67  C   UNL     1     143.857 165.885 185.245  0.00  0.00    -0.043 C 
ATOM     68  H   UNL     1     143.221 165.006 185.109  0.00  0.00    +0.027 HD
ATOM     69  H   UNL     1     144.842 165.639 184.836  0.00  0.00    +0.027 HD
ATOM     70  H   UNL     1     143.457 166.709 184.643  0.00  0.00    +0.027 HD
ENDBRANCH  18  67
BRANCH   7  71
ATOM     71  C   UNL     1     147.680 159.984 187.110  0.00  0.00    -0.057 C 
ATOM     72  H   UNL     1     148.494 159.259 187.009  0.00  0.00    +0.023 HD
ATOM     73  H   UNL     1     146.845 159.503 187.628  0.00  0.00    +0.023 HD
ATOM     74  H   UNL     1     147.307 160.220 186.108  0.00  0.00    +0.023 HD
ENDBRANCH   7  71
BRANCH  31  75
ATOM     75  O   UNL     1     152.443 167.651 192.238  0.00  0.00    -0.391 OA
ATOM     76  H   UNL     1     151.890 167.823 193.016  0.00  0.00    +0.210 HD
ENDBRANCH  31  75
BRANCH  25  77
ATOM     77  C   UNL     1     147.091 172.250 191.175  0.00  0.00    +0.020 C 
ATOM     78  H   UNL     1     147.942 172.803 191.593  0.00  0.00    +0.036 HD
BRANCH  77  79
ATOM     79  C   UNL     1     147.001 172.732 189.717  0.00  0.00    -0.057 C 
ATOM     80  H   UNL     1     146.623 173.749 189.626  0.00  0.00    +0.023 HD
ATOM     81  H   UNL     1     146.357 172.072 189.127  0.00  0.00    +0.023 HD
ATOM     82  H   UNL     1     147.994 172.714 189.252  0.00  0.00    +0.023 HD
ENDBRANCH  77  79
BRANCH  77  83
ATOM     83  C   UNL     1     145.837 172.713 191.989  0.00  0.00    +0.067 C 
ATOM     84  H   UNL     1     145.507 171.854 192.593  0.00  0.00    +0.060 HD
BRANCH  83  85
ATOM     85  C   UNL     1     144.618 173.118 191.096  0.00  0.00    -0.017 C 
ATOM     86  H   UNL     1     144.942 173.265 190.068  0.00  0.00    +0.032 HD
BRANCH  85  87
ATOM     87  C   UNL     1     143.594 171.972 191.066  0.00  0.00    -0.060 C 
ATOM     88  H   UNL     1     142.575 172.364 191.102  0.00  0.00    +0.023 HD
ATOM     89  H   UNL     1     143.680 171.380 190.149  0.00  0.00    +0.023 HD
ATOM     90  H   UNL     1     143.729 171.297 191.917  0.00  0.00    +0.023 HD
ENDBRANCH  85  87
BRANCH  85  91
ATOM     91  C   UNL     1     143.908 174.424 191.526  0.00  0.00    -0.041 C 
ATOM     92  H   UNL     1     143.617 174.996 190.637  0.00  0.00    +0.027 HD
ATOM     93  H   UNL     1     144.607 175.066 192.078  0.00  0.00    +0.027 HD
BRANCH  91  94
ATOM     94  C   UNL     1     142.673 174.179 192.405  0.00  0.00    +0.007 C 
ATOM     95  H   UNL     1     141.783 174.468 191.835  0.00  0.00    +0.034 HD
ATOM     96  H   UNL     1     142.585 173.122 192.653  0.00  0.00    +0.034 HD
BRANCH  94  97
ATOM     97  C   UNL     1     142.675 174.990 193.699  0.00  0.00    +0.139 C 
ATOM     98  O   UNL     1     143.624 175.718 194.005  0.00  0.00    -0.297 OA
BRANCH  97  99
ATOM     99  C   UNL     1     141.444 174.957 194.607  0.00  0.00    +0.041 C 
ATOM    100  H   UNL     1     141.798 174.463 195.522  0.00  0.00    +0.040 HD
BRANCH  99 101
ATOM    101  C   UNL     1     140.312 174.064 194.106  0.00  0.00    -0.053 C 
ATOM    102  H   UNL     1     140.659 173.063 193.828  0.00  0.00    +0.024 HD
ATOM    103  H   UNL     1     139.825 174.508 193.232  0.00  0.00    +0.024 HD
ATOM    104  H   UNL     1     139.549 173.942 194.881  0.00  0.00    +0.024 HD
ENDBRANCH  99 101
BRANCH  99 105
ATOM    105  C   UNL     1     141.000 176.389 194.982  0.00  0.00    +0.071 C 
ATOM    106  H   UNL     1     141.870 177.060 194.997  0.00  0.00    +0.061 HD
BRANCH 105 107
ATOM    107  C   UNL     1     139.948 176.975 194.015  0.00  0.00    -0.006 C 
ATOM    108  H   UNL     1     139.491 176.179 193.423  0.00  0.00    +0.033 HD
ATOM    109  H   UNL     1     139.150 177.465 194.585  0.00  0.00    +0.033 HD
BRANCH 107 110
ATOM    110  C   UNL     1     140.536 177.961 193.033  0.00  0.00    -0.067 C 
ATOM    111  C   UNL     1     141.154 177.583 191.903  0.00  0.00    -0.005 C 
ATOM    112  H   UNL     1     140.450 179.008 193.306  0.00  0.00    +0.059 HD
ATOM    113  H   UNL     1     141.210 176.523 191.664  0.00  0.00    +0.078 HD
BRANCH 111 114
ATOM    114  N   UNL     1     141.745 178.432 190.979  0.00  0.00    -0.284 N 
ATOM    115  C   UNL     1     143.059 178.226 190.569  0.00  0.00    +0.206 C 
ATOM    116  O   UNL     1     143.688 178.903 189.764  0.00  0.00    -0.279 OA
ATOM    117  H   UNL     1     143.526 177.352 191.058  0.00  0.00    +0.126 HD
BRANCH 114 118
ATOM    118  C   UNL     1     141.021 179.555 190.403  0.00  0.00    +0.007 C 
ATOM    119  H   UNL     1     140.149 179.188 189.851  0.00  0.00    +0.043 HD
ATOM    120  H   UNL     1     140.665 180.247 191.172  0.00  0.00    +0.043 HD
ATOM    121  H   UNL     1     141.689 180.103 189.730  0.00  0.00    +0.043 HD
ENDBRANCH 114 118
ENDBRANCH 111 114
ENDBRANCH 107 110
ENDBRANCH 105 107
BRANCH 105 122
ATOM    122  O   UNL     1     140.390 176.362 196.288  0.00  0.00    -0.379 OA
BRANCH 122 123
ATOM    123  C   UNL     1     139.036 176.796 196.286  0.00  0.00    +0.037 C 
ATOM    124  H   UNL     1     138.759 177.042 195.257  0.00  0.00    +0.052 HD
ATOM    125  H   UNL     1     138.921 177.694 196.899  0.00  0.00    +0.052 HD
ATOM    126  H   UNL     1     138.369 176.008 196.645  0.00  0.00    +0.052 HD
ENDBRANCH 122 123
ENDBRANCH 105 122
ENDBRANCH  99 105
ENDBRANCH  97  99
ENDBRANCH  94  97
ENDBRANCH  91  94
ENDBRANCH  85  91
ENDBRANCH  83  85
BRANCH  83 127
ATOM    127  O   UNL     1     146.203 173.777 192.866  0.00  0.00    -0.379 OA
BRANCH 127 128
ATOM    128  C   UNL     1     147.353 173.498 193.661  0.00  0.00    +0.037 C 
ATOM    129  H   UNL     1     148.236 173.365 193.029  0.00  0.00    +0.052 HD
ATOM    130  H   UNL     1     147.166 172.567 194.203  0.00  0.00    +0.052 HD
ATOM    131  H   UNL     1     147.524 174.298 194.386  0.00  0.00    +0.052 HD
ENDBRANCH 127 128
ENDBRANCH  83 127
ENDBRANCH  77  83
ENDBRANCH  25  77
BRANCH   9 132
ATOM    132  O   UNL     1     147.616 163.798 189.248  0.00  0.00    -0.384 OA
ATOM    133  H   UNL     1     148.342 163.479 188.685  0.00  0.00    +0.210 HD
ENDBRANCH   9 132
BRANCH  29 134
ATOM    134  O   UNL     1     148.558 165.829 193.090  0.00  0.00    -0.376 OA
BRANCH 134 135
ATOM    135  C   UNL     1     148.736 166.183 194.456  0.00  0.00    +0.037 C 
ATOM    136  H   UNL     1     148.643 167.270 194.539  0.00  0.00    +0.052 HD
ATOM    137  H   UNL     1     147.966 165.729 195.085  0.00  0.00    +0.052 HD
ATOM    138  H   UNL     1     149.734 165.897 194.807  0.00  0.00    +0.052 HD
ENDBRANCH 134 135
ENDBRANCH  29 134
BRANCH   6 139
ATOM    139  O   UNL     1     150.123 161.318 186.406  0.00  0.00    -0.379 OA
BRANCH 139 140
ATOM    140  C   UNL     1     149.626 162.415 185.646  0.00  0.00    +0.037 C 
ATOM    141  H   UNL     1     150.454 163.106 185.459  0.00  0.00    +0.052 HD
ATOM    142  H   UNL     1     149.237 162.071 184.686  0.00  0.00    +0.052 HD
ATOM    143  H   UNL     1     148.845 162.948 186.195  0.00  0.00    +0.052 HD
ENDBRANCH 139 140
ENDBRANCH   6 139
BRANCH  16 144
ATOM    144  O   UNL     1     143.479 163.195 186.739  0.00  0.00    -0.379 OA
BRANCH 144 145
ATOM    145  C   UNL     1     142.192 162.690 186.409  0.00  0.00    +0.037 C 
ATOM    146  H   UNL     1     141.881 161.924 187.127  0.00  0.00    +0.052 HD
ATOM    147  H   UNL     1     142.251 162.230 185.417  0.00  0.00    +0.052 HD
ATOM    148  H   UNL     1     141.452 163.494 186.366  0.00  0.00    +0.052 HD
ENDBRANCH 144 145
ENDBRANCH  16 144
BRANCH   4 149
ATOM    149  O   UNL     1     152.360 161.804 189.042  0.00  0.00    -0.376 OA
BRANCH 149 150
ATOM    150  C   UNL     1     152.168 161.899 190.447  0.00  0.00    +0.037 C 
ATOM    151  H   UNL     1     151.942 160.919 190.878  0.00  0.00    +0.052 HD
ATOM    152  H   UNL     1     151.318 162.560 190.628  0.00  0.00    +0.052 HD
ATOM    153  H   UNL     1     153.045 162.332 190.934  0.00  0.00    +0.052 HD
ENDBRANCH 149 150
ENDBRANCH   4 149
TORSDOF 33
ENDMDL
MODEL 5
REMARK VINA RESULT:      -5.1      1.583      2.470
REMARK  Name = Sphinxolide B_conf1
REMARK  33 active torsions:
REMARK  status: ('A' for Active; 'I' for Inactive)
REMARK    1  A    between atoms: C_1  and  C_2
REMARK    2  A    between atoms: C_5  and  O_67
REMARK    3  A    between atoms: C_7  and  O_65
REMARK    4  A    between atoms: C_8  and  C_64
REMARK    5  A    between atoms: C_10  and  O_63
REMARK    6  A    between atoms: C_17  and  O_61
REMARK    7  A    between atoms: C_19  and  C_60
REMARK    8  A    between atoms: C_26  and  C_37
REMARK    9  A    between atoms: C_27  and  C_36
REMARK   10  A    between atoms: C_30  and  O_34
REMARK   11  A    between atoms: C_32  and  O_33
REMARK   12  A    between atoms: O_34  and  C_35
REMARK   13  A    between atoms: C_37  and  C_38
REMARK   14  A    between atoms: C_37  and  C_39
REMARK   15  A    between atoms: C_39  and  C_40
REMARK   16  A    between atoms: C_39  and  O_58
REMARK   17  A    between atoms: C_40  and  C_41
REMARK   18  A    between atoms: C_40  and  C_42
REMARK   19  A    between atoms: C_42  and  C_43
REMARK   20  A    between atoms: C_43  and  C_44
REMARK   21  A    between atoms: C_44  and  C_46
REMARK   22  A    between atoms: C_46  and  C_47
REMARK   23  A    between atoms: C_46  and  C_48
REMARK   24  A    between atoms: C_48  and  C_49
REMARK   25  A    between atoms: C_48  and  O_56
REMARK   26  A    between atoms: C_49  and  C_50
REMARK   27  A    between atoms: C_51  and  N_52
REMARK   28  A    between atoms: N_52  and  C_53
REMARK   29  A    between atoms: O_56  and  C_57
REMARK   30  A    between atoms: O_58  and  C_59
REMARK   31  A    between atoms: O_61  and  C_62
REMARK   32  A    between atoms: O_65  and  C_66
REMARK   33  A    between atoms: O_67  and  C_68
REMARK                            x       y       z     vdW  Elec       q    Type
REMARK                         _______ _______ _______ _____ _____    ______ ____
ROOT
ATOM      1  C   UNL     1     151.654 166.632 190.638  0.00  0.00    +0.000 C 
ATOM      2  C   UNL     1     151.512 165.181 190.223  0.00  0.00    -0.080 C 
ATOM      3  C   UNL     1     152.460 164.357 189.739  0.00  0.00    -0.059 C 
ATOM      4  C   UNL     1     152.286 162.909 189.303  0.00  0.00    +0.079 C 
ATOM      5  C   UNL     1     150.816 162.462 189.228  0.00  0.00    +0.004 C 
ATOM      6  C   UNL     1     150.602 161.004 188.792  0.00  0.00    +0.067 C 
ATOM      7  C   UNL     1     149.080 160.629 188.694  0.00  0.00    +0.022 C 
ATOM      8  C   UNL     1     148.334 160.816 190.061  0.00  0.00    +0.138 C 
ATOM      9  C   UNL     1     147.355 162.018 190.112  0.00  0.00    +0.114 C 
ATOM     10  C   UNL     1     146.103 161.691 189.334  0.00  0.00    -0.029 C 
ATOM     11  C   UNL     1     145.677 160.416 189.359  0.00  0.00    +0.024 C 
ATOM     12  C   UNL     1     146.373 159.357 190.113  0.00  0.00    +0.332 C 
ATOM     13  O   UNL     1     145.810 158.297 190.359  0.00  0.00    -0.246 OA
ATOM     14  O   UNL     1     147.647 159.613 190.498  0.00  0.00    -0.455 OA
ATOM     15  C   UNL     1     145.414 162.816 188.576  0.00  0.00    -0.002 C 
ATOM     16  C   UNL     1     144.091 162.510 187.835  0.00  0.00    +0.066 C 
ATOM     17  C   UNL     1     143.445 163.808 187.279  0.00  0.00    -0.005 C 
ATOM     18  C   UNL     1     144.309 164.642 186.344  0.00  0.00    -0.070 C 
ATOM     19  C   UNL     1     144.872 165.830 186.638  0.00  0.00    -0.062 C 
ATOM     20  C   UNL     1     144.816 166.540 187.898  0.00  0.00    -0.055 C 
ATOM     21  C   UNL     1     145.468 167.697 188.089  0.00  0.00    +0.023 C 
ATOM     22  C   UNL     1     145.411 168.376 189.398  0.00  0.00    +0.332 C 
ATOM     23  O   UNL     1     144.693 168.055 190.332  0.00  0.00    -0.246 OA
ATOM     24  O   UNL     1     146.311 169.384 189.361  0.00  0.00    -0.457 OA
ATOM     25  C   UNL     1     146.476 170.216 190.547  0.00  0.00    +0.114 C 
ATOM     26  C   UNL     1     147.975 170.100 190.972  0.00  0.00    +0.012 C 
ATOM     27  C   UNL     1     148.336 168.628 191.157  0.00  0.00    -0.079 C 
ATOM     28  C   UNL     1     148.656 167.979 192.290  0.00  0.00    -0.059 C 
ATOM     29  C   UNL     1     148.981 166.510 192.336  0.00  0.00    +0.079 C 
ATOM     30  C   UNL     1     150.381 166.203 192.900  0.00  0.00    +0.004 C 
ATOM     31  C   UNL     1     151.598 166.810 192.181  0.00  0.00    +0.064 C 
ATOM     32  H   UNL     1     150.808 167.170 190.194  0.00  0.00    +0.037 HD
ATOM     33  H   UNL     1     150.500 164.793 190.330  0.00  0.00    +0.057 HD
ATOM     34  H   UNL     1     153.474 164.733 189.623  0.00  0.00    +0.059 HD
ATOM     35  H   UNL     1     152.743 162.789 188.312  0.00  0.00    +0.064 HD
ATOM     36  H   UNL     1     150.374 162.589 190.221  0.00  0.00    +0.032 HD
ATOM     37  H   UNL     1     150.297 163.119 188.518  0.00  0.00    +0.032 HD
ATOM     38  H   UNL     1     151.085 160.331 189.515  0.00  0.00    +0.060 HD
ATOM     39  H   UNL     1     148.638 161.307 187.949  0.00  0.00    +0.036 HD
ATOM     40  H   UNL     1     149.087 160.985 190.840  0.00  0.00    +0.077 HD
ATOM     41  H   UNL     1     147.068 162.198 191.155  0.00  0.00    +0.068 HD
ATOM     42  H   UNL     1     144.779 160.077 188.855  0.00  0.00    +0.069 HD
ATOM     43  H   UNL     1     145.222 163.623 189.295  0.00  0.00    +0.034 HD
ATOM     44  H   UNL     1     146.140 163.185 187.840  0.00  0.00    +0.034 HD
ATOM     45  H   UNL     1     143.389 162.063 188.552  0.00  0.00    +0.060 HD
ATOM     46  H   UNL     1     143.115 164.409 188.134  0.00  0.00    +0.034 HD
ATOM     47  H   UNL     1     142.519 163.564 186.745  0.00  0.00    +0.034 HD
ATOM     48  H   UNL     1     145.459 166.323 185.859  0.00  0.00    +0.062 HD
ATOM     49  H   UNL     1     144.237 166.118 188.715  0.00  0.00    +0.062 HD
ATOM     50  H   UNL     1     146.063 168.167 187.314  0.00  0.00    +0.069 HD
ATOM     51  H   UNL     1     145.877 169.793 191.366  0.00  0.00    +0.074 HD
ATOM     52  H   UNL     1     148.607 170.426 190.138  0.00  0.00    +0.038 HD
ATOM     53  H   UNL     1     148.331 168.050 190.231  0.00  0.00    +0.057 HD
ATOM     54  H   UNL     1     148.685 168.495 193.246  0.00  0.00    +0.059 HD
ATOM     55  H   UNL     1     148.890 166.058 191.343  0.00  0.00    +0.064 HD
ATOM     56  H   UNL     1     150.496 165.111 192.933  0.00  0.00    +0.032 HD
ATOM     57  H   UNL     1     150.405 166.521 193.954  0.00  0.00    +0.032 HD
ATOM     58  H   UNL     1     152.489 166.344 192.621  0.00  0.00    +0.060 HD
ENDROOT
BRANCH   1  59
ATOM     59  C   UNL     1     152.908 167.311 190.057  0.00  0.00    -0.057 C 
ATOM     60  H   UNL     1     153.823 166.811 190.396  0.00  0.00    +0.024 HD
ATOM     61  H   UNL     1     152.907 167.262 188.962  0.00  0.00    +0.024 HD
ATOM     62  H   UNL     1     152.967 168.365 190.347  0.00  0.00    +0.024 HD
ENDBRANCH   1  59
BRANCH  26  63
ATOM     63  C   UNL     1     148.344 170.940 192.196  0.00  0.00    -0.056 C 
ATOM     64  H   UNL     1     148.891 170.351 192.940  0.00  0.00    +0.024 HD
ATOM     65  H   UNL     1     148.967 171.799 191.918  0.00  0.00    +0.024 HD
ATOM     66  H   UNL     1     147.461 171.366 192.673  0.00  0.00    +0.024 HD
ENDBRANCH  26  63
BRANCH  18  67
ATOM     67  C   UNL     1     144.502 164.060 184.963  0.00  0.00    -0.043 C 
ATOM     68  H   UNL     1     143.539 163.810 184.509  0.00  0.00    +0.027 HD
ATOM     69  H   UNL     1     145.100 163.144 184.980  0.00  0.00    +0.027 HD
ATOM     70  H   UNL     1     145.025 164.772 184.314  0.00  0.00    +0.027 HD
ENDBRANCH  18  67
BRANCH   7  71
ATOM     71  C   UNL     1     148.924 159.216 188.109  0.00  0.00    -0.057 C 
ATOM     72  H   UNL     1     149.663 158.526 188.531  0.00  0.00    +0.023 HD
ATOM     73  H   UNL     1     147.924 158.814 188.291  0.00  0.00    +0.023 HD
ATOM     74  H   UNL     1     149.045 159.220 187.021  0.00  0.00    +0.023 HD
ENDBRANCH   7  71
BRANCH  31  75
ATOM     75  O   UNL     1     151.670 168.199 192.527  0.00  0.00    -0.391 OA
ATOM     76  H   UNL     1     150.805 168.460 192.882  0.00  0.00    +0.210 HD
ENDBRANCH  31  75
BRANCH  25  77
ATOM     77  C   UNL     1     145.850 171.606 190.193  0.00  0.00    +0.020 C 
ATOM     78  H   UNL     1     146.522 172.350 190.642  0.00  0.00    +0.036 HD
BRANCH  77  79
ATOM     79  C   UNL     1     145.919 171.890 188.683  0.00  0.00    -0.057 C 
ATOM     80  H   UNL     1     146.886 172.274 188.364  0.00  0.00    +0.023 HD
ATOM     81  H   UNL     1     145.147 172.609 188.386  0.00  0.00    +0.023 HD
ATOM     82  H   UNL     1     145.735 170.968 188.118  0.00  0.00    +0.023 HD
ENDBRANCH  77  79
BRANCH  77  83
ATOM     83  C   UNL     1     144.423 171.927 190.752  0.00  0.00    +0.067 C 
ATOM     84  H   UNL     1     143.790 172.188 189.890  0.00  0.00    +0.060 HD
BRANCH  83  85
ATOM     85  C   UNL     1     144.384 173.157 191.716  0.00  0.00    -0.017 C 
ATOM     86  H   UNL     1     143.723 172.952 192.556  0.00  0.00    +0.032 HD
BRANCH  85  87
ATOM     87  C   UNL     1     145.780 173.393 192.314  0.00  0.00    -0.060 C 
ATOM     88  H   UNL     1     146.200 172.458 192.694  0.00  0.00    +0.023 HD
ATOM     89  H   UNL     1     146.478 173.780 191.565  0.00  0.00    +0.023 HD
ATOM     90  H   UNL     1     145.742 174.108 193.142  0.00  0.00    +0.023 HD
ENDBRANCH  85  87
BRANCH  85  91
ATOM     91  C   UNL     1     143.879 174.469 191.069  0.00  0.00    -0.041 C 
ATOM     92  H   UNL     1     143.866 174.362 189.978  0.00  0.00    +0.027 HD
ATOM     93  H   UNL     1     144.583 175.285 191.279  0.00  0.00    +0.027 HD
BRANCH  91  94
ATOM     94  C   UNL     1     142.486 174.888 191.560  0.00  0.00    +0.007 C 
ATOM     95  H   UNL     1     142.180 175.782 191.003  0.00  0.00    +0.034 HD
ATOM     96  H   UNL     1     141.759 174.102 191.359  0.00  0.00    +0.034 HD
BRANCH  94  97
ATOM     97  C   UNL     1     142.440 175.233 193.047  0.00  0.00    +0.139 C 
ATOM     98  O   UNL     1     143.333 175.895 193.584  0.00  0.00    -0.297 OA
BRANCH  97  99
ATOM     99  C   UNL     1     141.228 174.811 193.878  0.00  0.00    +0.041 C 
ATOM    100  H   UNL     1     141.575 174.886 194.917  0.00  0.00    +0.040 HD
BRANCH  99 101
ATOM    101  C   UNL     1     140.828 173.347 193.715  0.00  0.00    -0.053 C 
ATOM    102  H   UNL     1     139.789 173.229 193.389  0.00  0.00    +0.024 HD
ATOM    103  H   UNL     1     140.949 172.804 194.658  0.00  0.00    +0.024 HD
ATOM    104  H   UNL     1     141.463 172.857 192.970  0.00  0.00    +0.024 HD
ENDBRANCH  99 101
BRANCH  99 105
ATOM    105  C   UNL     1     140.062 175.808 193.695  0.00  0.00    +0.071 C 
ATOM    106  H   UNL     1     140.043 176.177 192.660  0.00  0.00    +0.061 HD
BRANCH 105 107
ATOM    107  C   UNL     1     138.681 175.199 194.020  0.00  0.00    -0.006 C 
ATOM    108  H   UNL     1     137.890 175.754 193.510  0.00  0.00    +0.033 HD
ATOM    109  H   UNL     1     138.638 174.161 193.667  0.00  0.00    +0.033 HD
BRANCH 107 110
ATOM    110  C   UNL     1     138.353 175.236 195.494  0.00  0.00    -0.067 C 
ATOM    111  C   UNL     1     137.388 174.483 196.046  0.00  0.00    -0.005 C 
ATOM    112  H   UNL     1     138.933 175.935 196.089  0.00  0.00    +0.059 HD
ATOM    113  H   UNL     1     136.836 173.791 195.413  0.00  0.00    +0.078 HD
BRANCH 111 114
ATOM    114  N   UNL     1     137.013 174.496 197.381  0.00  0.00    -0.284 N 
ATOM    115  C   UNL     1     136.623 173.321 198.017  0.00  0.00    +0.206 C 
ATOM    116  O   UNL     1     136.271 173.204 199.185  0.00  0.00    -0.279 OA
ATOM    117  H   UNL     1     136.652 172.443 197.346  0.00  0.00    +0.126 HD
BRANCH 114 118
ATOM    118  C   UNL     1     137.017 175.724 198.163  0.00  0.00    +0.007 C 
ATOM    119  H   UNL     1     136.628 175.522 199.166  0.00  0.00    +0.043 HD
ATOM    120  H   UNL     1     138.024 176.136 198.268  0.00  0.00    +0.043 HD
ATOM    121  H   UNL     1     136.392 176.469 197.659  0.00  0.00    +0.043 HD
ENDBRANCH 114 118
ENDBRANCH 111 114
ENDBRANCH 107 110
ENDBRANCH 105 107
BRANCH 105 122
ATOM    122  O   UNL     1     140.247 176.916 194.598  0.00  0.00    -0.379 OA
BRANCH 122 123
ATOM    123  C   UNL     1     140.108 178.184 193.969  0.00  0.00    +0.037 C 
ATOM    124  H   UNL     1     140.991 178.782 194.207  0.00  0.00    +0.052 HD
ATOM    125  H   UNL     1     139.225 178.705 194.352  0.00  0.00    +0.052 HD
ATOM    126  H   UNL     1     140.041 178.080 192.883  0.00  0.00    +0.052 HD
ENDBRANCH 122 123
ENDBRANCH 105 122
ENDBRANCH  99 105
ENDBRANCH  97  99
ENDBRANCH  94  97
ENDBRANCH  91  94
ENDBRANCH  85  91
ENDBRANCH  83  85
BRANCH  83 127
ATOM    127  O   UNL     1     143.885 170.766 191.382  0.00  0.00    -0.379 OA
BRANCH 127 128
ATOM    128  C   UNL     1     142.461 170.712 191.370  0.00  0.00    +0.037 C 
ATOM    129  H   UNL     1     142.048 171.211 192.251  0.00  0.00    +0.052 HD
ATOM    130  H   UNL     1     142.167 169.659 191.393  0.00  0.00    +0.052 HD
ATOM    131  H   UNL     1     142.064 171.167 190.458  0.00  0.00    +0.052 HD
ENDBRANCH 127 128
ENDBRANCH  83 127
ENDBRANCH  77  83
ENDBRANCH  25  77
BRANCH   9 132
ATOM    132  O   UNL     1     147.967 163.203 189.629  0.00  0.00    -0.384 OA
ATOM    133  H   UNL     1     147.318 163.922 189.716  0.00  0.00    +0.210 HD
ENDBRANCH   9 132
BRANCH  29 134
ATOM    134  O   UNL     1     148.044 165.847 193.203  0.00  0.00    -0.376 OA
BRANCH 134 135
ATOM    135  C   UNL     1     148.183 166.193 194.575  0.00  0.00    +0.037 C 
ATOM    136  H   UNL     1     148.761 167.120 194.635  0.00  0.00    +0.052 HD
ATOM    137  H   UNL     1     147.208 166.373 195.038  0.00  0.00    +0.052 HD
ATOM    138  H   UNL     1     148.726 165.415 195.122  0.00  0.00    +0.052 HD
ENDBRANCH 134 135
ENDBRANCH  29 134
BRANCH   6 139
ATOM    139  O   UNL     1     151.197 160.858 187.490  0.00  0.00    -0.379 OA
BRANCH 139 140
ATOM    140  C   UNL     1     152.278 159.930 187.474  0.00  0.00    +0.037 C 
ATOM    141  H   UNL     1     152.667 159.840 188.493  0.00  0.00    +0.052 HD
ATOM    142  H   UNL     1     151.934 158.947 187.145  0.00  0.00    +0.052 HD
ATOM    143  H   UNL     1     153.083 160.279 186.822  0.00  0.00    +0.052 HD
ENDBRANCH 139 140
ENDBRANCH   6 139
BRANCH  16 144
ATOM    144  O   UNL     1     144.356 161.561 186.792  0.00  0.00    -0.379 OA
BRANCH 144 145
ATOM    145  C   UNL     1     143.207 160.856 186.343  0.00  0.00    +0.037 C 
ATOM    146  H   UNL     1     143.210 160.766 185.252  0.00  0.00    +0.052 HD
ATOM    147  H   UNL     1     142.321 161.426 186.640  0.00  0.00    +0.052 HD
ATOM    148  H   UNL     1     143.146 159.867 186.805  0.00  0.00    +0.052 HD
ENDBRANCH 144 145
ENDBRANCH  16 144
BRANCH   4 149
ATOM    149  O   UNL     1     152.951 162.067 190.256  0.00  0.00    -0.376 OA
BRANCH 149 150
ATOM    150  C   UNL     1     154.365 162.049 190.112  0.00  0.00    +0.037 C 
ATOM    151  H   UNL     1     154.817 162.931 190.574  0.00  0.00    +0.052 HD
ATOM    152  H   UNL     1     154.596 162.062 189.045  0.00  0.00    +0.052 HD
ATOM    153  H   UNL     1     154.791 161.139 190.542  0.00  0.00    +0.052 HD
ENDBRANCH 149 150
ENDBRANCH   4 149
TORSDOF 33
ENDMDL
MODEL 6
REMARK VINA RESULT:      -5.1      1.005      2.392
REMARK  Name = Sphinxolide B_conf1
REMARK  33 active torsions:
REMARK  status: ('A' for Active; 'I' for Inactive)
REMARK    1  A    between atoms: C_1  and  C_2
REMARK    2  A    between atoms: C_5  and  O_67
REMARK    3  A    between atoms: C_7  and  O_65
REMARK    4  A    between atoms: C_8  and  C_64
REMARK    5  A    between atoms: C_10  and  O_63
REMARK    6  A    between atoms: C_17  and  O_61
REMARK    7  A    between atoms: C_19  and  C_60
REMARK    8  A    between atoms: C_26  and  C_37
REMARK    9  A    between atoms: C_27  and  C_36
REMARK   10  A    between atoms: C_30  and  O_34
REMARK   11  A    between atoms: C_32  and  O_33
REMARK   12  A    between atoms: O_34  and  C_35
REMARK   13  A    between atoms: C_37  and  C_38
REMARK   14  A    between atoms: C_37  and  C_39
REMARK   15  A    between atoms: C_39  and  C_40
REMARK   16  A    between atoms: C_39  and  O_58
REMARK   17  A    between atoms: C_40  and  C_41
REMARK   18  A    between atoms: C_40  and  C_42
REMARK   19  A    between atoms: C_42  and  C_43
REMARK   20  A    between atoms: C_43  and  C_44
REMARK   21  A    between atoms: C_44  and  C_46
REMARK   22  A    between atoms: C_46  and  C_47
REMARK   23  A    between atoms: C_46  and  C_48
REMARK   24  A    between atoms: C_48  and  C_49
REMARK   25  A    between atoms: C_48  and  O_56
REMARK   26  A    between atoms: C_49  and  C_50
REMARK   27  A    between atoms: C_51  and  N_52
REMARK   28  A    between atoms: N_52  and  C_53
REMARK   29  A    between atoms: O_56  and  C_57
REMARK   30  A    between atoms: O_58  and  C_59
REMARK   31  A    between atoms: O_61  and  C_62
REMARK   32  A    between atoms: O_65  and  C_66
REMARK   33  A    between atoms: O_67  and  C_68
REMARK                            x       y       z     vdW  Elec       q    Type
REMARK                         _______ _______ _______ _____ _____    ______ ____
ROOT
ATOM      1  C   UNL     1     151.888 166.280 190.415  0.00  0.00    +0.000 C 
ATOM      2  C   UNL     1     151.784 164.819 190.021  0.00  0.00    -0.080 C 
ATOM      3  C   UNL     1     152.747 164.020 189.526  0.00  0.00    -0.059 C 
ATOM      4  C   UNL     1     152.610 162.561 189.112  0.00  0.00    +0.079 C 
ATOM      5  C   UNL     1     151.154 162.067 189.076  0.00  0.00    +0.004 C 
ATOM      6  C   UNL     1     150.978 160.597 188.664  0.00  0.00    +0.067 C 
ATOM      7  C   UNL     1     149.467 160.172 188.605  0.00  0.00    +0.022 C 
ATOM      8  C   UNL     1     148.746 160.353 189.986  0.00  0.00    +0.138 C 
ATOM      9  C   UNL     1     147.730 161.524 190.045  0.00  0.00    +0.114 C 
ATOM     10  C   UNL     1     146.473 161.146 189.300  0.00  0.00    -0.029 C 
ATOM     11  C   UNL     1     146.089 159.859 189.351  0.00  0.00    +0.024 C 
ATOM     12  C   UNL     1     146.836 158.832 190.102  0.00  0.00    +0.332 C 
ATOM     13  O   UNL     1     146.313 157.758 190.373  0.00  0.00    -0.246 OA
ATOM     14  O   UNL     1     148.109 159.134 190.454  0.00  0.00    -0.455 OA
ATOM     15  C   UNL     1     145.731 162.239 188.544  0.00  0.00    -0.002 C 
ATOM     16  C   UNL     1     144.401 161.880 187.837  0.00  0.00    +0.066 C 
ATOM     17  C   UNL     1     143.701 163.150 187.281  0.00  0.00    -0.005 C 
ATOM     18  C   UNL     1     144.516 163.998 186.315  0.00  0.00    -0.070 C 
ATOM     19  C   UNL     1     145.047 165.208 186.582  0.00  0.00    -0.062 C 
ATOM     20  C   UNL     1     144.997 165.932 187.834  0.00  0.00    -0.055 C 
ATOM     21  C   UNL     1     145.615 167.111 187.995  0.00  0.00    +0.023 C 
ATOM     22  C   UNL     1     145.565 167.806 189.297  0.00  0.00    +0.332 C 
ATOM     23  O   UNL     1     144.879 167.474 190.251  0.00  0.00    -0.246 OA
ATOM     24  O   UNL     1     146.432 168.842 189.227  0.00  0.00    -0.457 OA
ATOM     25  C   UNL     1     146.596 169.694 190.399  0.00  0.00    +0.114 C 
ATOM     26  C   UNL     1     148.107 169.632 190.790  0.00  0.00    +0.012 C 
ATOM     27  C   UNL     1     148.520 168.175 190.985  0.00  0.00    -0.079 C 
ATOM     28  C   UNL     1     148.886 167.552 192.118  0.00  0.00    -0.059 C 
ATOM     29  C   UNL     1     149.260 166.094 192.176  0.00  0.00    +0.079 C 
ATOM     30  C   UNL     1     150.681 165.839 192.711  0.00  0.00    +0.004 C 
ATOM     31  C   UNL     1     151.861 166.476 191.956  0.00  0.00    +0.064 C 
ATOM     32  H   UNL     1     151.016 166.784 189.984  0.00  0.00    +0.037 HD
ATOM     33  H   UNL     1     150.788 164.400 190.156  0.00  0.00    +0.057 HD
ATOM     34  H   UNL     1     153.745 164.427 189.382  0.00  0.00    +0.059 HD
ATOM     35  H   UNL     1     153.048 162.444 188.113  0.00  0.00    +0.064 HD
ATOM     36  H   UNL     1     150.730 162.193 190.077  0.00  0.00    +0.032 HD
ATOM     37  H   UNL     1     150.598 162.697 188.371  0.00  0.00    +0.032 HD
ATOM     38  H   UNL     1     151.498 159.949 189.384  0.00  0.00    +0.060 HD
ATOM     39  H   UNL     1     148.987 160.825 187.862  0.00  0.00    +0.036 HD
ATOM     40  H   UNL     1     149.510 160.556 190.746  0.00  0.00    +0.077 HD
ATOM     41  H   UNL     1     147.461 161.707 191.092  0.00  0.00    +0.068 HD
ATOM     42  H   UNL     1     145.191 159.484 188.872  0.00  0.00    +0.069 HD
ATOM     43  H   UNL     1     145.528 163.048 189.258  0.00  0.00    +0.034 HD
ATOM     44  H   UNL     1     146.427 162.620 187.787  0.00  0.00    +0.034 HD
ATOM     45  H   UNL     1     143.730 161.420 188.576  0.00  0.00    +0.060 HD
ATOM     46  H   UNL     1     143.371 163.751 188.135  0.00  0.00    +0.034 HD
ATOM     47  H   UNL     1     142.772 162.869 186.771  0.00  0.00    +0.034 HD
ATOM     48  H   UNL     1     145.600 165.709 185.783  0.00  0.00    +0.062 HD
ATOM     49  H   UNL     1     144.451 165.502 188.669  0.00  0.00    +0.062 HD
ATOM     50  H   UNL     1     146.177 167.590 187.201  0.00  0.00    +0.069 HD
ATOM     51  H   UNL     1     146.030 169.263 191.236  0.00  0.00    +0.074 HD
ATOM     52  H   UNL     1     148.709 169.967 189.938  0.00  0.00    +0.038 HD
ATOM     53  H   UNL     1     148.512 167.585 190.067  0.00  0.00    +0.057 HD
ATOM     54  H   UNL     1     148.920 168.080 193.067  0.00  0.00    +0.059 HD
ATOM     55  H   UNL     1     149.161 165.627 191.190  0.00  0.00    +0.064 HD
ATOM     56  H   UNL     1     150.831 164.752 192.755  0.00  0.00    +0.032 HD
ATOM     57  H   UNL     1     150.718 166.172 193.760  0.00  0.00    +0.032 HD
ATOM     58  H   UNL     1     152.777 166.044 192.382  0.00  0.00    +0.060 HD
ENDROOT
BRANCH   1  59
ATOM     59  C   UNL     1     153.106 166.991 189.797  0.00  0.00    -0.057 C 
ATOM     60  H   UNL     1     154.044 166.616 190.224  0.00  0.00    +0.024 HD
ATOM     61  H   UNL     1     153.156 166.812 188.717  0.00  0.00    +0.024 HD
ATOM     62  H   UNL     1     153.065 168.073 189.958  0.00  0.00    +0.024 HD
ENDBRANCH   1  59
BRANCH  26  63
ATOM     63  C   UNL     1     148.477 170.499 191.995  0.00  0.00    -0.056 C 
ATOM     64  H   UNL     1     148.064 171.509 191.908  0.00  0.00    +0.024 HD
ATOM     65  H   UNL     1     148.108 170.060 192.931  0.00  0.00    +0.024 HD
ATOM     66  H   UNL     1     149.557 170.575 192.118  0.00  0.00    +0.024 HD
ENDBRANCH  26  63
BRANCH  18  67
ATOM     67  C   UNL     1     144.697 163.405 184.938  0.00  0.00    -0.043 C 
ATOM     68  H   UNL     1     144.974 162.349 185.004  0.00  0.00    +0.027 HD
ATOM     69  H   UNL     1     145.483 163.911 184.369  0.00  0.00    +0.027 HD
ATOM     70  H   UNL     1     143.773 163.492 184.356  0.00  0.00    +0.027 HD
ENDBRANCH  18  67
BRANCH   7  71
ATOM     71  C   UNL     1     149.344 158.747 188.041  0.00  0.00    -0.057 C 
ATOM     72  H   UNL     1     149.290 158.004 188.844  0.00  0.00    +0.023 HD
ATOM     73  H   UNL     1     148.460 158.641 187.406  0.00  0.00    +0.023 HD
ATOM     74  H   UNL     1     150.197 158.497 187.402  0.00  0.00    +0.023 HD
ENDBRANCH   7  71
BRANCH  31  75
ATOM     75  O   UNL     1     151.896 167.871 192.283  0.00  0.00    -0.391 OA
ATOM     76  H   UNL     1     152.775 168.068 192.645  0.00  0.00    +0.210 HD
ENDBRANCH  31  75
BRANCH  25  77
ATOM     77  C   UNL     1     145.918 171.059 190.042  0.00  0.00    +0.020 C 
ATOM     78  H   UNL     1     146.564 171.829 190.482  0.00  0.00    +0.036 HD
BRANCH  77  79
ATOM     79  C   UNL     1     145.966 171.337 188.530  0.00  0.00    -0.057 C 
ATOM     80  H   UNL     1     146.964 171.586 188.173  0.00  0.00    +0.023 HD
ATOM     81  H   UNL     1     145.291 172.157 188.262  0.00  0.00    +0.023 HD
ATOM     82  H   UNL     1     145.636 170.452 187.973  0.00  0.00    +0.023 HD
ENDBRANCH  77  79
BRANCH  77  83
ATOM     83  C   UNL     1     144.483 171.330 190.608  0.00  0.00    +0.067 C 
ATOM     84  H   UNL     1     143.799 171.374 189.746  0.00  0.00    +0.060 HD
BRANCH  83  85
ATOM     85  C   UNL     1     144.345 172.699 191.351  0.00  0.00    -0.017 C 
ATOM     86  H   UNL     1     143.686 172.592 192.210  0.00  0.00    +0.032 HD
BRANCH  85  87
ATOM     87  C   UNL     1     145.713 173.127 191.907  0.00  0.00    -0.060 C 
ATOM     88  H   UNL     1     145.944 172.582 192.825  0.00  0.00    +0.023 HD
ATOM     89  H   UNL     1     146.519 172.919 191.197  0.00  0.00    +0.023 HD
ATOM     90  H   UNL     1     145.731 174.198 192.134  0.00  0.00    +0.023 HD
ENDBRANCH  85  87
BRANCH  85  91
ATOM     91  C   UNL     1     143.764 173.846 190.490  0.00  0.00    -0.041 C 
ATOM     92  H   UNL     1     144.583 174.440 190.065  0.00  0.00    +0.027 HD
ATOM     93  H   UNL     1     143.192 174.537 191.122  0.00  0.00    +0.027 HD
BRANCH  91  94
ATOM     94  C   UNL     1     142.851 173.350 189.359  0.00  0.00    +0.007 C 
ATOM     95  H   UNL     1     143.407 173.411 188.417  0.00  0.00    +0.034 HD
ATOM     96  H   UNL     1     142.576 172.309 189.521  0.00  0.00    +0.034 HD
BRANCH  94  97
ATOM     97  C   UNL     1     141.577 174.176 189.197  0.00  0.00    +0.139 C 
ATOM     98  O   UNL     1     141.615 175.364 188.862  0.00  0.00    -0.297 OA
BRANCH  97  99
ATOM     99  C   UNL     1     140.217 173.502 189.385  0.00  0.00    +0.041 C 
ATOM    100  H   UNL     1     139.989 173.078 188.397  0.00  0.00    +0.040 HD
BRANCH  99 101
ATOM    101  C   UNL     1     139.066 174.466 189.659  0.00  0.00    -0.053 C 
ATOM    102  H   UNL     1     139.411 175.438 190.027  0.00  0.00    +0.024 HD
ATOM    103  H   UNL     1     138.379 174.048 190.401  0.00  0.00    +0.024 HD
ATOM    104  H   UNL     1     138.492 174.648 188.745  0.00  0.00    +0.024 HD
ENDBRANCH  99 101
BRANCH  99 105
ATOM    105  C   UNL     1     140.316 172.334 190.391  0.00  0.00    +0.071 C 
ATOM    106  H   UNL     1     141.368 172.051 190.534  0.00  0.00    +0.061 HD
BRANCH 105 107
ATOM    107  C   UNL     1     139.707 172.663 191.771  0.00  0.00    -0.006 C 
ATOM    108  H   UNL     1     138.912 173.406 191.668  0.00  0.00    +0.033 HD
ATOM    109  H   UNL     1     139.262 171.761 192.207  0.00  0.00    +0.033 HD
BRANCH 107 110
ATOM    110  C   UNL     1     140.714 173.239 192.738  0.00  0.00    -0.067 C 
ATOM    111  C   UNL     1     140.711 174.528 193.112  0.00  0.00    -0.005 C 
ATOM    112  H   UNL     1     141.469 172.548 193.100  0.00  0.00    +0.059 HD
ATOM    113  H   UNL     1     139.931 175.184 192.729  0.00  0.00    +0.078 HD
BRANCH 111 114
ATOM    114  N   UNL     1     141.626 175.128 193.965  0.00  0.00    -0.284 N 
ATOM    115  C   UNL     1     142.946 175.313 193.567  0.00  0.00    +0.206 C 
ATOM    116  O   UNL     1     143.843 175.827 194.227  0.00  0.00    -0.279 OA
ATOM    117  H   UNL     1     143.142 174.935 192.548  0.00  0.00    +0.126 HD
BRANCH 114 118
ATOM    118  C   UNL     1     141.243 175.586 195.293  0.00  0.00    +0.007 C 
ATOM    119  H   UNL     1     140.603 176.470 195.206  0.00  0.00    +0.043 HD
ATOM    120  H   UNL     1     140.690 174.821 195.844  0.00  0.00    +0.043 HD
ATOM    121  H   UNL     1     142.148 175.831 195.860  0.00  0.00    +0.043 HD
ENDBRANCH 114 118
ENDBRANCH 111 114
ENDBRANCH 107 110
ENDBRANCH 105 107
BRANCH 105 122
ATOM    122  O   UNL     1     139.581 171.207 189.873  0.00  0.00    -0.379 OA
BRANCH 122 123
ATOM    123  C   UNL     1     138.701 170.623 190.826  0.00  0.00    +0.037 C 
ATOM    124  H   UNL     1     139.170 170.695 191.811  0.00  0.00    +0.052 HD
ATOM    125  H   UNL     1     138.538 169.566 190.598  0.00  0.00    +0.052 HD
ATOM    126  H   UNL     1     137.746 171.154 190.858  0.00  0.00    +0.052 HD
ENDBRANCH 122 123
ENDBRANCH 105 122
ENDBRANCH  99 105
ENDBRANCH  97  99
ENDBRANCH  94  97
ENDBRANCH  91  94
ENDBRANCH  85  91
ENDBRANCH  83  85
BRANCH  83 127
ATOM    127  O   UNL     1     144.090 170.249 191.451  0.00  0.00    -0.379 OA
BRANCH 127 128
ATOM    128  C   UNL     1     142.687 169.997 191.449  0.00  0.00    +0.037 C 
ATOM    129  H   UNL     1     142.127 170.935 191.381  0.00  0.00    +0.052 HD
ATOM    130  H   UNL     1     142.436 169.506 192.393  0.00  0.00    +0.052 HD
ATOM    131  H   UNL     1     142.414 169.333 190.625  0.00  0.00    +0.052 HD
ENDBRANCH 127 128
ENDBRANCH  83 127
ENDBRANCH  77  83
ENDBRANCH  25  77
BRANCH   9 132
ATOM    132  O   UNL     1     148.292 162.721 189.533  0.00  0.00    -0.384 OA
ATOM    133  H   UNL     1     149.139 162.490 189.115  0.00  0.00    +0.210 HD
ENDBRANCH   9 132
BRANCH  29 134
ATOM    134  O   UNL     1     148.365 165.413 193.072  0.00  0.00    -0.376 OA
BRANCH 134 135
ATOM    135  C   UNL     1     148.179 166.075 194.316  0.00  0.00    +0.037 C 
ATOM    136  H   UNL     1     147.108 166.090 194.536  0.00  0.00    +0.052 HD
ATOM    137  H   UNL     1     148.682 165.540 195.127  0.00  0.00    +0.052 HD
ATOM    138  H   UNL     1     148.534 167.110 194.264  0.00  0.00    +0.052 HD
ENDBRANCH 134 135
ENDBRANCH  29 134
BRANCH   6 139
ATOM    139  O   UNL     1     151.548 160.453 187.350  0.00  0.00    -0.379 OA
BRANCH 139 140
ATOM    140  C   UNL     1     152.657 159.560 187.321  0.00  0.00    +0.037 C 
ATOM    141  H   UNL     1     152.416 158.693 187.944  0.00  0.00    +0.052 HD
ATOM    142  H   UNL     1     152.844 159.214 186.302  0.00  0.00    +0.052 HD
ATOM    143  H   UNL     1     153.554 160.038 187.722  0.00  0.00    +0.052 HD
ENDBRANCH 139 140
ENDBRANCH   6 139
BRANCH  16 144
ATOM    144  O   UNL     1     144.674 160.927 186.800  0.00  0.00    -0.379 OA
BRANCH 144 145
ATOM    145  C   UNL     1     143.523 160.241 186.326  0.00  0.00    +0.037 C 
ATOM    146  H   UNL     1     143.794 159.527 185.542  0.00  0.00    +0.052 HD
ATOM    147  H   UNL     1     142.838 160.981 185.898  0.00  0.00    +0.052 HD
ATOM    148  H   UNL     1     143.004 159.730 187.142  0.00  0.00    +0.052 HD
ENDBRANCH 144 145
ENDBRANCH  16 144
BRANCH   4 149
ATOM    149  O   UNL     1     153.323 161.753 190.060  0.00  0.00    -0.376 OA
BRANCH 149 150
ATOM    150  C   UNL     1     154.726 161.711 189.832  0.00  0.00    +0.037 C 
ATOM    151  H   UNL     1     155.000 160.829 189.245  0.00  0.00    +0.052 HD
ATOM    152  H   UNL     1     155.225 161.650 190.800  0.00  0.00    +0.052 HD
ATOM    153  H   UNL     1     155.068 162.619 189.328  0.00  0.00    +0.052 HD
ENDBRANCH 149 150
ENDBRANCH   4 149
TORSDOF 33
ENDMDL
MODEL 7
REMARK VINA RESULT:      -5.1      2.446      6.962
REMARK  Name = Sphinxolide B_conf1
REMARK  33 active torsions:
REMARK  status: ('A' for Active; 'I' for Inactive)
REMARK    1  A    between atoms: C_1  and  C_2
REMARK    2  A    between atoms: C_5  and  O_67
REMARK    3  A    between atoms: C_7  and  O_65
REMARK    4  A    between atoms: C_8  and  C_64
REMARK    5  A    between atoms: C_10  and  O_63
REMARK    6  A    between atoms: C_17  and  O_61
REMARK    7  A    between atoms: C_19  and  C_60
REMARK    8  A    between atoms: C_26  and  C_37
REMARK    9  A    between atoms: C_27  and  C_36
REMARK   10  A    between atoms: C_30  and  O_34
REMARK   11  A    between atoms: C_32  and  O_33
REMARK   12  A    between atoms: O_34  and  C_35
REMARK   13  A    between atoms: C_37  and  C_38
REMARK   14  A    between atoms: C_37  and  C_39
REMARK   15  A    between atoms: C_39  and  C_40
REMARK   16  A    between atoms: C_39  and  O_58
REMARK   17  A    between atoms: C_40  and  C_41
REMARK   18  A    between atoms: C_40  and  C_42
REMARK   19  A    between atoms: C_42  and  C_43
REMARK   20  A    between atoms: C_43  and  C_44
REMARK   21  A    between atoms: C_44  and  C_46
REMARK   22  A    between atoms: C_46  and  C_47
REMARK   23  A    between atoms: C_46  and  C_48
REMARK   24  A    between atoms: C_48  and  C_49
REMARK   25  A    between atoms: C_48  and  O_56
REMARK   26  A    between atoms: C_49  and  C_50
REMARK   27  A    between atoms: C_51  and  N_52
REMARK   28  A    between atoms: N_52  and  C_53
REMARK   29  A    between atoms: O_56  and  C_57
REMARK   30  A    between atoms: O_58  and  C_59
REMARK   31  A    between atoms: O_61  and  C_62
REMARK   32  A    between atoms: O_65  and  C_66
REMARK   33  A    between atoms: O_67  and  C_68
REMARK                            x       y       z     vdW  Elec       q    Type
REMARK                         _______ _______ _______ _____ _____    ______ ____
ROOT
ATOM      1  C   UNL     1     145.872 159.538 189.291  0.00  0.00    +0.000 C 
ATOM      2  C   UNL     1     147.383 159.413 189.270  0.00  0.00    -0.080 C 
ATOM      3  C   UNL     1     148.138 158.377 189.682  0.00  0.00    -0.059 C 
ATOM      4  C   UNL     1     149.658 158.286 189.676  0.00  0.00    +0.079 C 
ATOM      5  C   UNL     1     150.352 159.621 189.359  0.00  0.00    +0.004 C 
ATOM      6  C   UNL     1     151.888 159.566 189.342  0.00  0.00    +0.067 C 
ATOM      7  C   UNL     1     152.531 160.971 189.057  0.00  0.00    +0.022 C 
ATOM      8  C   UNL     1     152.076 161.561 187.677  0.00  0.00    +0.138 C 
ATOM      9  C   UNL     1     151.100 162.764 187.770  0.00  0.00    +0.114 C 
ATOM     10  C   UNL     1     151.854 164.002 188.190  0.00  0.00    -0.029 C 
ATOM     11  C   UNL     1     153.117 164.134 187.748  0.00  0.00    +0.024 C 
ATOM     12  C   UNL     1     153.767 163.136 186.879  0.00  0.00    +0.332 C 
ATOM     13  O   UNL     1     154.786 163.420 186.261  0.00  0.00    -0.246 OA
ATOM     14  O   UNL     1     153.193 161.910 186.816  0.00  0.00    -0.455 OA
ATOM     15  C   UNL     1     151.142 165.009 189.082  0.00  0.00    -0.002 C 
ATOM     16  C   UNL     1     151.878 166.316 189.459  0.00  0.00    +0.066 C 
ATOM     17  C   UNL     1     150.936 167.294 190.213  0.00  0.00    -0.005 C 
ATOM     18  C   UNL     1     150.284 166.756 191.479  0.00  0.00    -0.070 C 
ATOM     19  C   UNL     1     148.984 166.432 191.621  0.00  0.00    -0.062 C 
ATOM     20  C   UNL     1     147.951 166.481 190.608  0.00  0.00    -0.055 C 
ATOM     21  C   UNL     1     146.696 166.078 190.855  0.00  0.00    +0.023 C 
ATOM     22  C   UNL     1     145.678 166.116 189.788  0.00  0.00    +0.332 C 
ATOM     23  O   UNL     1     145.824 166.624 188.686  0.00  0.00    -0.246 OA
ATOM     24  O   UNL     1     144.587 165.468 190.256  0.00  0.00    -0.457 OA
ATOM     25  C   UNL     1     143.424 165.339 189.386  0.00  0.00    +0.114 C 
ATOM     26  C   UNL     1     143.149 163.810 189.227  0.00  0.00    +0.012 C 
ATOM     27  C   UNL     1     144.414 163.117 188.726  0.00  0.00    -0.079 C 
ATOM     28  C   UNL     1     144.630 162.524 187.539  0.00  0.00    -0.059 C 
ATOM     29  C   UNL     1     145.940 161.885 187.162  0.00  0.00    +0.079 C 
ATOM     30  C   UNL     1     145.820 160.392 186.803  0.00  0.00    +0.004 C 
ATOM     31  C   UNL     1     145.255 159.436 187.869  0.00  0.00    +0.064 C 
ATOM     32  H   UNL     1     145.645 160.529 189.700  0.00  0.00    +0.037 HD
ATOM     33  H   UNL     1     147.889 160.294 188.881  0.00  0.00    +0.057 HD
ATOM     34  H   UNL     1     147.645 157.492 190.077  0.00  0.00    +0.059 HD
ATOM     35  H   UNL     1     149.987 157.942 190.665  0.00  0.00    +0.064 HD
ATOM     36  H   UNL     1     150.013 159.952 188.372  0.00  0.00    +0.032 HD
ATOM     37  H   UNL     1     150.036 160.355 190.110  0.00  0.00    +0.032 HD
ATOM     38  H   UNL     1     152.221 158.862 188.567  0.00  0.00    +0.060 HD
ATOM     39  H   UNL     1     152.192 161.639 189.862  0.00  0.00    +0.036 HD
ATOM     40  H   UNL     1     151.555 160.771 187.123  0.00  0.00    +0.077 HD
ATOM     41  H   UNL     1     150.670 162.949 186.779  0.00  0.00    +0.068 HD
ATOM     42  H   UNL     1     153.741 164.994 187.970  0.00  0.00    +0.069 HD
ATOM     43  H   UNL     1     150.203 165.279 188.581  0.00  0.00    +0.034 HD
ATOM     44  H   UNL     1     150.891 164.479 190.009  0.00  0.00    +0.034 HD
ATOM     45  H   UNL     1     152.205 166.809 188.533  0.00  0.00    +0.060 HD
ATOM     46  H   UNL     1     150.174 167.636 189.504  0.00  0.00    +0.034 HD
ATOM     47  H   UNL     1     151.483 168.204 190.484  0.00  0.00    +0.034 HD
ATOM     48  H   UNL     1     148.652 166.069 192.597  0.00  0.00    +0.062 HD
ATOM     49  H   UNL     1     148.203 166.847 189.616  0.00  0.00    +0.062 HD
ATOM     50  H   UNL     1     146.383 165.702 191.823  0.00  0.00    +0.069 HD
ATOM     51  H   UNL     1     143.680 165.724 188.389  0.00  0.00    +0.074 HD
ATOM     52  H   UNL     1     142.983 163.374 190.219  0.00  0.00    +0.038 HD
ATOM     53  H   UNL     1     145.233 163.114 189.446  0.00  0.00    +0.057 HD
ATOM     54  H   UNL     1     143.856 162.488 186.778  0.00  0.00    +0.059 HD
ATOM     55  H   UNL     1     146.676 161.999 187.965  0.00  0.00    +0.064 HD
ATOM     56  H   UNL     1     146.816 160.040 186.501  0.00  0.00    +0.032 HD
ATOM     57  H   UNL     1     145.202 160.306 185.895  0.00  0.00    +0.032 HD
ATOM     58  H   UNL     1     145.408 158.417 187.490  0.00  0.00    +0.060 HD
ENDROOT
BRANCH   1  59
ATOM     59  C   UNL     1     145.193 158.545 190.251  0.00  0.00    -0.057 C 
ATOM     60  H   UNL     1     145.917 158.105 190.947  0.00  0.00    +0.024 HD
ATOM     61  H   UNL     1     144.434 159.048 190.861  0.00  0.00    +0.024 HD
ATOM     62  H   UNL     1     144.701 157.730 189.708  0.00  0.00    +0.024 HD
ENDBRANCH   1  59
BRANCH  26  63
ATOM     63  C   UNL     1     141.932 163.480 188.361  0.00  0.00    -0.056 C 
ATOM     64  H   UNL     1     141.802 162.400 188.242  0.00  0.00    +0.024 HD
ATOM     65  H   UNL     1     141.010 163.889 188.794  0.00  0.00    +0.024 HD
ATOM     66  H   UNL     1     142.010 163.931 187.371  0.00  0.00    +0.024 HD
ENDBRANCH  26  63
BRANCH  18  67
ATOM     67  C   UNL     1     151.208 166.617 192.665  0.00  0.00    -0.043 C 
ATOM     68  H   UNL     1     151.308 167.569 193.194  0.00  0.00    +0.027 HD
ATOM     69  H   UNL     1     152.214 166.302 192.371  0.00  0.00    +0.027 HD
ATOM     70  H   UNL     1     150.828 165.862 193.364  0.00  0.00    +0.027 HD
ENDBRANCH  18  67
BRANCH   7  71
ATOM     71  C   UNL     1     154.059 160.888 189.205  0.00  0.00    -0.057 C 
ATOM     72  H   UNL     1     154.352 160.772 190.253  0.00  0.00    +0.023 HD
ATOM     73  H   UNL     1     154.473 160.056 188.630  0.00  0.00    +0.023 HD
ATOM     74  H   UNL     1     154.546 161.787 188.813  0.00  0.00    +0.023 HD
ENDBRANCH   7  71
BRANCH  31  75
ATOM     75  O   UNL     1     143.835 159.624 187.925  0.00  0.00    -0.391 OA
ATOM     76  H   UNL     1     143.608 160.344 187.315  0.00  0.00    +0.210 HD
ENDBRANCH  31  75
BRANCH  25  77
ATOM     77  C   UNL     1     142.332 166.292 189.978  0.00  0.00    +0.020 C 
ATOM     78  H   UNL     1     141.370 165.841 189.698  0.00  0.00    +0.036 HD
BRANCH  77  79
ATOM     79  C   UNL     1     142.332 166.268 191.515  0.00  0.00    -0.057 C 
ATOM     80  H   UNL     1     141.463 166.757 191.951  0.00  0.00    +0.023 HD
ATOM     81  H   UNL     1     143.233 166.748 191.913  0.00  0.00    +0.023 HD
ATOM     82  H   UNL     1     142.334 165.232 191.876  0.00  0.00    +0.023 HD
ENDBRANCH  77  79
BRANCH  77  83
ATOM     83  C   UNL     1     142.284 167.765 189.448  0.00  0.00    +0.067 C 
ATOM     84  H   UNL     1     143.075 167.861 188.689  0.00  0.00    +0.060 HD
BRANCH  83  85
ATOM     85  C   UNL     1     142.589 168.839 190.542  0.00  0.00    -0.017 C 
ATOM     86  H   UNL     1     142.620 168.373 191.525  0.00  0.00    +0.032 HD
BRANCH  85  87
ATOM     87  C   UNL     1     143.984 169.440 190.305  0.00  0.00    -0.060 C 
ATOM     88  H   UNL     1     143.954 170.181 189.503  0.00  0.00    +0.023 HD
ATOM     89  H   UNL     1     144.360 169.947 191.199  0.00  0.00    +0.023 HD
ATOM     90  H   UNL     1     144.707 168.666 190.027  0.00  0.00    +0.023 HD
ENDBRANCH  85  87
BRANCH  85  91
ATOM     91  C   UNL     1     141.551 169.984 190.630  0.00  0.00    -0.041 C 
ATOM     92  H   UNL     1     141.412 170.277 191.678  0.00  0.00    +0.027 HD
ATOM     93  H   UNL     1     140.570 169.627 190.290  0.00  0.00    +0.027 HD
BRANCH  91  94
ATOM     94  C   UNL     1     141.937 171.216 189.800  0.00  0.00    +0.007 C 
ATOM     95  H   UNL     1     143.015 171.177 189.608  0.00  0.00    +0.034 HD
ATOM     96  H   UNL     1     141.424 171.204 188.839  0.00  0.00    +0.034 HD
BRANCH  94  97
ATOM     97  C   UNL     1     141.640 172.540 190.499  0.00  0.00    +0.139 C 
ATOM     98  O   UNL     1     141.052 173.460 189.922  0.00  0.00    -0.297 OA
BRANCH  97  99
ATOM     99  C   UNL     1     142.014 172.711 191.973  0.00  0.00    +0.041 C 
ATOM    100  H   UNL     1     142.359 171.713 192.279  0.00  0.00    +0.040 HD
BRANCH  99 101
ATOM    101  C   UNL     1     140.834 173.005 192.895  0.00  0.00    -0.053 C 
ATOM    102  H   UNL     1     141.089 172.883 193.953  0.00  0.00    +0.024 HD
ATOM    103  H   UNL     1     139.992 172.342 192.672  0.00  0.00    +0.024 HD
ATOM    104  H   UNL     1     140.489 174.034 192.758  0.00  0.00    +0.024 HD
ENDBRANCH  99 101
BRANCH  99 105
ATOM    105  C   UNL     1     143.198 173.691 192.130  0.00  0.00    +0.071 C 
ATOM    106  H   UNL     1     143.735 173.484 193.066  0.00  0.00    +0.061 HD
BRANCH 105 107
ATOM    107  C   UNL     1     144.207 173.621 190.963  0.00  0.00    -0.006 C 
ATOM    108  H   UNL     1     143.777 173.076 190.119  0.00  0.00    +0.033 HD
ATOM    109  H   UNL     1     144.446 174.633 190.615  0.00  0.00    +0.033 HD
BRANCH 107 110
ATOM    110  C   UNL     1     145.486 172.907 191.331  0.00  0.00    -0.067 C 
ATOM    111  C   UNL     1     146.289 173.316 192.327  0.00  0.00    -0.005 C 
ATOM    112  H   UNL     1     145.737 172.044 190.722  0.00  0.00    +0.059 HD
ATOM    113  H   UNL     1     145.994 174.182 192.916  0.00  0.00    +0.078 HD
BRANCH 111 114
ATOM    114  N   UNL     1     147.491 172.729 192.692  0.00  0.00    -0.284 N 
ATOM    115  C   UNL     1     148.334 173.356 193.606  0.00  0.00    +0.206 C 
ATOM    116  O   UNL     1     149.416 172.941 194.006  0.00  0.00    -0.279 OA
ATOM    117  H   UNL     1     147.932 174.320 193.965  0.00  0.00    +0.126 HD
BRANCH 114 118
ATOM    118  C   UNL     1     147.911 171.448 192.146  0.00  0.00    +0.007 C 
ATOM    119  H   UNL     1     147.033 170.818 191.968  0.00  0.00    +0.043 HD
ATOM    120  H   UNL     1     148.441 171.564 191.196  0.00  0.00    +0.043 HD
ATOM    121  H   UNL     1     148.586 170.960 192.858  0.00  0.00    +0.043 HD
ENDBRANCH 114 118
ENDBRANCH 111 114
ENDBRANCH 107 110
ENDBRANCH 105 107
BRANCH 105 122
ATOM    122  O   UNL     1     142.689 175.039 192.155  0.00  0.00    -0.379 OA
BRANCH 122 123
ATOM    123  C   UNL     1     143.082 175.767 193.312  0.00  0.00    +0.037 C 
ATOM    124  H   UNL     1     143.951 175.269 193.749  0.00  0.00    +0.052 HD
ATOM    125  H   UNL     1     142.277 175.771 194.053  0.00  0.00    +0.052 HD
ATOM    126  H   UNL     1     143.362 176.793 193.056  0.00  0.00    +0.052 HD
ENDBRANCH 122 123
ENDBRANCH 105 122
ENDBRANCH  99 105
ENDBRANCH  97  99
ENDBRANCH  94  97
ENDBRANCH  91  94
ENDBRANCH  85  91
ENDBRANCH  83  85
BRANCH  83 127
ATOM    127  O   UNL     1     141.022 168.008 188.830  0.00  0.00    -0.379 OA
BRANCH 127 128
ATOM    128  C   UNL     1     140.832 167.299 187.608  0.00  0.00    +0.037 C 
ATOM    129  H   UNL     1     141.673 167.468 186.929  0.00  0.00    +0.052 HD
ATOM    130  H   UNL     1     139.921 167.680 187.140  0.00  0.00    +0.052 HD
ATOM    131  H   UNL     1     140.708 166.229 187.798  0.00  0.00    +0.052 HD
ENDBRANCH 127 128
ENDBRANCH  83 127
ENDBRANCH  77  83
ENDBRANCH  25  77
BRANCH   9 132
ATOM    132  O   UNL     1     150.027 162.490 188.656  0.00  0.00    -0.384 OA
ATOM    133  H   UNL     1     150.107 161.561 188.933  0.00  0.00    +0.210 HD
ENDBRANCH   9 132
BRANCH  29 134
ATOM    134  O   UNL     1     146.465 162.538 185.994  0.00  0.00    -0.376 OA
BRANCH 134 135
ATOM    135  C   UNL     1     147.303 163.650 186.282  0.00  0.00    +0.037 C 
ATOM    136  H   UNL     1     147.018 164.471 185.617  0.00  0.00    +0.052 HD
ATOM    137  H   UNL     1     147.169 163.988 187.313  0.00  0.00    +0.052 HD
ATOM    138  H   UNL     1     148.354 163.406 186.093  0.00  0.00    +0.052 HD
ENDBRANCH 134 135
ENDBRANCH  29 134
BRANCH   6 139
ATOM    139  O   UNL     1     152.311 159.122 190.645  0.00  0.00    -0.379 OA
BRANCH 139 140
ATOM    140  C   UNL     1     153.042 157.901 190.604  0.00  0.00    +0.037 C 
ATOM    141  H   UNL     1     152.997 157.508 189.584  0.00  0.00    +0.052 HD
ATOM    142  H   UNL     1     154.089 158.072 190.864  0.00  0.00    +0.052 HD
ATOM    143  H   UNL     1     152.607 157.162 191.283  0.00  0.00    +0.052 HD
ENDBRANCH 139 140
ENDBRANCH   6 139
BRANCH  16 144
ATOM    144  O   UNL     1     153.034 165.985 190.241  0.00  0.00    -0.379 OA
BRANCH 144 145
ATOM    145  C   UNL     1     154.241 166.567 189.767  0.00  0.00    +0.037 C 
ATOM    146  H   UNL     1     154.439 167.516 190.276  0.00  0.00    +0.052 HD
ATOM    147  H   UNL     1     154.126 166.766 188.697  0.00  0.00    +0.052 HD
ATOM    148  H   UNL     1     155.086 165.884 189.897  0.00  0.00    +0.052 HD
ENDBRANCH 144 145
ENDBRANCH  16 144
BRANCH   4 149
ATOM    149  O   UNL     1     150.050 157.339 188.671  0.00  0.00    -0.376 OA
BRANCH 149 150
ATOM    150  C   UNL     1     149.243 156.169 188.644  0.00  0.00    +0.037 C 
ATOM    151  H   UNL     1     149.618 155.451 187.909  0.00  0.00    +0.052 HD
ATOM    152  H   UNL     1     148.232 156.462 188.355  0.00  0.00    +0.052 HD
ATOM    153  H   UNL     1     149.194 155.705 189.633  0.00  0.00    +0.052 HD
ENDBRANCH 149 150
ENDBRANCH   4 149
TORSDOF 33
ENDMDL
MODEL 8
REMARK VINA RESULT:      -5.0      3.721      8.443
REMARK  Name = Sphinxolide B_conf1
REMARK  33 active torsions:
REMARK  status: ('A' for Active; 'I' for Inactive)
REMARK    1  A    between atoms: C_1  and  C_2
REMARK    2  A    between atoms: C_5  and  O_67
REMARK    3  A    between atoms: C_7  and  O_65
REMARK    4  A    between atoms: C_8  and  C_64
REMARK    5  A    between atoms: C_10  and  O_63
REMARK    6  A    between atoms: C_17  and  O_61
REMARK    7  A    between atoms: C_19  and  C_60
REMARK    8  A    between atoms: C_26  and  C_37
REMARK    9  A    between atoms: C_27  and  C_36
REMARK   10  A    between atoms: C_30  and  O_34
REMARK   11  A    between atoms: C_32  and  O_33
REMARK   12  A    between atoms: O_34  and  C_35
REMARK   13  A    between atoms: C_37  and  C_38
REMARK   14  A    between atoms: C_37  and  C_39
REMARK   15  A    between atoms: C_39  and  C_40
REMARK   16  A    between atoms: C_39  and  O_58
REMARK   17  A    between atoms: C_40  and  C_41
REMARK   18  A    between atoms: C_40  and  C_42
REMARK   19  A    between atoms: C_42  and  C_43
REMARK   20  A    between atoms: C_43  and  C_44
REMARK   21  A    between atoms: C_44  and  C_46
REMARK   22  A    between atoms: C_46  and  C_47
REMARK   23  A    between atoms: C_46  and  C_48
REMARK   24  A    between atoms: C_48  and  C_49
REMARK   25  A    between atoms: C_48  and  O_56
REMARK   26  A    between atoms: C_49  and  C_50
REMARK   27  A    between atoms: C_51  and  N_52
REMARK   28  A    between atoms: N_52  and  C_53
REMARK   29  A    between atoms: O_56  and  C_57
REMARK   30  A    between atoms: O_58  and  C_59
REMARK   31  A    between atoms: O_61  and  C_62
REMARK   32  A    between atoms: O_65  and  C_66
REMARK   33  A    between atoms: O_67  and  C_68
REMARK                            x       y       z     vdW  Elec       q    Type
REMARK                         _______ _______ _______ _____ _____    ______ ____
ROOT
ATOM      1  C   UNL     1     151.615 159.695 190.150  0.00  0.00    +0.000 C 
ATOM      2  C   UNL     1     152.303 159.347 188.844  0.00  0.00    -0.080 C 
ATOM      3  C   UNL     1     152.922 158.199 188.511  0.00  0.00    -0.059 C 
ATOM      4  C   UNL     1     153.631 157.883 187.200  0.00  0.00    +0.079 C 
ATOM      5  C   UNL     1     153.811 159.109 186.288  0.00  0.00    +0.004 C 
ATOM      6  C   UNL     1     154.521 158.826 184.955  0.00  0.00    +0.067 C 
ATOM      7  C   UNL     1     154.712 160.126 184.094  0.00  0.00    +0.022 C 
ATOM      8  C   UNL     1     153.345 160.816 183.751  0.00  0.00    +0.138 C 
ATOM      9  C   UNL     1     153.078 162.147 184.502  0.00  0.00    +0.114 C 
ATOM     10  C   UNL     1     153.922 163.247 183.906  0.00  0.00    -0.029 C 
ATOM     11  C   UNL     1     154.148 163.202 182.581  0.00  0.00    +0.024 C 
ATOM     12  C   UNL     1     153.602 162.141 181.714  0.00  0.00    +0.332 C 
ATOM     13  O   UNL     1     153.572 162.287 180.498  0.00  0.00    -0.246 OA
ATOM     14  O   UNL     1     153.156 161.017 182.325  0.00  0.00    -0.455 OA
ATOM     15  C   UNL     1     154.460 164.324 184.837  0.00  0.00    -0.002 C 
ATOM     16  C   UNL     1     155.265 165.497 184.227  0.00  0.00    +0.066 C 
ATOM     17  C   UNL     1     155.570 166.583 185.295  0.00  0.00    -0.005 C 
ATOM     18  C   UNL     1     156.316 166.114 186.536  0.00  0.00    -0.070 C 
ATOM     19  C   UNL     1     155.791 165.984 187.770  0.00  0.00    -0.062 C 
ATOM     20  C   UNL     1     154.419 166.213 188.170  0.00  0.00    -0.055 C 
ATOM     21  C   UNL     1     154.000 165.995 189.425  0.00  0.00    +0.023 C 
ATOM     22  C   UNL     1     152.586 166.213 189.787  0.00  0.00    +0.332 C 
ATOM     23  O   UNL     1     151.741 166.723 189.067  0.00  0.00    -0.246 OA
ATOM     24  O   UNL     1     152.416 165.722 191.035  0.00  0.00    -0.457 OA
ATOM     25  C   UNL     1     151.090 165.792 191.638  0.00  0.00    +0.114 C 
ATOM     26  C   UNL     1     150.674 164.326 191.979  0.00  0.00    +0.012 C 
ATOM     27  C   UNL     1     150.770 163.466 190.721  0.00  0.00    -0.079 C 
ATOM     28  C   UNL     1     149.778 162.880 190.029  0.00  0.00    -0.059 C 
ATOM     29  C   UNL     1     150.010 162.063 188.785  0.00  0.00    +0.079 C 
ATOM     30  C   UNL     1     149.496 160.615 188.891  0.00  0.00    +0.004 C 
ATOM     31  C   UNL     1     150.068 159.726 190.009  0.00  0.00    +0.064 C 
ATOM     32  H   UNL     1     151.959 160.698 190.428  0.00  0.00    +0.037 HD
ATOM     33  H   UNL     1     152.287 160.154 188.113  0.00  0.00    +0.057 HD
ATOM     34  H   UNL     1     152.949 157.387 189.233  0.00  0.00    +0.059 HD
ATOM     35  H   UNL     1     154.619 157.468 187.434  0.00  0.00    +0.064 HD
ATOM     36  H   UNL     1     152.819 159.513 186.066  0.00  0.00    +0.032 HD
ATOM     37  H   UNL     1     154.388 159.861 186.839  0.00  0.00    +0.032 HD
ATOM     38  H   UNL     1     153.934 158.101 184.373  0.00  0.00    +0.060 HD
ATOM     39  H   UNL     1     155.319 160.815 184.699  0.00  0.00    +0.036 HD
ATOM     40  H   UNL     1     152.537 160.127 184.027  0.00  0.00    +0.077 HD
ATOM     41  H   UNL     1     152.024 162.421 184.373  0.00  0.00    +0.068 HD
ATOM     42  H   UNL     1     154.721 163.952 182.047  0.00  0.00    +0.069 HD
ATOM     43  H   UNL     1     153.602 164.745 185.377  0.00  0.00    +0.034 HD
ATOM     44  H   UNL     1     155.101 163.812 185.566  0.00  0.00    +0.034 HD
ATOM     45  H   UNL     1     154.657 165.960 183.438  0.00  0.00    +0.060 HD
ATOM     46  H   UNL     1     154.620 167.054 185.572  0.00  0.00    +0.034 HD
ATOM     47  H   UNL     1     156.154 167.393 184.845  0.00  0.00    +0.034 HD
ATOM     48  H   UNL     1     156.453 165.647 188.572  0.00  0.00    +0.062 HD
ATOM     49  H   UNL     1     153.706 166.564 187.428  0.00  0.00    +0.062 HD
ATOM     50  H   UNL     1     154.662 165.643 190.209  0.00  0.00    +0.069 HD
ATOM     51  H   UNL     1     150.376 166.162 190.888  0.00  0.00    +0.074 HD
ATOM     52  H   UNL     1     151.420 163.893 192.654  0.00  0.00    +0.038 HD
ATOM     53  H   UNL     1     151.789 163.321 190.359  0.00  0.00    +0.057 HD
ATOM     54  H   UNL     1     148.741 162.980 190.335  0.00  0.00    +0.059 HD
ATOM     55  H   UNL     1     151.073 162.045 188.522  0.00  0.00    +0.064 HD
ATOM     56  H   UNL     1     149.671 160.127 187.923  0.00  0.00    +0.032 HD
ATOM     57  H   UNL     1     148.400 160.647 188.997  0.00  0.00    +0.032 HD
ATOM     58  H   UNL     1     149.712 158.706 189.812  0.00  0.00    +0.060 HD
ENDROOT
BRANCH   1  59
ATOM     59  C   UNL     1     152.036 158.789 191.320  0.00  0.00    -0.057 C 
ATOM     60  H   UNL     1     152.327 159.380 192.196  0.00  0.00    +0.024 HD
ATOM     61  H   UNL     1     151.206 158.145 191.635  0.00  0.00    +0.024 HD
ATOM     62  H   UNL     1     152.878 158.143 191.049  0.00  0.00    +0.024 HD
ENDBRANCH   1  59
BRANCH  26  63
ATOM     63  C   UNL     1     149.306 164.205 192.654  0.00  0.00    -0.056 C 
ATOM     64  H   UNL     1     148.707 163.403 192.211  0.00  0.00    +0.024 HD
ATOM     65  H   UNL     1     149.407 164.001 193.727  0.00  0.00    +0.024 HD
ATOM     66  H   UNL     1     148.742 165.136 192.588  0.00  0.00    +0.024 HD
ENDBRANCH  26  63
BRANCH  18  67
ATOM     67  C   UNL     1     157.780 165.806 186.325  0.00  0.00    -0.043 C 
ATOM     68  H   UNL     1     158.366 166.728 186.273  0.00  0.00    +0.027 HD
ATOM     69  H   UNL     1     157.957 165.255 185.396  0.00  0.00    +0.027 HD
ATOM     70  H   UNL     1     158.165 165.187 187.143  0.00  0.00    +0.027 HD
ENDBRANCH  18  67
BRANCH   7  71
ATOM     71  C   UNL     1     155.559 159.813 182.850  0.00  0.00    -0.057 C 
ATOM     72  H   UNL     1     156.272 159.005 183.047  0.00  0.00    +0.023 HD
ATOM     73  H   UNL     1     154.934 159.530 182.000  0.00  0.00    +0.023 HD
ATOM     74  H   UNL     1     156.123 160.692 182.521  0.00  0.00    +0.023 HD
ENDBRANCH   7  71
BRANCH  31  75
ATOM     75  O   UNL     1     149.460 160.122 191.245  0.00  0.00    -0.391 OA
ATOM     76  H   UNL     1     148.511 160.245 191.082  0.00  0.00    +0.210 HD
ENDBRANCH  31  75
BRANCH  25  77
ATOM     77  C   UNL     1     151.179 166.880 192.760  0.00  0.00    +0.020 C 
ATOM     78  H   UNL     1     150.698 166.432 193.639  0.00  0.00    +0.036 HD
BRANCH  77  79
ATOM     79  C   UNL     1     152.633 167.120 193.201  0.00  0.00    -0.057 C 
ATOM     80  H   UNL     1     153.150 167.855 192.586  0.00  0.00    +0.023 HD
ATOM     81  H   UNL     1     153.207 166.187 193.179  0.00  0.00    +0.023 HD
ATOM     82  H   UNL     1     152.657 167.490 194.233  0.00  0.00    +0.023 HD
ENDBRANCH  77  79
BRANCH  77  83
ATOM     83  C   UNL     1     150.444 168.241 192.516  0.00  0.00    +0.067 C 
ATOM     84  H   UNL     1     150.442 168.784 193.474  0.00  0.00    +0.060 HD
BRANCH  83  85
ATOM     85  C   UNL     1     148.946 168.083 192.097  0.00  0.00    -0.017 C 
ATOM     86  H   UNL     1     148.853 167.322 191.325  0.00  0.00    +0.032 HD
BRANCH  85  87
ATOM     87  C   UNL     1     148.120 167.587 193.295  0.00  0.00    -0.060 C 
ATOM     88  H   UNL     1     147.797 166.555 193.138  0.00  0.00    +0.023 HD
ATOM     89  H   UNL     1     148.704 167.605 194.220  0.00  0.00    +0.023 HD
ATOM     90  H   UNL     1     147.229 168.204 193.445  0.00  0.00    +0.023 HD
ENDBRANCH  85  87
BRANCH  85  91
ATOM     91  C   UNL     1     148.296 169.368 191.528  0.00  0.00    -0.041 C 
ATOM     92  H   UNL     1     149.054 170.156 191.436  0.00  0.00    +0.027 HD
ATOM     93  H   UNL     1     147.551 169.755 192.235  0.00  0.00    +0.027 HD
BRANCH  91  94
ATOM     94  C   UNL     1     147.614 169.151 190.169  0.00  0.00    +0.007 C 
ATOM     95  H   UNL     1     147.959 169.932 189.483  0.00  0.00    +0.034 HD
ATOM     96  H   UNL     1     147.898 168.186 189.751  0.00  0.00    +0.034 HD
BRANCH  94  97
ATOM     97  C   UNL     1     146.091 169.231 190.232  0.00  0.00    +0.139 C 
ATOM     98  O   UNL     1     145.443 168.590 191.065  0.00  0.00    -0.297 OA
BRANCH  97  99
ATOM     99  C   UNL     1     145.350 170.180 189.289  0.00  0.00    +0.041 C 
ATOM    100  H   UNL     1     144.402 169.667 189.081  0.00  0.00    +0.040 HD
BRANCH  99 101
ATOM    101  C   UNL     1     146.002 170.345 187.918  0.00  0.00    -0.053 C 
ATOM    102  H   UNL     1     145.424 169.869 187.119  0.00  0.00    +0.024 HD
ATOM    103  H   UNL     1     147.007 169.914 187.912  0.00  0.00    +0.024 HD
ATOM    104  H   UNL     1     146.097 171.406 187.665  0.00  0.00    +0.024 HD
ENDBRANCH  99 101
BRANCH  99 105
ATOM    105  C   UNL     1     145.022 171.514 189.997  0.00  0.00    +0.071 C 
ATOM    106  H   UNL     1     145.123 171.395 191.085  0.00  0.00    +0.061 HD
BRANCH 105 107
ATOM    107  C   UNL     1     145.926 172.682 189.547  0.00  0.00    -0.006 C 
ATOM    108  H   UNL     1     146.560 172.373 188.712  0.00  0.00    +0.033 HD
ATOM    109  H   UNL     1     145.309 173.521 189.203  0.00  0.00    +0.033 HD
BRANCH 107 110
ATOM    110  C   UNL     1     146.855 173.162 190.638  0.00  0.00    -0.067 C 
ATOM    111  C   UNL     1     146.853 172.645 191.877  0.00  0.00    -0.005 C 
ATOM    112  H   UNL     1     147.517 173.978 190.368  0.00  0.00    +0.059 HD
ATOM    113  H   UNL     1     146.177 171.822 192.101  0.00  0.00    +0.078 HD
BRANCH 111 114
ATOM    114  N   UNL     1     147.651 173.062 192.931  0.00  0.00    -0.284 N 
ATOM    115  C   UNL     1     148.981 172.661 193.013  0.00  0.00    +0.206 C 
ATOM    116  O   UNL     1     149.782 172.961 193.891  0.00  0.00    -0.279 OA
ATOM    117  H   UNL     1     149.282 172.006 192.176  0.00  0.00    +0.126 HD
BRANCH 114 118
ATOM    118  C   UNL     1     147.136 173.931 193.979  0.00  0.00    +0.007 C 
ATOM    119  H   UNL     1     147.340 173.486 194.959  0.00  0.00    +0.043 HD
ATOM    120  H   UNL     1     147.602 174.920 193.954  0.00  0.00    +0.043 HD
ATOM    121  H   UNL     1     146.056 174.056 193.841  0.00  0.00    +0.043 HD
ENDBRANCH 114 118
ENDBRANCH 111 114
ENDBRANCH 107 110
ENDBRANCH 105 107
BRANCH 105 122
ATOM    122  O   UNL     1     143.669 171.893 189.677  0.00  0.00    -0.379 OA
BRANCH 122 123
ATOM    123  C   UNL     1     142.851 172.081 190.825  0.00  0.00    +0.037 C 
ATOM    124  H   UNL     1     141.881 171.616 190.633  0.00  0.00    +0.052 HD
ATOM    125  H   UNL     1     142.693 173.147 191.011  0.00  0.00    +0.052 HD
ATOM    126  H   UNL     1     143.294 171.607 191.706  0.00  0.00    +0.052 HD
ENDBRANCH 122 123
ENDBRANCH 105 122
ENDBRANCH  99 105
ENDBRANCH  97  99
ENDBRANCH  94  97
ENDBRANCH  91  94
ENDBRANCH  85  91
ENDBRANCH  83  85
BRANCH  83 127
ATOM    127  O   UNL     1     151.166 169.009 191.555  0.00  0.00    -0.379 OA
BRANCH 127 128
ATOM    128  C   UNL     1     151.669 170.242 192.063  0.00  0.00    +0.037 C 
ATOM    129  H   UNL     1     151.920 170.923 191.245  0.00  0.00    +0.052 HD
ATOM    130  H   UNL     1     152.578 170.023 192.629  0.00  0.00    +0.052 HD
ATOM    131  H   UNL     1     150.942 170.709 192.734  0.00  0.00    +0.052 HD
ENDBRANCH 127 128
ENDBRANCH  83 127
ENDBRANCH  77  83
ENDBRANCH  25  77
BRANCH   9 132
ATOM    132  O   UNL     1     153.316 162.011 185.893  0.00  0.00    -0.384 OA
ATOM    133  H   UNL     1     153.112 162.867 186.308  0.00  0.00    +0.210 HD
ENDBRANCH   9 132
BRANCH  29 134
ATOM    134  O   UNL     1     149.300 162.663 187.688  0.00  0.00    -0.376 OA
BRANCH 134 135
ATOM    135  C   UNL     1     150.079 163.577 186.927  0.00  0.00    +0.037 C 
ATOM    136  H   UNL     1     149.423 164.049 186.189  0.00  0.00    +0.052 HD
ATOM    137  H   UNL     1     150.496 164.364 187.561  0.00  0.00    +0.052 HD
ATOM    138  H   UNL     1     150.879 163.055 186.390  0.00  0.00    +0.052 HD
ENDBRANCH 134 135
ENDBRANCH  29 134
BRANCH   6 139
ATOM    139  O   UNL     1     155.819 158.289 185.270  0.00  0.00    -0.379 OA
BRANCH 139 140
ATOM    140  C   UNL     1     155.998 156.957 184.798  0.00  0.00    +0.037 C 
ATOM    141  H   UNL     1     155.586 156.894 183.787  0.00  0.00    +0.052 HD
ATOM    142  H   UNL     1     157.060 156.705 184.757  0.00  0.00    +0.052 HD
ATOM    143  H   UNL     1     155.470 156.243 185.435  0.00  0.00    +0.052 HD
ENDBRANCH 139 140
ENDBRANCH   6 139
BRANCH  16 144
ATOM    144  O   UNL     1     156.467 164.975 183.642  0.00  0.00    -0.379 OA
BRANCH 144 145
ATOM    145  C   UNL     1     157.006 165.785 182.607  0.00  0.00    +0.037 C 
ATOM    146  H   UNL     1     157.610 165.184 181.919  0.00  0.00    +0.052 HD
ATOM    147  H   UNL     1     157.654 166.539 183.067  0.00  0.00    +0.052 HD
ATOM    148  H   UNL     1     156.215 166.305 182.060  0.00  0.00    +0.052 HD
ENDBRANCH 144 145
ENDBRANCH  16 144
BRANCH   4 149
ATOM    149  O   UNL     1     152.847 156.916 186.485  0.00  0.00    -0.376 OA
BRANCH 149 150
ATOM    150  C   UNL     1     152.467 155.796 187.272  0.00  0.00    +0.037 C 
ATOM    151  H   UNL     1     151.865 155.093 186.689  0.00  0.00    +0.052 HD
ATOM    152  H   UNL     1     151.864 156.158 188.107  0.00  0.00    +0.052 HD
ATOM    153  H   UNL     1     153.345 155.289 187.681  0.00  0.00    +0.052 HD
ENDBRANCH 149 150
ENDBRANCH   4 149
TORSDOF 33
ENDMDL
MODEL 9
REMARK VINA RESULT:      -5.0      4.654     13.118
REMARK  Name = Sphinxolide B_conf1
REMARK  33 active torsions:
REMARK  status: ('A' for Active; 'I' for Inactive)
REMARK    1  A    between atoms: C_1  and  C_2
REMARK    2  A    between atoms: C_5  and  O_67
REMARK    3  A    between atoms: C_7  and  O_65
REMARK    4  A    between atoms: C_8  and  C_64
REMARK    5  A    between atoms: C_10  and  O_63
REMARK    6  A    between atoms: C_17  and  O_61
REMARK    7  A    between atoms: C_19  and  C_60
REMARK    8  A    between atoms: C_26  and  C_37
REMARK    9  A    between atoms: C_27  and  C_36
REMARK   10  A    between atoms: C_30  and  O_34
REMARK   11  A    between atoms: C_32  and  O_33
REMARK   12  A    between atoms: O_34  and  C_35
REMARK   13  A    between atoms: C_37  and  C_38
REMARK   14  A    between atoms: C_37  and  C_39
REMARK   15  A    between atoms: C_39  and  C_40
REMARK   16  A    between atoms: C_39  and  O_58
REMARK   17  A    between atoms: C_40  and  C_41
REMARK   18  A    between atoms: C_40  and  C_42
REMARK   19  A    between atoms: C_42  and  C_43
REMARK   20  A    between atoms: C_43  and  C_44
REMARK   21  A    between atoms: C_44  and  C_46
REMARK   22  A    between atoms: C_46  and  C_47
REMARK   23  A    between atoms: C_46  and  C_48
REMARK   24  A    between atoms: C_48  and  C_49
REMARK   25  A    between atoms: C_48  and  O_56
REMARK   26  A    between atoms: C_49  and  C_50
REMARK   27  A    between atoms: C_51  and  N_52
REMARK   28  A    between atoms: N_52  and  C_53
REMARK   29  A    between atoms: O_56  and  C_57
REMARK   30  A    between atoms: O_58  and  C_59
REMARK   31  A    between atoms: O_61  and  C_62
REMARK   32  A    between atoms: O_65  and  C_66
REMARK   33  A    between atoms: O_67  and  C_68
REMARK                            x       y       z     vdW  Elec       q    Type
REMARK                         _______ _______ _______ _____ _____    ______ ____
ROOT
ATOM      1  C   UNL     1     147.275 172.708 182.585  0.00  0.00    +0.000 C 
ATOM      2  C   UNL     1     146.583 173.933 183.149  0.00  0.00    -0.080 C 
ATOM      3  C   UNL     1     146.799 175.225 182.842  0.00  0.00    -0.059 C 
ATOM      4  C   UNL     1     146.108 176.442 183.444  0.00  0.00    +0.079 C 
ATOM      5  C   UNL     1     145.241 176.112 184.671  0.00  0.00    +0.004 C 
ATOM      6  C   UNL     1     144.526 177.317 185.303  0.00  0.00    +0.067 C 
ATOM      7  C   UNL     1     143.695 176.916 186.575  0.00  0.00    +0.022 C 
ATOM      8  C   UNL     1     142.596 175.846 186.251  0.00  0.00    +0.138 C 
ATOM      9  C   UNL     1     142.883 174.425 186.805  0.00  0.00    +0.114 C 
ATOM     10  C   UNL     1     142.643 174.400 188.295  0.00  0.00    -0.029 C 
ATOM     11  C   UNL     1     141.650 175.170 188.772  0.00  0.00    +0.024 C 
ATOM     12  C   UNL     1     140.803 176.010 187.905  0.00  0.00    +0.332 C 
ATOM     13  O   UNL     1     139.740 176.455 188.318  0.00  0.00    -0.246 OA
ATOM     14  O   UNL     1     141.265 176.263 186.656  0.00  0.00    -0.455 OA
ATOM     15  C   UNL     1     143.537 173.515 189.151  0.00  0.00    -0.002 C 
ATOM     16  C   UNL     1     143.255 173.424 190.670  0.00  0.00    +0.066 C 
ATOM     17  C   UNL     1     144.142 172.341 191.343  0.00  0.00    -0.005 C 
ATOM     18  C   UNL     1     145.645 172.501 191.167  0.00  0.00    -0.070 C 
ATOM     19  C   UNL     1     146.436 171.732 190.395  0.00  0.00    -0.062 C 
ATOM     20  C   UNL     1     146.032 170.633 189.543  0.00  0.00    -0.055 C 
ATOM     21  C   UNL     1     146.909 169.973 188.773  0.00  0.00    +0.023 C 
ATOM     22  C   UNL     1     146.452 168.877 187.896  0.00  0.00    +0.332 C 
ATOM     23  O   UNL     1     145.331 168.392 187.893  0.00  0.00    -0.246 OA
ATOM     24  O   UNL     1     147.494 168.546 187.099  0.00  0.00    -0.457 OA
ATOM     25  C   UNL     1     147.309 167.490 186.111  0.00  0.00    +0.114 C 
ATOM     26  C   UNL     1     147.612 168.122 184.716  0.00  0.00    +0.012 C 
ATOM     27  C   UNL     1     146.734 169.357 184.518  0.00  0.00    -0.079 C 
ATOM     28  C   UNL     1     145.731 169.541 183.642  0.00  0.00    -0.059 C 
ATOM     29  C   UNL     1     144.930 170.813 183.560  0.00  0.00    +0.079 C 
ATOM     30  C   UNL     1     144.980 171.488 182.177  0.00  0.00    +0.004 C 
ATOM     31  C   UNL     1     146.356 171.902 181.625  0.00  0.00    +0.064 C 
ATOM     32  H   UNL     1     147.531 172.070 183.439  0.00  0.00    +0.037 HD
ATOM     33  H   UNL     1     145.833 173.702 183.903  0.00  0.00    +0.057 HD
ATOM     34  H   UNL     1     147.549 175.470 182.094  0.00  0.00    +0.059 HD
ATOM     35  H   UNL     1     146.879 177.165 183.740  0.00  0.00    +0.064 HD
ATOM     36  H   UNL     1     144.480 175.389 184.361  0.00  0.00    +0.032 HD
ATOM     37  H   UNL     1     145.885 175.651 185.428  0.00  0.00    +0.032 HD
ATOM     38  H   UNL     1     143.846 177.768 184.566  0.00  0.00    +0.060 HD
ATOM     39  H   UNL     1     144.410 176.490 187.293  0.00  0.00    +0.036 HD
ATOM     40  H   UNL     1     142.520 175.753 185.161  0.00  0.00    +0.077 HD
ATOM     41  H   UNL     1     142.190 173.715 186.338  0.00  0.00    +0.068 HD
ATOM     42  H   UNL     1     141.377 175.210 189.822  0.00  0.00    +0.069 HD
ATOM     43  H   UNL     1     143.485 172.500 188.735  0.00  0.00    +0.034 HD
ATOM     44  H   UNL     1     144.561 173.885 189.016  0.00  0.00    +0.034 HD
ATOM     45  H   UNL     1     142.204 173.134 190.810  0.00  0.00    +0.060 HD
ATOM     46  H   UNL     1     143.814 171.364 190.972  0.00  0.00    +0.034 HD
ATOM     47  H   UNL     1     143.936 172.307 192.418  0.00  0.00    +0.034 HD
ATOM     48  H   UNL     1     147.506 171.957 190.376  0.00  0.00    +0.062 HD
ATOM     49  H   UNL     1     144.985 170.342 189.522  0.00  0.00    +0.062 HD
ATOM     50  H   UNL     1     147.965 170.218 188.748  0.00  0.00    +0.069 HD
ATOM     51  H   UNL     1     146.252 167.189 186.104  0.00  0.00    +0.074 HD
ATOM     52  H   UNL     1     148.633 168.521 184.720  0.00  0.00    +0.038 HD
ATOM     53  H   UNL     1     146.976 170.185 185.186  0.00  0.00    +0.057 HD
ATOM     54  H   UNL     1     145.441 168.760 182.946  0.00  0.00    +0.059 HD
ATOM     55  H   UNL     1     145.258 171.531 184.319  0.00  0.00    +0.064 HD
ATOM     56  H   UNL     1     144.330 172.373 182.214  0.00  0.00    +0.032 HD
ATOM     57  H   UNL     1     144.501 170.815 181.448  0.00  0.00    +0.032 HD
ATOM     58  H   UNL     1     146.166 172.508 180.729  0.00  0.00    +0.060 HD
ENDROOT
BRANCH   1  59
ATOM     59  C   UNL     1     148.621 173.027 181.908  0.00  0.00    -0.057 C 
ATOM     60  H   UNL     1     148.787 174.108 181.844  0.00  0.00    +0.024 HD
ATOM     61  H   UNL     1     149.456 172.612 182.484  0.00  0.00    +0.024 HD
ATOM     62  H   UNL     1     148.672 172.612 180.896  0.00  0.00    +0.024 HD
ENDBRANCH   1  59
BRANCH  26  63
ATOM     63  C   UNL     1     147.495 167.143 183.547  0.00  0.00    -0.056 C 
ATOM     64  H   UNL     1     147.970 166.184 183.774  0.00  0.00    +0.024 HD
ATOM     65  H   UNL     1     146.446 166.951 183.290  0.00  0.00    +0.024 HD
ATOM     66  H   UNL     1     147.946 167.546 182.639  0.00  0.00    +0.024 HD
ENDBRANCH  26  63
BRANCH  18  67
ATOM     67  C   UNL     1     146.269 173.617 191.973  0.00  0.00    -0.043 C 
ATOM     68  H   UNL     1     147.138 174.031 191.454  0.00  0.00    +0.027 HD
ATOM     69  H   UNL     1     146.609 173.278 192.956  0.00  0.00    +0.027 HD
ATOM     70  H   UNL     1     145.543 174.421 192.144  0.00  0.00    +0.027 HD
ENDBRANCH  18  67
BRANCH   7  71
ATOM     71  C   UNL     1     143.132 178.176 187.251  0.00  0.00    -0.057 C 
ATOM     72  H   UNL     1     143.340 178.178 188.327  0.00  0.00    +0.023 HD
ATOM     73  H   UNL     1     143.546 179.087 186.813  0.00  0.00    +0.023 HD
ATOM     74  H   UNL     1     142.048 178.250 187.114  0.00  0.00    +0.023 HD
ENDBRANCH   7  71
BRANCH  31  75
ATOM     75  O   UNL     1     147.024 170.720 181.167  0.00  0.00    -0.391 OA
ATOM     76  H   UNL     1     147.196 170.160 181.941  0.00  0.00    +0.210 HD
ENDBRANCH  31  75
BRANCH  25  77
ATOM     77  C   UNL     1     148.131 166.262 186.628  0.00  0.00    +0.020 C 
ATOM     78  H   UNL     1     148.150 165.552 185.792  0.00  0.00    +0.036 HD
BRANCH  77  79
ATOM     79  C   UNL     1     149.608 166.625 186.855  0.00  0.00    -0.057 C 
ATOM     80  H   UNL     1     149.787 167.699 186.873  0.00  0.00    +0.023 HD
ATOM     81  H   UNL     1     150.242 166.183 186.079  0.00  0.00    +0.023 HD
ATOM     82  H   UNL     1     149.951 166.226 187.818  0.00  0.00    +0.023 HD
ENDBRANCH  77  79
BRANCH  77  83
ATOM     83  C   UNL     1     147.563 165.467 187.852  0.00  0.00    +0.067 C 
ATOM     84  H   UNL     1     146.554 165.859 188.052  0.00  0.00    +0.060 HD
BRANCH  83  85
ATOM     85  C   UNL     1     148.382 165.665 189.169  0.00  0.00    -0.017 C 
ATOM     86  H   UNL     1     149.266 166.268 188.972  0.00  0.00    +0.032 HD
BRANCH  85  87
ATOM     87  C   UNL     1     147.543 166.451 190.189  0.00  0.00    -0.060 C 
ATOM     88  H   UNL     1     146.788 167.057 189.683  0.00  0.00    +0.023 HD
ATOM     89  H   UNL     1     147.012 165.782 190.874  0.00  0.00    +0.023 HD
ATOM     90  H   UNL     1     148.169 167.119 190.788  0.00  0.00    +0.023 HD
ENDBRANCH  85  87
BRANCH  85  91
ATOM     91  C   UNL     1     148.881 164.354 189.823  0.00  0.00    -0.041 C 
ATOM     92  H   UNL     1     149.037 163.592 189.049  0.00  0.00    +0.027 HD
ATOM     93  H   UNL     1     148.107 163.948 190.487  0.00  0.00    +0.027 HD
BRANCH  91  94
ATOM     94  C   UNL     1     150.173 164.535 190.633  0.00  0.00    +0.007 C 
ATOM     95  H   UNL     1     149.984 165.274 191.419  0.00  0.00    +0.034 HD
ATOM     96  H   UNL     1     150.456 163.599 191.111  0.00  0.00    +0.034 HD
BRANCH  94  97
ATOM     97  C   UNL     1     151.349 165.038 189.799  0.00  0.00    +0.139 C 
ATOM     98  O   UNL     1     151.820 164.368 188.875  0.00  0.00    -0.297 OA
BRANCH  97  99
ATOM     99  C   UNL     1     151.915 166.434 190.066  0.00  0.00    +0.041 C 
ATOM    100  H   UNL     1     151.593 167.025 189.197  0.00  0.00    +0.040 HD
BRANCH  99 101
ATOM    101  C   UNL     1     153.439 166.515 190.038  0.00  0.00    -0.053 C 
ATOM    102  H   UNL     1     153.889 165.740 189.409  0.00  0.00    +0.024 HD
ATOM    103  H   UNL     1     153.851 166.414 191.046  0.00  0.00    +0.024 HD
ATOM    104  H   UNL     1     153.763 167.484 189.646  0.00  0.00    +0.024 HD
ENDBRANCH  99 101
BRANCH  99 105
ATOM    105  C   UNL     1     151.272 167.056 191.326  0.00  0.00    +0.071 C 
ATOM    106  H   UNL     1     150.504 166.381 191.727  0.00  0.00    +0.061 HD
BRANCH 105 107
ATOM    107  C   UNL     1     152.292 167.355 192.447  0.00  0.00    -0.006 C 
ATOM    108  H   UNL     1     153.304 167.109 192.116  0.00  0.00    +0.033 HD
ATOM    109  H   UNL     1     152.274 168.424 192.692  0.00  0.00    +0.033 HD
BRANCH 107 110
ATOM    110  C   UNL     1     152.041 166.552 193.701  0.00  0.00    -0.067 C 
ATOM    111  C   UNL     1     150.809 166.282 194.160  0.00  0.00    -0.005 C 
ATOM    112  H   UNL     1     152.927 166.221 194.234  0.00  0.00    +0.059 HD
ATOM    113  H   UNL     1     149.949 166.628 193.589  0.00  0.00    +0.078 HD
BRANCH 111 114
ATOM    114  N   UNL     1     150.509 165.584 195.320  0.00  0.00    -0.284 N 
ATOM    115  C   UNL     1     151.071 164.333 195.558  0.00  0.00    +0.206 C 
ATOM    116  O   UNL     1     150.885 163.623 196.539  0.00  0.00    -0.279 OA
ATOM    117  H   UNL     1     151.739 164.004 194.741  0.00  0.00    +0.126 HD
BRANCH 114 118
ATOM    118  C   UNL     1     149.610 166.129 196.327  0.00  0.00    +0.007 C 
ATOM    119  H   UNL     1     148.796 166.674 195.837  0.00  0.00    +0.043 HD
ATOM    120  H   UNL     1     149.166 165.343 196.944  0.00  0.00    +0.043 HD
ATOM    121  H   UNL     1     150.173 166.803 196.981  0.00  0.00    +0.043 HD
ENDBRANCH 114 118
ENDBRANCH 111 114
ENDBRANCH 107 110
ENDBRANCH 105 107
BRANCH 105 122
ATOM    122  O   UNL     1     150.669 168.316 190.970  0.00  0.00    -0.379 OA
BRANCH 122 123
ATOM    123  C   UNL     1     151.311 169.436 191.567  0.00  0.00    +0.037 C 
ATOM    124  H   UNL     1     152.222 169.647 191.002  0.00  0.00    +0.052 HD
ATOM    125  H   UNL     1     151.591 169.210 192.600  0.00  0.00    +0.052 HD
ATOM    126  H   UNL     1     150.670 170.321 191.535  0.00  0.00    +0.052 HD
ENDBRANCH 122 123
ENDBRANCH 105 122
ENDBRANCH  99 105
ENDBRANCH  97  99
ENDBRANCH  94  97
ENDBRANCH  91  94
ENDBRANCH  85  91
ENDBRANCH  83  85
BRANCH  83 127
ATOM    127  O   UNL     1     147.461 164.085 187.517  0.00  0.00    -0.379 OA
BRANCH 127 128
ATOM    128  C   UNL     1     147.307 163.840 186.121  0.00  0.00    +0.037 C 
ATOM    129  H   UNL     1     148.172 164.214 185.566  0.00  0.00    +0.052 HD
ATOM    130  H   UNL     1     146.416 164.376 185.785  0.00  0.00    +0.052 HD
ATOM    131  H   UNL     1     147.167 162.772 185.929  0.00  0.00    +0.052 HD
ENDBRANCH 127 128
ENDBRANCH  83 127
ENDBRANCH  77  83
ENDBRANCH  25  77
BRANCH   9 132
ATOM    132  O   UNL     1     144.200 174.005 186.488  0.00  0.00    -0.384 OA
ATOM    133  H   UNL     1     144.532 173.492 187.245  0.00  0.00    +0.210 HD
ENDBRANCH   9 132
BRANCH  29 134
ATOM    134  O   UNL     1     143.545 170.515 183.812  0.00  0.00    -0.376 OA
BRANCH 134 135
ATOM    135  C   UNL     1     143.140 170.748 185.154  0.00  0.00    +0.037 C 
ATOM    136  H   UNL     1     144.032 170.728 185.786  0.00  0.00    +0.052 HD
ATOM    137  H   UNL     1     142.672 171.731 185.260  0.00  0.00    +0.052 HD
ATOM    138  H   UNL     1     142.458 169.962 185.498  0.00  0.00    +0.052 HD
ENDBRANCH 134 135
ENDBRANCH  29 134
BRANCH   6 139
ATOM    139  O   UNL     1     145.544 178.257 185.695  0.00  0.00    -0.379 OA
BRANCH 139 140
ATOM    140  C   UNL     1     145.430 179.508 185.025  0.00  0.00    +0.037 C 
ATOM    141  H   UNL     1     145.441 180.302 185.777  0.00  0.00    +0.052 HD
ATOM    142  H   UNL     1     146.274 179.659 184.349  0.00  0.00    +0.052 HD
ATOM    143  H   UNL     1     144.492 179.569 184.467  0.00  0.00    +0.052 HD
ENDBRANCH 139 140
ENDBRANCH   6 139
BRANCH  16 144
ATOM    144  O   UNL     1     143.461 174.718 191.255  0.00  0.00    -0.379 OA
BRANCH 144 145
ATOM    145  C   UNL     1     142.798 174.904 192.498  0.00  0.00    +0.037 C 
ATOM    146  H   UNL     1     141.806 175.343 192.346  0.00  0.00    +0.052 HD
ATOM    147  H   UNL     1     143.393 175.598 193.101  0.00  0.00    +0.052 HD
ATOM    148  H   UNL     1     142.716 173.962 193.047  0.00  0.00    +0.052 HD
ENDBRANCH 144 145
ENDBRANCH  16 144
BRANCH   4 149
ATOM    149  O   UNL     1     145.253 177.016 182.444  0.00  0.00    -0.376 OA
BRANCH 149 150
ATOM    150  C   UNL     1     145.907 177.963 181.610  0.00  0.00    +0.037 C 
ATOM    151  H   UNL     1     146.107 177.540 180.621  0.00  0.00    +0.052 HD
ATOM    152  H   UNL     1     146.860 178.221 182.075  0.00  0.00    +0.052 HD
ATOM    153  H   UNL     1     145.315 178.876 181.516  0.00  0.00    +0.052 HD
ENDBRANCH 149 150
ENDBRANCH   4 149
TORSDOF 33
ENDMDL
MODEL 10
REMARK VINA RESULT:      -4.9      1.643      2.612
REMARK  Name = Sphinxolide B_conf1
REMARK  33 active torsions:
REMARK  status: ('A' for Active; 'I' for Inactive)
REMARK    1  A    between atoms: C_1  and  C_2
REMARK    2  A    between atoms: C_5  and  O_67
REMARK    3  A    between atoms: C_7  and  O_65
REMARK    4  A    between atoms: C_8  and  C_64
REMARK    5  A    between atoms: C_10  and  O_63
REMARK    6  A    between atoms: C_17  and  O_61
REMARK    7  A    between atoms: C_19  and  C_60
REMARK    8  A    between atoms: C_26  and  C_37
REMARK    9  A    between atoms: C_27  and  C_36
REMARK   10  A    between atoms: C_30  and  O_34
REMARK   11  A    between atoms: C_32  and  O_33
REMARK   12  A    between atoms: O_34  and  C_35
REMARK   13  A    between atoms: C_37  and  C_38
REMARK   14  A    between atoms: C_37  and  C_39
REMARK   15  A    between atoms: C_39  and  C_40
REMARK   16  A    between atoms: C_39  and  O_58
REMARK   17  A    between atoms: C_40  and  C_41
REMARK   18  A    between atoms: C_40  and  C_42
REMARK   19  A    between atoms: C_42  and  C_43
REMARK   20  A    between atoms: C_43  and  C_44
REMARK   21  A    between atoms: C_44  and  C_46
REMARK   22  A    between atoms: C_46  and  C_47
REMARK   23  A    between atoms: C_46  and  C_48
REMARK   24  A    between atoms: C_48  and  C_49
REMARK   25  A    between atoms: C_48  and  O_56
REMARK   26  A    between atoms: C_49  and  C_50
REMARK   27  A    between atoms: C_51  and  N_52
REMARK   28  A    between atoms: N_52  and  C_53
REMARK   29  A    between atoms: O_56  and  C_57
REMARK   30  A    between atoms: O_58  and  C_59
REMARK   31  A    between atoms: O_61  and  C_62
REMARK   32  A    between atoms: O_65  and  C_66
REMARK   33  A    between atoms: O_67  and  C_68
REMARK                            x       y       z     vdW  Elec       q    Type
REMARK                         _______ _______ _______ _____ _____    ______ ____
ROOT
ATOM      1  C   UNL     1     151.708 165.287 190.463  0.00  0.00    +0.000 C 
ATOM      2  C   UNL     1     151.418 163.848 190.081  0.00  0.00    -0.080 C 
ATOM      3  C   UNL     1     152.281 162.915 189.639  0.00  0.00    -0.059 C 
ATOM      4  C   UNL     1     151.960 161.482 189.235  0.00  0.00    +0.079 C 
ATOM      5  C   UNL     1     150.452 161.194 189.139  0.00  0.00    +0.004 C 
ATOM      6  C   UNL     1     150.091 159.756 188.735  0.00  0.00    +0.067 C 
ATOM      7  C   UNL     1     148.539 159.544 188.613  0.00  0.00    +0.022 C 
ATOM      8  C   UNL     1     147.792 159.847 189.958  0.00  0.00    +0.138 C 
ATOM      9  C   UNL     1     146.947 161.148 189.959  0.00  0.00    +0.114 C 
ATOM     10  C   UNL     1     145.683 160.937 189.162  0.00  0.00    -0.029 C 
ATOM     11  C   UNL     1     145.121 159.716 189.210  0.00  0.00    +0.024 C 
ATOM     12  C   UNL     1     145.685 158.608 190.004  0.00  0.00    +0.332 C 
ATOM     13  O   UNL     1     145.006 157.623 190.264  0.00  0.00    -0.246 OA
ATOM     14  O   UNL     1     146.971 158.737 190.411  0.00  0.00    -0.455 OA
ATOM     15  C   UNL     1     145.134 162.109 188.361  0.00  0.00    -0.002 C 
ATOM     16  C   UNL     1     143.799 161.926 187.599  0.00  0.00    +0.066 C 
ATOM     17  C   UNL     1     143.308 163.271 186.998  0.00  0.00    -0.005 C 
ATOM     18  C   UNL     1     144.274 163.981 186.061  0.00  0.00    -0.070 C 
ATOM     19  C   UNL     1     144.956 165.110 186.338  0.00  0.00    -0.062 C 
ATOM     20  C   UNL     1     144.954 165.855 187.579  0.00  0.00    -0.055 C 
ATOM     21  C   UNL     1     145.722 166.940 187.755  0.00  0.00    +0.023 C 
ATOM     22  C   UNL     1     145.714 167.657 189.045  0.00  0.00    +0.332 C 
ATOM     23  O   UNL     1     144.948 167.439 189.971  0.00  0.00    -0.246 OA
ATOM     24  O   UNL     1     146.719 168.561 189.004  0.00  0.00    -0.457 OA
ATOM     25  C   UNL     1     146.950 169.402 190.172  0.00  0.00    +0.114 C 
ATOM     26  C   UNL     1     148.419 169.138 190.632  0.00  0.00    +0.012 C 
ATOM     27  C   UNL     1     148.616 167.641 190.861  0.00  0.00    -0.079 C 
ATOM     28  C   UNL     1     148.843 166.992 192.016  0.00  0.00    -0.059 C 
ATOM     29  C   UNL     1     149.006 165.498 192.106  0.00  0.00    +0.079 C 
ATOM     30  C   UNL     1     150.354 165.057 192.707  0.00  0.00    +0.004 C 
ATOM     31  C   UNL     1     151.643 165.511 192.000  0.00  0.00    +0.064 C 
ATOM     32  H   UNL     1     150.934 165.900 189.988  0.00  0.00    +0.037 HD
ATOM     33  H   UNL     1     150.369 163.574 190.176  0.00  0.00    +0.057 HD
ATOM     34  H   UNL     1     153.332 163.176 189.536  0.00  0.00    +0.059 HD
ATOM     35  H   UNL     1     152.420 161.288 188.258  0.00  0.00    +0.064 HD
ATOM     36  H   UNL     1     150.008 161.395 190.118  0.00  0.00    +0.032 HD
ATOM     37  H   UNL     1     150.021 161.883 188.403  0.00  0.00    +0.032 HD
ATOM     38  H   UNL     1     150.484 159.055 189.485  0.00  0.00    +0.060 HD
ATOM     39  H   UNL     1     148.187 160.245 187.842  0.00  0.00    +0.036 HD
ATOM     40  H   UNL     1     148.544 159.955 190.749  0.00  0.00    +0.077 HD
ATOM     41  H   UNL     1     146.661 161.386 190.990  0.00  0.00    +0.068 HD
ATOM     42  H   UNL     1     144.201 159.461 188.694  0.00  0.00    +0.069 HD
ATOM     43  H   UNL     1     145.016 162.950 189.056  0.00  0.00    +0.034 HD
ATOM     44  H   UNL     1     145.909 162.377 187.632  0.00  0.00    +0.034 HD
ATOM     45  H   UNL     1     143.039 161.576 188.312  0.00  0.00    +0.060 HD
ATOM     46  H   UNL     1     143.028 163.926 187.831  0.00  0.00    +0.034 HD
ATOM     47  H   UNL     1     142.372 163.113 186.450  0.00  0.00    +0.034 HD
ATOM     48  H   UNL     1     145.607 165.515 185.560  0.00  0.00    +0.062 HD
ATOM     49  H   UNL     1     144.317 165.520 188.393  0.00  0.00    +0.062 HD
ATOM     50  H   UNL     1     146.379 167.322 186.982  0.00  0.00    +0.069 HD
ATOM     51  H   UNL     1     146.294 169.068 190.988  0.00  0.00    +0.074 HD
ATOM     52  H   UNL     1     149.098 169.371 189.804  0.00  0.00    +0.038 HD
ATOM     53  H   UNL     1     148.566 167.042 189.950  0.00  0.00    +0.057 HD
ATOM     54  H   UNL     1     148.909 167.527 192.959  0.00  0.00    +0.059 HD
ATOM     55  H   UNL     1     148.886 165.032 191.122  0.00  0.00    +0.064 HD
ATOM     56  H   UNL     1     150.349 163.961 192.770  0.00  0.00    +0.032 HD
ATOM     57  H   UNL     1     150.392 165.400 193.753  0.00  0.00    +0.032 HD
ATOM     58  H   UNL     1     152.470 164.964 192.471  0.00  0.00    +0.060 HD
ENDROOT
BRANCH   1  59
ATOM     59  C   UNL     1     153.039 165.811 189.894  0.00  0.00    -0.057 C 
ATOM     60  H   UNL     1     153.830 165.795 190.652  0.00  0.00    +0.024 HD
ATOM     61  H   UNL     1     153.383 165.183 189.064  0.00  0.00    +0.024 HD
ATOM     62  H   UNL     1     152.943 166.836 189.522  0.00  0.00    +0.024 HD
ENDBRANCH   1  59
BRANCH  26  63
ATOM     63  C   UNL     1     148.854 169.965 191.843  0.00  0.00    -0.056 C 
ATOM     64  H   UNL     1     148.855 171.037 191.620  0.00  0.00    +0.024 HD
ATOM     65  H   UNL     1     148.192 169.796 192.701  0.00  0.00    +0.024 HD
ATOM     66  H   UNL     1     149.850 169.681 192.186  0.00  0.00    +0.024 HD
ENDBRANCH  26  63
BRANCH  18  67
ATOM     67  C   UNL     1     144.429 163.345 184.700  0.00  0.00    -0.043 C 
ATOM     68  H   UNL     1     145.339 163.701 184.207  0.00  0.00    +0.027 HD
ATOM     69  H   UNL     1     143.590 163.576 184.037  0.00  0.00    +0.027 HD
ATOM     70  H   UNL     1     144.478 162.254 184.787  0.00  0.00    +0.027 HD
ENDBRANCH  18  67
BRANCH   7  71
ATOM     71  C   UNL     1     148.243 158.141 188.060  0.00  0.00    -0.057 C 
ATOM     72  H   UNL     1     147.199 158.050 187.741  0.00  0.00    +0.023 HD
ATOM     73  H   UNL     1     148.890 157.898 187.213  0.00  0.00    +0.023 HD
ATOM     74  H   UNL     1     148.438 157.368 188.810  0.00  0.00    +0.023 HD
ENDBRANCH   7  71
BRANCH  31  75
ATOM     75  O   UNL     1     151.858 166.893 192.313  0.00  0.00    -0.391 OA
ATOM     76  H   UNL     1     152.719 167.149 191.944  0.00  0.00    +0.210 HD
ENDBRANCH  31  75
BRANCH  25  77
ATOM     77  C   UNL     1     146.485 170.841 189.770  0.00  0.00    +0.020 C 
ATOM     78  H   UNL     1     147.378 171.473 189.863  0.00  0.00    +0.036 HD
BRANCH  77  79
ATOM     79  C   UNL     1     146.114 170.921 188.280  0.00  0.00    -0.057 C 
ATOM     80  H   UNL     1     146.973 171.093 187.634  0.00  0.00    +0.023 HD
ATOM     81  H   UNL     1     145.384 171.718 188.101  0.00  0.00    +0.023 HD
ATOM     82  H   UNL     1     145.650 169.981 187.956  0.00  0.00    +0.023 HD
ENDBRANCH  77  79
BRANCH  77  83
ATOM     83  C   UNL     1     145.385 171.525 190.650  0.00  0.00    +0.067 C 
ATOM     84  H   UNL     1     144.730 172.090 189.969  0.00  0.00    +0.060 HD
BRANCH  83  85
ATOM     85  C   UNL     1     145.950 172.559 191.678  0.00  0.00    -0.017 C 
ATOM     86  H   UNL     1     146.305 172.045 192.569  0.00  0.00    +0.032 HD
BRANCH  85  87
ATOM     87  C   UNL     1     147.172 173.273 191.076  0.00  0.00    -0.060 C 
ATOM     88  H   UNL     1     147.613 173.960 191.802  0.00  0.00    +0.023 HD
ATOM     89  H   UNL     1     147.952 172.561 190.790  0.00  0.00    +0.023 HD
ATOM     90  H   UNL     1     146.897 173.849 190.187  0.00  0.00    +0.023 HD
ENDBRANCH  85  87
BRANCH  85  91
ATOM     91  C   UNL     1     144.928 173.617 192.158  0.00  0.00    -0.041 C 
ATOM     92  H   UNL     1     145.458 174.468 192.603  0.00  0.00    +0.027 HD
ATOM     93  H   UNL     1     144.307 173.201 192.961  0.00  0.00    +0.027 HD
BRANCH  91  94
ATOM     94  C   UNL     1     144.004 174.118 191.037  0.00  0.00    +0.007 C 
ATOM     95  H   UNL     1     144.245 175.168 190.838  0.00  0.00    +0.034 HD
ATOM     96  H   UNL     1     144.176 173.554 190.122  0.00  0.00    +0.034 HD
BRANCH  94  97
ATOM     97  C   UNL     1     142.521 174.043 191.391  0.00  0.00    +0.139 C 
ATOM     98  O   UNL     1     141.656 173.886 190.524  0.00  0.00    -0.297 OA
BRANCH  97  99
ATOM     99  C   UNL     1     142.097 174.093 192.860  0.00  0.00    +0.041 C 
ATOM    100  H   UNL     1     142.907 173.575 193.391  0.00  0.00    +0.040 HD
BRANCH  99 101
ATOM    101  C   UNL     1     140.847 173.278 193.185  0.00  0.00    -0.053 C 
ATOM    102  H   UNL     1     140.089 173.341 192.398  0.00  0.00    +0.024 HD
ATOM    103  H   UNL     1     140.394 173.620 194.121  0.00  0.00    +0.024 HD
ATOM    104  H   UNL     1     141.102 172.221 193.311  0.00  0.00    +0.024 HD
ENDBRANCH  99 101
BRANCH  99 105
ATOM    105  C   UNL     1     142.050 175.551 193.370  0.00  0.00    +0.071 C 
ATOM    106  H   UNL     1     142.866 176.132 192.918  0.00  0.00    +0.061 HD
BRANCH 105 107
ATOM    107  C   UNL     1     140.715 176.263 193.063  0.00  0.00    -0.006 C 
ATOM    108  H   UNL     1     140.013 175.569 192.593  0.00  0.00    +0.033 HD
ATOM    109  H   UNL     1     140.257 176.615 193.996  0.00  0.00    +0.033 HD
BRANCH 107 110
ATOM    110  C   UNL     1     140.872 177.428 192.115  0.00  0.00    -0.067 C 
ATOM    111  C   UNL     1     141.980 177.629 191.385  0.00  0.00    -0.005 C 
ATOM    112  H   UNL     1     140.035 178.118 192.073  0.00  0.00    +0.059 HD
ATOM    113  H   UNL     1     142.792 176.907 191.453  0.00  0.00    +0.078 HD
BRANCH 111 114
ATOM    114  N   UNL     1     142.204 178.695 190.526  0.00  0.00    -0.284 N 
ATOM    115  C   UNL     1     141.158 179.536 190.156  0.00  0.00    +0.206 C 
ATOM    116  O   UNL     1     141.229 180.504 189.408  0.00  0.00    -0.279 OA
ATOM    117  H   UNL     1     140.196 179.246 190.614  0.00  0.00    +0.126 HD
BRANCH 114 118
ATOM    118  C   UNL     1     143.526 178.975 189.987  0.00  0.00    +0.007 C 
ATOM    119  H   UNL     1     144.246 178.250 190.382  0.00  0.00    +0.043 HD
ATOM    120  H   UNL     1     143.544 178.907 188.896  0.00  0.00    +0.043 HD
ATOM    121  H   UNL     1     143.820 179.991 190.273  0.00  0.00    +0.043 HD
ENDBRANCH 114 118
ENDBRANCH 111 114
ENDBRANCH 107 110
ENDBRANCH 105 107
BRANCH 105 122
ATOM    122  O   UNL     1     142.198 175.549 194.804  0.00  0.00    -0.379 OA
BRANCH 122 123
ATOM    123  C   UNL     1     141.055 176.050 195.487  0.00  0.00    +0.037 C 
ATOM    124  H   UNL     1     141.039 175.614 196.489  0.00  0.00    +0.052 HD
ATOM    125  H   UNL     1     140.139 175.754 194.967  0.00  0.00    +0.052 HD
ATOM    126  H   UNL     1     141.099 177.138 195.583  0.00  0.00    +0.052 HD
ENDBRANCH 122 123
ENDBRANCH 105 122
ENDBRANCH  99 105
ENDBRANCH  97  99
ENDBRANCH  94  97
ENDBRANCH  91  94
ENDBRANCH  85  91
ENDBRANCH  83  85
BRANCH  83 127
ATOM    127  O   UNL     1     144.609 170.524 191.307  0.00  0.00    -0.379 OA
BRANCH 127 128
ATOM    128  C   UNL     1     143.271 170.424 190.827  0.00  0.00    +0.037 C 
ATOM    129  H   UNL     1     143.002 171.311 190.247  0.00  0.00    +0.052 HD
ATOM    130  H   UNL     1     142.610 170.357 191.694  0.00  0.00    +0.052 HD
ATOM    131  H   UNL     1     143.146 169.523 190.219  0.00  0.00    +0.052 HD
ENDBRANCH 127 128
ENDBRANCH  83 127
ENDBRANCH  77  83
ENDBRANCH  25  77
BRANCH   9 132
ATOM    132  O   UNL     1     147.692 162.247 189.459  0.00  0.00    -0.384 OA
ATOM    133  H   UNL     1     147.140 162.698 188.798  0.00  0.00    +0.210 HD
ENDBRANCH   9 132
BRANCH  29 134
ATOM    134  O   UNL     1     147.987 164.963 192.968  0.00  0.00    -0.376 OA
BRANCH 134 135
ATOM    135  C   UNL     1     147.555 165.864 193.980  0.00  0.00    +0.037 C 
ATOM    136  H   UNL     1     147.509 165.316 194.925  0.00  0.00    +0.052 HD
ATOM    137  H   UNL     1     148.263 166.689 194.102  0.00  0.00    +0.052 HD
ATOM    138  H   UNL     1     146.554 166.250 193.757  0.00  0.00    +0.052 HD
ENDBRANCH 134 135
ENDBRANCH  29 134
BRANCH   6 139
ATOM    139  O   UNL     1     150.691 159.512 187.450  0.00  0.00    -0.379 OA
BRANCH 139 140
ATOM    140  C   UNL     1     150.255 160.428 186.451  0.00  0.00    +0.037 C 
ATOM    141  H   UNL     1     149.576 161.147 186.918  0.00  0.00    +0.052 HD
ATOM    142  H   UNL     1     151.104 160.973 186.033  0.00  0.00    +0.052 HD
ATOM    143  H   UNL     1     149.717 159.909 185.653  0.00  0.00    +0.052 HD
ENDBRANCH 139 140
ENDBRANCH   6 139
BRANCH  16 144
ATOM    144  O   UNL     1     143.980 160.927 186.586  0.00  0.00    -0.379 OA
BRANCH 144 145
ATOM    145  C   UNL     1     142.772 160.326 186.142  0.00  0.00    +0.037 C 
ATOM    146  H   UNL     1     142.522 159.456 186.758  0.00  0.00    +0.052 HD
ATOM    147  H   UNL     1     142.919 159.987 185.111  0.00  0.00    +0.052 HD
ATOM    148  H   UNL     1     141.948 161.045 186.149  0.00  0.00    +0.052 HD
ENDBRANCH 144 145
ENDBRANCH  16 144
BRANCH   4 149
ATOM    149  O   UNL     1     152.512 160.600 190.223  0.00  0.00    -0.376 OA
BRANCH 149 150
ATOM    150  C   UNL     1     153.447 159.668 189.696  0.00  0.00    +0.037 C 
ATOM    151  H   UNL     1     154.385 160.163 189.427  0.00  0.00    +0.052 HD
ATOM    152  H   UNL     1     153.016 159.231 188.793  0.00  0.00    +0.052 HD
ATOM    153  H   UNL     1     153.638 158.860 190.407  0.00  0.00    +0.052 HD
ENDBRANCH 149 150
ENDBRANCH   4 149
TORSDOF 33
ENDMDL
