MODEL 1
REMARK VINA RESULT:      -6.2      0.000      0.000
REMARK  Name = Swinholide A_conf3
REMARK  40 active torsions:
REMARK  status: ('A' for Active; 'I' for Inactive)
REMARK    1  A    between atoms: C_1  and  C_2
REMARK    2  A    between atoms: C_4  and  C_10
REMARK    3  A    between atoms: C_6  and  O_8
REMARK    4  A    between atoms: O_8  and  C_9
REMARK    5  A    between atoms: C_10  and  C_11
REMARK    6  A    between atoms: C_11  and  C_12
REMARK    7  A    between atoms: C_12  and  C_13
REMARK    8  A    between atoms: C_12  and  C_98
REMARK    9  A    between atoms: C_13  and  O_14
REMARK   10  A    between atoms: C_13  and  C_15
REMARK   11  A    between atoms: C_15  and  C_16
REMARK   12  A    between atoms: C_15  and  C_97
REMARK   13  A    between atoms: C_22  and  C_96
REMARK   14  A    between atoms: C_25  and  O_95
REMARK   15  A    between atoms: C_31  and  O_90
REMARK   16  A    between atoms: C_32  and  C_89
REMARK   17  A    between atoms: C_33  and  O_88
REMARK   18  A    between atoms: C_35  and  O_87
REMARK   19  A    between atoms: C_36  and  C_86
REMARK   20  A    between atoms: C_37  and  C_69
REMARK   21  A    between atoms: C_43  and  C_68
REMARK   22  A    between atoms: C_46  and  O_67
REMARK   23  A    between atoms: C_52  and  O_62
REMARK   24  A    between atoms: C_53  and  C_61
REMARK   25  A    between atoms: C_54  and  O_60
REMARK   26  A    between atoms: C_56  and  O_59
REMARK   27  A    between atoms: C_57  and  C_58
REMARK   28  A    between atoms: O_62  and  C_63
REMARK   29  A    between atoms: C_69  and  C_70
REMARK   30  A    between atoms: C_69  and  C_85
REMARK   31  A    between atoms: C_70  and  O_71
REMARK   32  A    between atoms: C_70  and  C_72
REMARK   33  A    between atoms: C_72  and  C_73
REMARK   34  A    between atoms: C_72  and  C_84
REMARK   35  A    between atoms: C_73  and  C_74
REMARK   36  A    between atoms: C_74  and  C_75
REMARK   37  A    between atoms: C_77  and  C_83
REMARK   38  A    between atoms: C_79  and  O_81
REMARK   39  A    between atoms: O_81  and  C_82
REMARK   40  A    between atoms: O_90  and  C_91
REMARK                            x       y       z     vdW  Elec       q    Type
REMARK                         _______ _______ _______ _____ _____    ______ ____
ROOT
ATOM      1  C   UNL     1     145.376 166.921 188.546  0.00  0.00    +0.113 C 
ATOM      2  O   UNL     1     146.240 165.899 189.108  0.00  0.00    -0.458 OA
ATOM      3  C   UNL     1     147.568 166.102 188.898  0.00  0.00    +0.332 C 
ATOM      4  O   UNL     1     148.072 167.094 188.388  0.00  0.00    -0.246 OA
ATOM      5  C   UNL     1     148.416 164.982 189.315  0.00  0.00    +0.023 C 
ATOM      6  C   UNL     1     148.129 164.056 190.240  0.00  0.00    -0.052 C 
ATOM      7  C   UNL     1     149.115 163.062 190.657  0.00  0.00    -0.054 C 
ATOM      8  C   UNL     1     150.386 163.438 190.907  0.00  0.00    -0.079 C 
ATOM      9  C   UNL     1     151.562 162.579 191.261  0.00  0.00    -0.008 C 
ATOM     10  C   UNL     1     152.241 161.811 190.105  0.00  0.00    +0.061 C 
ATOM     11  C   UNL     1     152.028 162.329 188.677  0.00  0.00    +0.003 C 
ATOM     12  C   UNL     1     152.866 163.513 188.167  0.00  0.00    +0.080 C 
ATOM     13  O   UNL     1     152.379 163.722 186.825  0.00  0.00    -0.369 OA
ATOM     14  C   UNL     1     152.716 164.982 186.219  0.00  0.00    +0.065 C 
ATOM     15  C   UNL     1     154.228 165.042 185.940  0.00  0.00    +0.000 C 
ATOM     16  C   UNL     1     154.692 166.203 185.038  0.00  0.00    +0.066 C 
ATOM     17  C   UNL     1     156.199 166.033 184.683  0.00  0.00    +0.009 C 
ATOM     18  C   UNL     1     157.193 166.504 185.785  0.00  0.00    +0.063 C 
ATOM     19  C   UNL     1     158.443 165.599 185.911  0.00  0.00    -0.000 C 
ATOM     20  C   UNL     1     158.091 164.166 186.371  0.00  0.00    +0.064 C 
ATOM     21  C   UNL     1     159.044 163.622 187.470  0.00  0.00    +0.020 C 
ATOM     22  C   UNL     1     158.375 162.581 188.438  0.00  0.00    +0.113 C 
ATOM     23  O   UNL     1     157.119 162.101 187.923  0.00  0.00    -0.458 OA
ATOM     24  C   UNL     1     157.166 161.042 187.079  0.00  0.00    +0.332 C 
ATOM     25  O   UNL     1     158.122 160.310 186.876  0.00  0.00    -0.246 OA
ATOM     26  C   UNL     1     155.848 160.937 186.421  0.00  0.00    +0.023 C 
ATOM     27  C   UNL     1     155.637 159.999 185.485  0.00  0.00    -0.052 C 
ATOM     28  C   UNL     1     154.396 159.831 184.740  0.00  0.00    -0.054 C 
ATOM     29  C   UNL     1     153.730 160.890 184.235  0.00  0.00    -0.079 C 
ATOM     30  C   UNL     1     152.479 160.859 183.397  0.00  0.00    -0.008 C 
ATOM     31  C   UNL     1     151.202 160.963 184.254  0.00  0.00    +0.061 C 
ATOM     32  C   UNL     1     150.545 162.348 184.148  0.00  0.00    +0.003 C 
ATOM     33  C   UNL     1     149.452 162.581 185.207  0.00  0.00    +0.080 C 
ATOM     34  O   UNL     1     149.213 163.995 185.374  0.00  0.00    -0.369 OA
ATOM     35  C   UNL     1     148.277 164.565 184.439  0.00  0.00    +0.065 C 
ATOM     36  C   UNL     1     148.236 166.080 184.729  0.00  0.00    +0.000 C 
ATOM     37  C   UNL     1     147.233 166.884 183.874  0.00  0.00    +0.066 C 
ATOM     38  C   UNL     1     147.207 168.395 184.256  0.00  0.00    +0.009 C 
ATOM     39  C   UNL     1     146.753 168.723 185.705  0.00  0.00    +0.063 C 
ATOM     40  C   UNL     1     145.253 168.856 186.046  0.00  0.00    -0.000 C 
ATOM     41  C   UNL     1     144.405 167.585 186.205  0.00  0.00    +0.064 C 
ATOM     42  C   UNL     1     144.996 166.472 187.100  0.00  0.00    +0.020 C 
ATOM     43  C   UNL     1     146.905 163.904 184.643  0.00  0.00    -0.008 C 
ATOM     44  C   UNL     1     147.004 162.414 184.676  0.00  0.00    -0.083 C 
ATOM     45  C   UNL     1     148.174 161.821 184.938  0.00  0.00    -0.059 C 
ATOM     46  C   UNL     1     152.144 166.130 187.063  0.00  0.00    -0.008 C 
ATOM     47  C   UNL     1     152.469 165.968 188.513  0.00  0.00    -0.083 C 
ATOM     48  C   UNL     1     152.808 164.766 189.000  0.00  0.00    -0.059 C 
ATOM     49  H   UNL     1     145.961 167.841 188.442  0.00  0.00    +0.074 HD
ATOM     50  H   UNL     1     149.391 165.005 188.833  0.00  0.00    +0.069 HD
ATOM     51  H   UNL     1     147.153 164.020 190.718  0.00  0.00    +0.062 HD
ATOM     52  H   UNL     1     150.635 164.497 190.837  0.00  0.00    +0.058 HD
ATOM     53  H   UNL     1     151.276 161.862 192.042  0.00  0.00    +0.033 HD
ATOM     54  H   UNL     1     152.303 163.220 191.757  0.00  0.00    +0.033 HD
ATOM     55  H   UNL     1     151.835 160.791 190.128  0.00  0.00    +0.060 HD
ATOM     56  H   UNL     1     150.964 162.515 188.486  0.00  0.00    +0.032 HD
ATOM     57  H   UNL     1     152.264 161.493 187.999  0.00  0.00    +0.032 HD
ATOM     58  H   UNL     1     153.911 163.195 188.095  0.00  0.00    +0.064 HD
ATOM     59  H   UNL     1     152.192 164.990 185.257  0.00  0.00    +0.060 HD
ATOM     60  H   UNL     1     154.496 164.091 185.461  0.00  0.00    +0.032 HD
ATOM     61  H   UNL     1     154.776 165.054 186.882  0.00  0.00    +0.032 HD
ATOM     62  H   UNL     1     154.532 167.167 185.536  0.00  0.00    +0.060 HD
ATOM     63  H   UNL     1     156.354 164.966 184.486  0.00  0.00    +0.035 HD
ATOM     64  H   UNL     1     157.537 167.514 185.529  0.00  0.00    +0.060 HD
ATOM     65  H   UNL     1     159.099 166.071 186.651  0.00  0.00    +0.032 HD
ATOM     66  H   UNL     1     158.981 165.580 184.956  0.00  0.00    +0.032 HD
ATOM     67  H   UNL     1     157.073 164.175 186.757  0.00  0.00    +0.060 HD
ATOM     68  H   UNL     1     159.371 164.470 188.080  0.00  0.00    +0.036 HD
ATOM     69  H   UNL     1     159.038 161.713 188.552  0.00  0.00    +0.074 HD
ATOM     70  H   UNL     1     155.099 161.667 186.696  0.00  0.00    +0.069 HD
ATOM     71  H   UNL     1     156.433 159.293 185.246  0.00  0.00    +0.062 HD
ATOM     72  H   UNL     1     154.116 161.895 184.407  0.00  0.00    +0.058 HD
ATOM     73  H   UNL     1     152.532 161.688 182.678  0.00  0.00    +0.033 HD
ATOM     74  H   UNL     1     152.464 159.955 182.777  0.00  0.00    +0.033 HD
ATOM     75  H   UNL     1     151.426 160.745 185.305  0.00  0.00    +0.060 HD
ATOM     76  H   UNL     1     151.310 163.123 184.259  0.00  0.00    +0.032 HD
ATOM     77  H   UNL     1     150.117 162.481 183.145  0.00  0.00    +0.032 HD
ATOM     78  H   UNL     1     149.835 162.248 186.179  0.00  0.00    +0.064 HD
ATOM     79  H   UNL     1     148.645 164.397 183.419  0.00  0.00    +0.060 HD
ATOM     80  H   UNL     1     148.039 166.211 185.796  0.00  0.00    +0.032 HD
ATOM     81  H   UNL     1     149.249 166.475 184.570  0.00  0.00    +0.032 HD
ATOM     82  H   UNL     1     146.235 166.458 183.978  0.00  0.00    +0.060 HD
ATOM     83  H   UNL     1     148.249 168.739 184.167  0.00  0.00    +0.035 HD
ATOM     84  H   UNL     1     147.219 168.036 186.404  0.00  0.00    +0.060 HD
ATOM     85  H   UNL     1     144.777 169.509 185.303  0.00  0.00    +0.032 HD
ATOM     86  H   UNL     1     145.175 169.421 186.985  0.00  0.00    +0.032 HD
ATOM     87  H   UNL     1     143.433 167.890 186.614  0.00  0.00    +0.060 HD
ATOM     88  H   UNL     1     145.936 166.167 186.629  0.00  0.00    +0.036 HD
ATOM     89  H   UNL     1     146.211 164.197 183.850  0.00  0.00    +0.033 HD
ATOM     90  H   UNL     1     146.478 164.214 185.599  0.00  0.00    +0.033 HD
ATOM     91  H   UNL     1     146.109 161.823 184.507  0.00  0.00    +0.057 HD
ATOM     92  H   UNL     1     148.225 160.737 184.958  0.00  0.00    +0.059 HD
ATOM     93  H   UNL     1     151.051 166.138 186.970  0.00  0.00    +0.033 HD
ATOM     94  H   UNL     1     152.506 167.095 186.701  0.00  0.00    +0.033 HD
ATOM     95  H   UNL     1     152.445 166.843 189.154  0.00  0.00    +0.057 HD
ATOM     96  H   UNL     1     153.118 164.685 190.036  0.00  0.00    +0.059 HD
ENDROOT
BRANCH  28  97
ATOM     97  C   UNL     1     153.987 158.393 184.565  0.00  0.00    -0.040 C 
ATOM     98  H   UNL     1     154.349 157.954 183.632  0.00  0.00    +0.028 HD
ATOM     99  H   UNL     1     154.366 157.782 185.391  0.00  0.00    +0.028 HD
ATOM    100  H   UNL     1     152.894 158.311 184.546  0.00  0.00    +0.028 HD
ENDBRANCH  28  97
BRANCH  21 101
ATOM    101  C   UNL     1     160.340 163.037 186.888  0.00  0.00    -0.057 C 
ATOM    102  H   UNL     1     160.846 162.377 187.599  0.00  0.00    +0.023 HD
ATOM    103  H   UNL     1     161.039 163.838 186.626  0.00  0.00    +0.023 HD
ATOM    104  H   UNL     1     160.138 162.468 185.975  0.00  0.00    +0.023 HD
ENDBRANCH  21 101
BRANCH  42 105
ATOM    105  C   UNL     1     144.148 165.191 187.038  0.00  0.00    -0.057 C 
ATOM    106  H   UNL     1     143.770 164.933 188.034  0.00  0.00    +0.023 HD
ATOM    107  H   UNL     1     143.277 165.309 186.384  0.00  0.00    +0.023 HD
ATOM    108  H   UNL     1     144.731 164.329 186.708  0.00  0.00    +0.023 HD
ENDBRANCH  42 105
BRANCH  17 109
ATOM    109  C   UNL     1     156.580 166.718 183.359  0.00  0.00    -0.058 C 
ATOM    110  H   UNL     1     157.557 167.204 183.429  0.00  0.00    +0.023 HD
ATOM    111  H   UNL     1     155.840 167.472 183.071  0.00  0.00    +0.023 HD
ATOM    112  H   UNL     1     156.623 165.990 182.540  0.00  0.00    +0.023 HD
ENDBRANCH  17 109
BRANCH  38 113
ATOM    113  C   UNL     1     146.443 169.245 183.227  0.00  0.00    -0.058 C 
ATOM    114  H   UNL     1     146.727 168.985 182.203  0.00  0.00    +0.023 HD
ATOM    115  H   UNL     1     145.360 169.109 183.329  0.00  0.00    +0.023 HD
ATOM    116  H   UNL     1     146.641 170.312 183.374  0.00  0.00    +0.023 HD
ENDBRANCH  38 113
BRANCH   7 117
ATOM    117  C   UNL     1     148.610 161.653 190.752  0.00  0.00    -0.040 C 
ATOM    118  H   UNL     1     149.250 161.068 191.416  0.00  0.00    +0.028 HD
ATOM    119  H   UNL     1     148.593 161.146 189.784  0.00  0.00    +0.028 HD
ATOM    120  H   UNL     1     147.588 161.629 191.147  0.00  0.00    +0.028 HD
ENDBRANCH   7 117
BRANCH   1 121
ATOM    121  C   UNL     1     144.248 167.321 189.545  0.00  0.00    +0.020 C 
ATOM    122  H   UNL     1     143.407 167.669 188.933  0.00  0.00    +0.036 HD
BRANCH 121 123
ATOM    123  C   UNL     1     143.686 166.194 190.407  0.00  0.00    -0.057 C 
ATOM    124  H   UNL     1     142.622 166.029 190.223  0.00  0.00    +0.023 HD
ATOM    125  H   UNL     1     144.226 165.260 190.229  0.00  0.00    +0.023 HD
ATOM    126  H   UNL     1     143.832 166.397 191.469  0.00  0.00    +0.023 HD
ENDBRANCH 121 123
BRANCH 121 127
ATOM    127  C   UNL     1     144.697 168.541 190.417  0.00  0.00    +0.064 C 
ATOM    128  H   UNL     1     143.836 169.219 190.475  0.00  0.00    +0.060 HD
BRANCH 127 129
ATOM    129  C   UNL     1     145.953 169.342 189.937  0.00  0.00    -0.017 C 
ATOM    130  H   UNL     1     146.501 168.736 189.212  0.00  0.00    +0.032 HD
BRANCH 129 131
ATOM    131  C   UNL     1     145.481 170.599 189.185  0.00  0.00    -0.060 C 
ATOM    132  H   UNL     1     146.255 170.969 188.504  0.00  0.00    +0.023 HD
ATOM    133  H   UNL     1     145.236 171.405 189.886  0.00  0.00    +0.023 HD
ATOM    134  H   UNL     1     144.577 170.399 188.601  0.00  0.00    +0.023 HD
ENDBRANCH 129 131
BRANCH 129 135
ATOM    135  C   UNL     1     146.913 169.750 191.080  0.00  0.00    -0.046 C 
ATOM    136  H   UNL     1     146.519 169.416 192.044  0.00  0.00    +0.027 HD
ATOM    137  H   UNL     1     146.959 170.846 191.143  0.00  0.00    +0.027 HD
BRANCH 135 138
ATOM    138  C   UNL     1     148.360 169.241 190.963  0.00  0.00    -0.026 C 
ATOM    139  H   UNL     1     149.007 170.065 191.297  0.00  0.00    +0.029 HD
ATOM    140  H   UNL     1     148.613 169.062 189.911  0.00  0.00    +0.029 HD
BRANCH 138 143
ATOM    141  C   UNL     1     147.921 166.871 193.810  0.00  0.00    +0.059 C 
ATOM    142  O   UNL     1     147.638 167.788 192.746  0.00  0.00    -0.373 OA
ATOM    143  C   UNL     1     148.689 167.994 191.800  0.00  0.00    +0.061 C 
ATOM    144  C   UNL     1     150.036 168.169 192.505  0.00  0.00    -0.000 C 
ATOM    145  C   UNL     1     150.382 166.945 193.363  0.00  0.00    +0.063 C 
ATOM    146  C   UNL     1     149.172 166.035 193.567  0.00  0.00    -0.000 C 
ATOM    147  H   UNL     1     148.055 167.472 194.717  0.00  0.00    +0.059 HD
ATOM    148  H   UNL     1     148.733 167.126 191.133  0.00  0.00    +0.060 HD
ATOM    149  H   UNL     1     150.819 168.383 191.770  0.00  0.00    +0.032 HD
ATOM    150  H   UNL     1     149.968 169.036 193.176  0.00  0.00    +0.032 HD
ATOM    151  H   UNL     1     150.737 167.280 194.348  0.00  0.00    +0.060 HD
ATOM    152  H   UNL     1     149.361 165.353 194.405  0.00  0.00    +0.032 HD
ATOM    153  H   UNL     1     149.034 165.396 192.688  0.00  0.00    +0.032 HD
BRANCH 141 154
ATOM    154  C   UNL     1     146.697 165.985 193.999  0.00  0.00    -0.039 C 
ATOM    155  H   UNL     1     146.344 166.012 195.034  0.00  0.00    +0.025 HD
ATOM    156  H   UNL     1     145.883 166.308 193.343  0.00  0.00    +0.025 HD
ATOM    157  H   UNL     1     146.923 164.946 193.735  0.00  0.00    +0.025 HD
ENDBRANCH 141 154
BRANCH 145 158
ATOM    158  O   UNL     1     151.408 166.158 192.745  0.00  0.00    -0.380 OA
BRANCH 158 159
ATOM    159  C   UNL     1     152.406 166.941 192.102  0.00  0.00    +0.037 C 
ATOM    160  H   UNL     1     153.200 167.143 192.829  0.00  0.00    +0.052 HD
ATOM    161  H   UNL     1     152.842 166.412 191.251  0.00  0.00    +0.052 HD
ATOM    162  H   UNL     1     151.984 167.896 191.775  0.00  0.00    +0.052 HD
ENDBRANCH 158 159
ENDBRANCH 145 158
ENDBRANCH 138 143
ENDBRANCH 135 138
ENDBRANCH 129 135
ENDBRANCH 127 129
BRANCH 127 163
ATOM    163  O   UNL     1     144.893 168.066 191.756  0.00  0.00    -0.391 OA
ATOM    164  H   UNL     1     145.683 168.514 192.106  0.00  0.00    +0.210 HD
ENDBRANCH 127 163
ENDBRANCH 121 127
ENDBRANCH   1 121
BRANCH  41 165
ATOM    165  O   UNL     1     144.145 167.066 184.898  0.00  0.00    -0.391 OA
ATOM    166  H   UNL     1     144.040 167.825 184.300  0.00  0.00    +0.210 HD
ENDBRANCH  41 165
BRANCH  39 167
ATOM    167  O   UNL     1     147.315 170.016 186.033  0.00  0.00    -0.391 OA
ATOM    168  H   UNL     1     147.413 170.038 187.001  0.00  0.00    +0.210 HD
ENDBRANCH  39 167
BRANCH  31 169
ATOM    169  O   UNL     1     150.281 159.960 183.813  0.00  0.00    -0.391 OA
ATOM    170  H   UNL     1     150.599 159.105 184.157  0.00  0.00    +0.210 HD
ENDBRANCH  31 169
BRANCH  22 171
ATOM    171  C   UNL     1     158.158 163.145 189.896  0.00  0.00    +0.020 C 
ATOM    172  H   UNL     1     159.060 163.721 190.137  0.00  0.00    +0.036 HD
BRANCH 171 173
ATOM    173  C   UNL     1     156.957 164.113 189.838  0.00  0.00    -0.057 C 
ATOM    174  H   UNL     1     156.576 164.345 190.838  0.00  0.00    +0.023 HD
ATOM    175  H   UNL     1     157.223 165.059 189.357  0.00  0.00    +0.023 HD
ATOM    176  H   UNL     1     156.106 163.689 189.305  0.00  0.00    +0.023 HD
ENDBRANCH 171 173
BRANCH 171 177
ATOM    177  C   UNL     1     157.995 162.053 191.005  0.00  0.00    +0.064 C 
ATOM    178  H   UNL     1     157.254 162.406 191.734  0.00  0.00    +0.060 HD
BRANCH 177 179
ATOM    179  O   UNL     1     157.469 160.873 190.398  0.00  0.00    -0.391 OA
ATOM    180  H   UNL     1     157.764 160.093 190.911  0.00  0.00    +0.210 HD
ENDBRANCH 177 179
BRANCH 177 181
ATOM    181  C   UNL     1     159.270 161.597 191.786  0.00  0.00    -0.017 C 
ATOM    182  H   UNL     1     159.806 160.868 191.162  0.00  0.00    +0.032 HD
BRANCH 181 183
ATOM    183  C   UNL     1     160.247 162.725 192.113  0.00  0.00    -0.060 C 
ATOM    184  H   UNL     1     160.957 162.864 191.294  0.00  0.00    +0.023 HD
ATOM    185  H   UNL     1     160.875 162.495 192.978  0.00  0.00    +0.023 HD
ATOM    186  H   UNL     1     159.724 163.664 192.315  0.00  0.00    +0.023 HD
ENDBRANCH 181 183
BRANCH 181 187
ATOM    187  C   UNL     1     158.832 160.834 193.073  0.00  0.00    -0.046 C 
ATOM    188  H   UNL     1     158.378 159.878 192.783  0.00  0.00    +0.027 HD
ATOM    189  H   UNL     1     158.050 161.409 193.585  0.00  0.00    +0.027 HD
BRANCH 187 190
ATOM    190  C   UNL     1     159.965 160.542 194.068  0.00  0.00    -0.026 C 
ATOM    191  H   UNL     1     160.295 159.502 193.961  0.00  0.00    +0.029 HD
ATOM    192  H   UNL     1     160.814 161.193 193.823  0.00  0.00    +0.029 HD
BRANCH 190 193
ATOM    193  C   UNL     1     159.564 160.801 195.528  0.00  0.00    +0.061 C 
ATOM    194  O   UNL     1     159.925 162.144 195.868  0.00  0.00    -0.373 OA
ATOM    195  C   UNL     1     159.587 162.525 197.204  0.00  0.00    +0.059 C 
ATOM    196  C   UNL     1     160.229 161.583 198.228  0.00  0.00    -0.000 C 
ATOM    197  C   UNL     1     159.987 160.104 197.921  0.00  0.00    +0.063 C 
ATOM    198  C   UNL     1     160.287 159.816 196.451  0.00  0.00    -0.000 C 
ATOM    199  H   UNL     1     158.478 160.679 195.610  0.00  0.00    +0.060 HD
ATOM    200  H   UNL     1     160.039 163.515 197.350  0.00  0.00    +0.059 HD
ATOM    201  H   UNL     1     159.896 161.847 199.236  0.00  0.00    +0.032 HD
ATOM    202  H   UNL     1     161.315 161.747 198.194  0.00  0.00    +0.032 HD
ATOM    203  H   UNL     1     160.653 159.484 198.535  0.00  0.00    +0.060 HD
ATOM    204  H   UNL     1     159.993 158.790 196.200  0.00  0.00    +0.032 HD
ATOM    205  H   UNL     1     161.370 159.903 196.300  0.00  0.00    +0.032 HD
BRANCH 195 206
ATOM    206  C   UNL     1     158.082 162.714 197.381  0.00  0.00    -0.039 C 
ATOM    207  H   UNL     1     157.651 163.163 196.478  0.00  0.00    +0.025 HD
ATOM    208  H   UNL     1     157.868 163.368 198.231  0.00  0.00    +0.025 HD
ATOM    209  H   UNL     1     157.549 161.772 197.538  0.00  0.00    +0.025 HD
ENDBRANCH 195 206
BRANCH 197 210
ATOM    210  O   UNL     1     158.633 159.720 198.180  0.00  0.00    -0.380 OA
BRANCH 210 211
ATOM    211  C   UNL     1     158.457 159.066 199.429  0.00  0.00    +0.037 C 
ATOM    212  H   UNL     1     159.443 158.791 199.812  0.00  0.00    +0.052 HD
ATOM    213  H   UNL     1     157.982 159.740 200.148  0.00  0.00    +0.052 HD
ATOM    214  H   UNL     1     157.863 158.155 199.321  0.00  0.00    +0.052 HD
ENDBRANCH 210 211
ENDBRANCH 197 210
ENDBRANCH 190 193
ENDBRANCH 187 190
ENDBRANCH 181 187
ENDBRANCH 177 181
ENDBRANCH 171 177
ENDBRANCH  22 171
BRANCH  20 215
ATOM    215  O   UNL     1     158.058 163.304 185.232  0.00  0.00    -0.391 OA
ATOM    216  H   UNL     1     157.181 162.892 185.167  0.00  0.00    +0.210 HD
ENDBRANCH  20 215
BRANCH  18 217
ATOM    217  O   UNL     1     156.596 166.622 187.080  0.00  0.00    -0.391 OA
ATOM    218  H   UNL     1     155.632 166.680 186.942  0.00  0.00    +0.210 HD
ENDBRANCH  18 217
BRANCH  10 219
ATOM    219  O   UNL     1     153.634 161.691 190.400  0.00  0.00    -0.391 OA
ATOM    220  H   UNL     1     153.754 160.944 191.011  0.00  0.00    +0.210 HD
ENDBRANCH  10 219
BRANCH  37 221
ATOM    221  O   UNL     1     147.690 166.762 182.513  0.00  0.00    -0.379 OA
BRANCH 221 222
ATOM    222  C   UNL     1     146.740 166.152 181.650  0.00  0.00    +0.037 C 
ATOM    223  H   UNL     1     146.964 165.083 181.600  0.00  0.00    +0.052 HD
ATOM    224  H   UNL     1     145.732 166.273 182.055  0.00  0.00    +0.052 HD
ATOM    225  H   UNL     1     146.791 166.567 180.639  0.00  0.00    +0.052 HD
ENDBRANCH 221 222
ENDBRANCH  37 221
BRANCH  16 226
ATOM    226  O   UNL     1     153.919 166.124 183.828  0.00  0.00    -0.379 OA
BRANCH 226 227
ATOM    227  C   UNL     1     153.876 164.816 183.270  0.00  0.00    +0.037 C 
ATOM    228  H   UNL     1     154.202 164.875 182.228  0.00  0.00    +0.052 HD
ATOM    229  H   UNL     1     154.553 164.146 183.808  0.00  0.00    +0.052 HD
ATOM    230  H   UNL     1     152.857 164.418 183.295  0.00  0.00    +0.052 HD
ENDBRANCH 226 227
ENDBRANCH  16 226
TORSDOF 40
ENDMDL
MODEL 2
REMARK VINA RESULT:      -6.2      4.364      7.232
REMARK  Name = Swinholide A_conf3
REMARK  40 active torsions:
REMARK  status: ('A' for Active; 'I' for Inactive)
REMARK    1  A    between atoms: C_1  and  C_2
REMARK    2  A    between atoms: C_4  and  C_10
REMARK    3  A    between atoms: C_6  and  O_8
REMARK    4  A    between atoms: O_8  and  C_9
REMARK    5  A    between atoms: C_10  and  C_11
REMARK    6  A    between atoms: C_11  and  C_12
REMARK    7  A    between atoms: C_12  and  C_13
REMARK    8  A    between atoms: C_12  and  C_98
REMARK    9  A    between atoms: C_13  and  O_14
REMARK   10  A    between atoms: C_13  and  C_15
REMARK   11  A    between atoms: C_15  and  C_16
REMARK   12  A    between atoms: C_15  and  C_97
REMARK   13  A    between atoms: C_22  and  C_96
REMARK   14  A    between atoms: C_25  and  O_95
REMARK   15  A    between atoms: C_31  and  O_90
REMARK   16  A    between atoms: C_32  and  C_89
REMARK   17  A    between atoms: C_33  and  O_88
REMARK   18  A    between atoms: C_35  and  O_87
REMARK   19  A    between atoms: C_36  and  C_86
REMARK   20  A    between atoms: C_37  and  C_69
REMARK   21  A    between atoms: C_43  and  C_68
REMARK   22  A    between atoms: C_46  and  O_67
REMARK   23  A    between atoms: C_52  and  O_62
REMARK   24  A    between atoms: C_53  and  C_61
REMARK   25  A    between atoms: C_54  and  O_60
REMARK   26  A    between atoms: C_56  and  O_59
REMARK   27  A    between atoms: C_57  and  C_58
REMARK   28  A    between atoms: O_62  and  C_63
REMARK   29  A    between atoms: C_69  and  C_70
REMARK   30  A    between atoms: C_69  and  C_85
REMARK   31  A    between atoms: C_70  and  O_71
REMARK   32  A    between atoms: C_70  and  C_72
REMARK   33  A    between atoms: C_72  and  C_73
REMARK   34  A    between atoms: C_72  and  C_84
REMARK   35  A    between atoms: C_73  and  C_74
REMARK   36  A    between atoms: C_74  and  C_75
REMARK   37  A    between atoms: C_77  and  C_83
REMARK   38  A    between atoms: C_79  and  O_81
REMARK   39  A    between atoms: O_81  and  C_82
REMARK   40  A    between atoms: O_90  and  C_91
REMARK                            x       y       z     vdW  Elec       q    Type
REMARK                         _______ _______ _______ _____ _____    ______ ____
ROOT
ATOM      1  C   UNL     1     141.233 171.163 188.413  0.00  0.00    +0.113 C 
ATOM      2  O   UNL     1     141.914 170.211 189.271  0.00  0.00    -0.458 OA
ATOM      3  C   UNL     1     143.122 169.793 188.807  0.00  0.00    +0.332 C 
ATOM      4  O   UNL     1     143.700 170.225 187.819  0.00  0.00    -0.246 OA
ATOM      5  C   UNL     1     143.718 168.706 189.588  0.00  0.00    +0.023 C 
ATOM      6  C   UNL     1     143.479 168.415 190.875  0.00  0.00    -0.052 C 
ATOM      7  C   UNL     1     144.236 167.381 191.576  0.00  0.00    -0.054 C 
ATOM      8  C   UNL     1     145.576 167.315 191.435  0.00  0.00    -0.079 C 
ATOM      9  C   UNL     1     146.525 166.296 191.991  0.00  0.00    -0.008 C 
ATOM     10  C   UNL     1     146.593 164.934 191.265  0.00  0.00    +0.061 C 
ATOM     11  C   UNL     1     146.114 164.871 189.809  0.00  0.00    +0.003 C 
ATOM     12  C   UNL     1     147.051 165.337 188.682  0.00  0.00    +0.080 C 
ATOM     13  O   UNL     1     146.262 165.155 187.487  0.00  0.00    -0.369 OA
ATOM     14  C   UNL     1     146.732 165.835 186.310  0.00  0.00    +0.065 C 
ATOM     15  C   UNL     1     148.049 165.201 185.829  0.00  0.00    +0.000 C 
ATOM     16  C   UNL     1     148.521 165.631 184.426  0.00  0.00    +0.066 C 
ATOM     17  C   UNL     1     149.748 164.777 183.991  0.00  0.00    +0.009 C 
ATOM     18  C   UNL     1     151.113 165.236 184.580  0.00  0.00    +0.063 C 
ATOM     19  C   UNL     1     152.049 164.060 184.950  0.00  0.00    -0.000 C 
ATOM     20  C   UNL     1     151.475 163.183 186.086  0.00  0.00    +0.064 C 
ATOM     21  C   UNL     1     152.527 162.811 187.167  0.00  0.00    +0.020 C 
ATOM     22  C   UNL     1     151.920 162.586 188.599  0.00  0.00    +0.113 C 
ATOM     23  O   UNL     1     150.487 162.454 188.558  0.00  0.00    -0.458 OA
ATOM     24  C   UNL     1     149.992 161.213 188.330  0.00  0.00    +0.332 C 
ATOM     25  O   UNL     1     150.607 160.160 188.373  0.00  0.00    -0.246 OA
ATOM     26  C   UNL     1     148.561 161.359 187.994  0.00  0.00    +0.023 C 
ATOM     27  C   UNL     1     147.834 160.281 187.664  0.00  0.00    -0.052 C 
ATOM     28  C   UNL     1     146.431 160.310 187.272  0.00  0.00    -0.054 C 
ATOM     29  C   UNL     1     145.959 161.241 186.419  0.00  0.00    -0.079 C 
ATOM     30  C   UNL     1     144.555 161.352 185.882  0.00  0.00    -0.008 C 
ATOM     31  C   UNL     1     143.671 162.266 186.752  0.00  0.00    +0.061 C 
ATOM     32  C   UNL     1     143.413 163.627 186.085  0.00  0.00    +0.003 C 
ATOM     33  C   UNL     1     142.792 164.660 187.042  0.00  0.00    +0.080 C 
ATOM     34  O   UNL     1     143.007 165.996 186.541  0.00  0.00    -0.369 OA
ATOM     35  C   UNL     1     142.026 166.450 185.587  0.00  0.00    +0.065 C 
ATOM     36  C   UNL     1     142.486 167.845 185.115  0.00  0.00    +0.000 C 
ATOM     37  C   UNL     1     141.532 168.550 184.128  0.00  0.00    +0.066 C 
ATOM     38  C   UNL     1     142.031 169.974 183.735  0.00  0.00    +0.009 C 
ATOM     39  C   UNL     1     142.136 171.002 184.896  0.00  0.00    +0.063 C 
ATOM     40  C   UNL     1     140.901 171.817 185.336  0.00  0.00    -0.000 C 
ATOM     41  C   UNL     1     139.828 171.143 186.203  0.00  0.00    +0.064 C 
ATOM     42  C   UNL     1     140.333 170.351 187.430  0.00  0.00    +0.020 C 
ATOM     43  C   UNL     1     140.652 166.499 186.272  0.00  0.00    -0.008 C 
ATOM     44  C   UNL     1     140.348 165.233 187.003  0.00  0.00    -0.083 C 
ATOM     45  C   UNL     1     141.336 164.402 187.352  0.00  0.00    -0.059 C 
ATOM     46  C   UNL     1     146.771 167.348 186.568  0.00  0.00    -0.008 C 
ATOM     47  C   UNL     1     147.457 167.673 187.856  0.00  0.00    -0.083 C 
ATOM     48  C   UNL     1     147.586 166.739 188.809  0.00  0.00    -0.059 C 
ATOM     49  H   UNL     1     141.988 171.667 187.799  0.00  0.00    +0.074 HD
ATOM     50  H   UNL     1     144.473 168.163 189.024  0.00  0.00    +0.069 HD
ATOM     51  H   UNL     1     142.719 168.946 191.441  0.00  0.00    +0.062 HD
ATOM     52  H   UNL     1     146.071 168.075 190.830  0.00  0.00    +0.058 HD
ATOM     53  H   UNL     1     146.301 166.121 193.052  0.00  0.00    +0.033 HD
ATOM     54  H   UNL     1     147.525 166.750 192.009  0.00  0.00    +0.033 HD
ATOM     55  H   UNL     1     145.952 164.246 191.832  0.00  0.00    +0.060 HD
ATOM     56  H   UNL     1     145.134 165.353 189.702  0.00  0.00    +0.032 HD
ATOM     57  H   UNL     1     145.901 163.812 189.591  0.00  0.00    +0.032 HD
ATOM     58  H   UNL     1     147.900 164.648 188.627  0.00  0.00    +0.064 HD
ATOM     59  H   UNL     1     145.968 165.653 185.546  0.00  0.00    +0.060 HD
ATOM     60  H   UNL     1     147.894 164.114 185.834  0.00  0.00    +0.032 HD
ATOM     61  H   UNL     1     148.834 165.383 186.563  0.00  0.00    +0.032 HD
ATOM     62  H   UNL     1     148.784 166.696 184.416  0.00  0.00    +0.060 HD
ATOM     63  H   UNL     1     149.541 163.749 184.311  0.00  0.00    +0.035 HD
ATOM     64  H   UNL     1     151.626 165.846 183.825  0.00  0.00    +0.060 HD
ATOM     65  H   UNL     1     152.999 164.504 185.273  0.00  0.00    +0.032 HD
ATOM     66  H   UNL     1     152.252 163.457 184.058  0.00  0.00    +0.032 HD
ATOM     67  H   UNL     1     150.661 163.731 186.557  0.00  0.00    +0.060 HD
ATOM     68  H   UNL     1     153.238 163.640 187.241  0.00  0.00    +0.036 HD
ATOM     69  H   UNL     1     152.326 161.657 189.022  0.00  0.00    +0.074 HD
ATOM     70  H   UNL     1     148.156 162.362 187.985  0.00  0.00    +0.069 HD
ATOM     71  H   UNL     1     148.300 159.295 187.686  0.00  0.00    +0.062 HD
ATOM     72  H   UNL     1     146.636 162.003 186.031  0.00  0.00    +0.058 HD
ATOM     73  H   UNL     1     144.615 161.733 184.854  0.00  0.00    +0.033 HD
ATOM     74  H   UNL     1     144.112 160.354 185.782  0.00  0.00    +0.033 HD
ATOM     75  H   UNL     1     144.129 162.422 187.736  0.00  0.00    +0.060 HD
ATOM     76  H   UNL     1     144.356 164.028 185.703  0.00  0.00    +0.032 HD
ATOM     77  H   UNL     1     142.759 163.496 185.212  0.00  0.00    +0.032 HD
ATOM     78  H   UNL     1     143.341 164.629 187.990  0.00  0.00    +0.064 HD
ATOM     79  H   UNL     1     142.014 165.760 184.733  0.00  0.00    +0.060 HD
ATOM     80  H   UNL     1     142.659 168.459 186.003  0.00  0.00    +0.032 HD
ATOM     81  H   UNL     1     143.473 167.727 184.647  0.00  0.00    +0.032 HD
ATOM     82  H   UNL     1     140.534 168.615 184.562  0.00  0.00    +0.060 HD
ATOM     83  H   UNL     1     143.052 169.831 183.348  0.00  0.00    +0.035 HD
ATOM     84  H   UNL     1     142.584 170.535 185.767  0.00  0.00    +0.060 HD
ATOM     85  H   UNL     1     140.421 172.243 184.445  0.00  0.00    +0.032 HD
ATOM     86  H   UNL     1     141.263 172.696 185.888  0.00  0.00    +0.032 HD
ATOM     87  H   UNL     1     139.143 171.929 186.545  0.00  0.00    +0.060 HD
ATOM     88  H   UNL     1     140.970 169.551 187.038  0.00  0.00    +0.036 HD
ATOM     89  H   UNL     1     139.860 166.687 185.541  0.00  0.00    +0.033 HD
ATOM     90  H   UNL     1     140.630 167.304 187.010  0.00  0.00    +0.033 HD
ATOM     91  H   UNL     1     139.318 165.011 187.265  0.00  0.00    +0.057 HD
ATOM     92  H   UNL     1     141.094 163.486 187.884  0.00  0.00    +0.059 HD
ATOM     93  H   UNL     1     145.746 167.731 186.635  0.00  0.00    +0.033 HD
ATOM     94  H   UNL     1     147.257 167.870 185.741  0.00  0.00    +0.033 HD
ATOM     95  H   UNL     1     147.863 168.670 187.994  0.00  0.00    +0.057 HD
ATOM     96  H   UNL     1     148.156 166.971 189.702  0.00  0.00    +0.059 HD
ENDROOT
BRANCH  28  97
ATOM     97  C   UNL     1     145.615 159.195 187.868  0.00  0.00    -0.040 C 
ATOM     98  H   UNL     1     145.042 159.503 188.747  0.00  0.00    +0.028 HD
ATOM     99  H   UNL     1     144.907 158.800 187.131  0.00  0.00    +0.028 HD
ATOM    100  H   UNL     1     146.270 158.379 188.193  0.00  0.00    +0.028 HD
ENDBRANCH  28  97
BRANCH  21 101
ATOM    101  C   UNL     1     153.381 161.600 186.764  0.00  0.00    -0.057 C 
ATOM    102  H   UNL     1     152.823 160.662 186.841  0.00  0.00    +0.023 HD
ATOM    103  H   UNL     1     154.259 161.515 187.414  0.00  0.00    +0.023 HD
ATOM    104  H   UNL     1     153.744 161.701 185.736  0.00  0.00    +0.023 HD
ENDBRANCH  21 101
BRANCH  42 105
ATOM    105  C   UNL     1     139.190 169.578 188.110  0.00  0.00    -0.057 C 
ATOM    106  H   UNL     1     138.401 169.348 187.386  0.00  0.00    +0.023 HD
ATOM    107  H   UNL     1     139.533 168.626 188.528  0.00  0.00    +0.023 HD
ATOM    108  H   UNL     1     138.710 170.165 188.896  0.00  0.00    +0.023 HD
ENDBRANCH  42 105
BRANCH  17 109
ATOM    109  C   UNL     1     149.888 164.671 182.461  0.00  0.00    -0.058 C 
ATOM    110  H   UNL     1     149.086 165.211 181.951  0.00  0.00    +0.023 HD
ATOM    111  H   UNL     1     149.866 163.628 182.129  0.00  0.00    +0.023 HD
ATOM    112  H   UNL     1     150.843 165.090 182.126  0.00  0.00    +0.023 HD
ENDBRANCH  17 109
BRANCH  38 113
ATOM    113  C   UNL     1     141.257 170.557 182.543  0.00  0.00    -0.058 C 
ATOM    114  H   UNL     1     141.087 169.804 181.768  0.00  0.00    +0.023 HD
ATOM    115  H   UNL     1     140.284 170.952 182.859  0.00  0.00    +0.023 HD
ATOM    116  H   UNL     1     141.802 171.393 182.090  0.00  0.00    +0.023 HD
ENDBRANCH  38 113
BRANCH   7 117
ATOM    117  C   UNL     1     143.420 166.436 192.406  0.00  0.00    -0.040 C 
ATOM    118  H   UNL     1     143.681 165.402 192.165  0.00  0.00    +0.028 HD
ATOM    119  H   UNL     1     142.346 166.549 192.238  0.00  0.00    +0.028 HD
ATOM    120  H   UNL     1     143.598 166.598 193.475  0.00  0.00    +0.028 HD
ENDBRANCH   7 117
BRANCH   1 121
ATOM    121  C   UNL     1     140.607 172.325 189.242  0.00  0.00    +0.020 C 
ATOM    122  H   UNL     1     139.618 172.514 188.806  0.00  0.00    +0.036 HD
BRANCH 121 123
ATOM    123  C   UNL     1     140.351 172.033 190.718  0.00  0.00    -0.057 C 
ATOM    124  H   UNL     1     141.037 171.281 191.113  0.00  0.00    +0.023 HD
ATOM    125  H   UNL     1     140.441 172.944 191.318  0.00  0.00    +0.023 HD
ATOM    126  H   UNL     1     139.326 171.696 190.884  0.00  0.00    +0.023 HD
ENDBRANCH 121 123
BRANCH 121 127
ATOM    127  C   UNL     1     141.434 173.640 189.054  0.00  0.00    +0.064 C 
ATOM    128  H   UNL     1     140.963 174.192 188.231  0.00  0.00    +0.060 HD
BRANCH 127 129
ATOM    129  C   UNL     1     142.965 173.489 188.763  0.00  0.00    -0.017 C 
ATOM    130  H   UNL     1     143.152 172.487 188.370  0.00  0.00    +0.032 HD
BRANCH 129 131
ATOM    131  C   UNL     1     143.357 174.473 187.648  0.00  0.00    -0.060 C 
ATOM    132  H   UNL     1     142.654 174.425 186.809  0.00  0.00    +0.023 HD
ATOM    133  H   UNL     1     144.358 174.248 187.261  0.00  0.00    +0.023 HD
ATOM    134  H   UNL     1     143.382 175.503 188.015  0.00  0.00    +0.023 HD
ENDBRANCH 129 131
BRANCH 129 135
ATOM    135  C   UNL     1     143.865 173.720 190.000  0.00  0.00    -0.046 C 
ATOM    136  H   UNL     1     143.532 174.601 190.554  0.00  0.00    +0.027 HD
ATOM    137  H   UNL     1     144.888 173.948 189.669  0.00  0.00    +0.027 HD
BRANCH 135 138
ATOM    138  C   UNL     1     143.961 172.550 190.996  0.00  0.00    -0.026 C 
ATOM    139  H   UNL     1     143.524 171.677 190.492  0.00  0.00    +0.029 HD
ATOM    140  H   UNL     1     143.330 172.747 191.870  0.00  0.00    +0.029 HD
BRANCH 138 143
ATOM    141  C   UNL     1     147.327 173.247 192.445  0.00  0.00    +0.059 C 
ATOM    142  O   UNL     1     145.914 173.273 192.211  0.00  0.00    -0.373 OA
ATOM    143  C   UNL     1     145.385 172.187 191.448  0.00  0.00    +0.061 C 
ATOM    144  C   UNL     1     146.268 171.888 190.234  0.00  0.00    -0.000 C 
ATOM    145  C   UNL     1     147.701 171.538 190.655  0.00  0.00    +0.063 C 
ATOM    146  C   UNL     1     147.967 171.905 192.115  0.00  0.00    -0.000 C 
ATOM    147  H   UNL     1     147.766 174.026 191.810  0.00  0.00    +0.059 HD
ATOM    148  H   UNL     1     145.333 171.302 192.092  0.00  0.00    +0.060 HD
ATOM    149  H   UNL     1     145.817 171.092 189.631  0.00  0.00    +0.032 HD
ATOM    150  H   UNL     1     146.316 172.789 189.609  0.00  0.00    +0.032 HD
ATOM    151  H   UNL     1     148.410 172.089 190.022  0.00  0.00    +0.060 HD
ATOM    152  H   UNL     1     149.049 171.927 192.297  0.00  0.00    +0.032 HD
ATOM    153  H   UNL     1     147.570 171.125 192.774  0.00  0.00    +0.032 HD
BRANCH 141 154
ATOM    154  C   UNL     1     147.565 173.626 193.900  0.00  0.00    -0.039 C 
ATOM    155  H   UNL     1     146.621 173.719 194.446  0.00  0.00    +0.025 HD
ATOM    156  H   UNL     1     148.184 172.873 194.399  0.00  0.00    +0.025 HD
ATOM    157  H   UNL     1     148.103 174.577 193.973  0.00  0.00    +0.025 HD
ENDBRANCH 141 154
BRANCH 145 158
ATOM    158  O   UNL     1     147.949 170.134 190.517  0.00  0.00    -0.380 OA
BRANCH 158 159
ATOM    159  C   UNL     1     148.484 169.539 191.693  0.00  0.00    +0.037 C 
ATOM    160  H   UNL     1     148.522 168.456 191.538  0.00  0.00    +0.052 HD
ATOM    161  H   UNL     1     149.497 169.896 191.896  0.00  0.00    +0.052 HD
ATOM    162  H   UNL     1     147.834 169.745 192.549  0.00  0.00    +0.052 HD
ENDBRANCH 158 159
ENDBRANCH 145 158
ENDBRANCH 138 143
ENDBRANCH 135 138
ENDBRANCH 129 135
ENDBRANCH 127 129
BRANCH 127 163
ATOM    163  O   UNL     1     141.228 174.451 190.218  0.00  0.00    -0.391 OA
ATOM    164  H   UNL     1     140.346 174.233 190.567  0.00  0.00    +0.210 HD
ENDBRANCH 127 163
ENDBRANCH 121 127
ENDBRANCH   1 121
BRANCH  41 165
ATOM    165  O   UNL     1     139.059 170.283 185.356  0.00  0.00    -0.391 OA
ATOM    166  H   UNL     1     139.019 170.699 184.479  0.00  0.00    +0.210 HD
ENDBRANCH  41 165
BRANCH  39 167
ATOM    167  O   UNL     1     143.099 172.000 184.480  0.00  0.00    -0.391 OA
ATOM    168  H   UNL     1     143.384 171.752 183.583  0.00  0.00    +0.210 HD
ENDBRANCH  39 167
BRANCH  31 169
ATOM    169  O   UNL     1     142.424 161.601 186.980  0.00  0.00    -0.391 OA
ATOM    170  H   UNL     1     142.080 161.919 187.836  0.00  0.00    +0.210 HD
ENDBRANCH  31 169
BRANCH  22 171
ATOM    171  C   UNL     1     152.309 163.725 189.619  0.00  0.00    +0.020 C 
ATOM    172  H   UNL     1     152.109 163.317 190.619  0.00  0.00    +0.036 HD
BRANCH 171 173
ATOM    173  C   UNL     1     153.827 163.966 189.480  0.00  0.00    -0.057 C 
ATOM    174  H   UNL     1     154.332 163.932 190.451  0.00  0.00    +0.023 HD
ATOM    175  H   UNL     1     154.298 163.217 188.836  0.00  0.00    +0.023 HD
ATOM    176  H   UNL     1     154.056 164.952 189.078  0.00  0.00    +0.023 HD
ENDBRANCH 171 173
BRANCH 171 177
ATOM    177  C   UNL     1     151.477 165.043 189.481  0.00  0.00    +0.064 C 
ATOM    178  H   UNL     1     151.459 165.334 188.423  0.00  0.00    +0.060 HD
BRANCH 177 179
ATOM    179  O   UNL     1     150.133 164.766 189.872  0.00  0.00    -0.391 OA
ATOM    180  H   UNL     1     150.076 164.783 190.850  0.00  0.00    +0.210 HD
ENDBRANCH 177 179
BRANCH 177 181
ATOM    181  C   UNL     1     151.917 166.286 190.322  0.00  0.00    -0.017 C 
ATOM    182  H   UNL     1     152.999 166.418 190.189  0.00  0.00    +0.032 HD
BRANCH 181 183
ATOM    183  C   UNL     1     151.243 167.595 189.914  0.00  0.00    -0.060 C 
ATOM    184  H   UNL     1     151.922 168.200 189.308  0.00  0.00    +0.023 HD
ATOM    185  H   UNL     1     151.009 168.229 190.774  0.00  0.00    +0.023 HD
ATOM    186  H   UNL     1     150.315 167.415 189.364  0.00  0.00    +0.023 HD
ENDBRANCH 181 183
BRANCH 181 187
ATOM    187  C   UNL     1     151.694 165.980 191.835  0.00  0.00    -0.046 C 
ATOM    188  H   UNL     1     152.663 166.009 192.349  0.00  0.00    +0.027 HD
ATOM    189  H   UNL     1     151.314 164.956 191.944  0.00  0.00    +0.027 HD
BRANCH 187 190
ATOM    190  C   UNL     1     150.741 166.944 192.555  0.00  0.00    -0.026 C 
ATOM    191  H   UNL     1     151.270 167.869 192.812  0.00  0.00    +0.029 HD
ATOM    192  H   UNL     1     149.926 167.201 191.866  0.00  0.00    +0.029 HD
BRANCH 190 193
ATOM    193  C   UNL     1     150.124 166.340 193.826  0.00  0.00    +0.061 C 
ATOM    194  O   UNL     1     149.062 167.194 194.266  0.00  0.00    -0.373 OA
ATOM    195  C   UNL     1     148.384 166.735 195.439  0.00  0.00    +0.059 C 
ATOM    196  C   UNL     1     149.360 166.546 196.605  0.00  0.00    -0.000 C 
ATOM    197  C   UNL     1     150.591 165.718 196.232  0.00  0.00    +0.063 C 
ATOM    198  C   UNL     1     151.189 166.226 194.920  0.00  0.00    -0.000 C 
ATOM    199  H   UNL     1     149.722 165.352 193.574  0.00  0.00    +0.060 HD
ATOM    200  H   UNL     1     147.701 167.547 195.720  0.00  0.00    +0.059 HD
ATOM    201  H   UNL     1     148.834 166.124 197.465  0.00  0.00    +0.032 HD
ATOM    202  H   UNL     1     149.718 167.541 196.903  0.00  0.00    +0.032 HD
ATOM    203  H   UNL     1     151.354 165.813 197.015  0.00  0.00    +0.060 HD
ATOM    204  H   UNL     1     151.991 165.556 194.587  0.00  0.00    +0.032 HD
ATOM    205  H   UNL     1     151.629 167.214 195.105  0.00  0.00    +0.032 HD
BRANCH 195 206
ATOM    206  C   UNL     1     147.505 165.520 195.152  0.00  0.00    -0.039 C 
ATOM    207  H   UNL     1     148.129 164.661 194.875  0.00  0.00    +0.025 HD
ATOM    208  H   UNL     1     146.813 165.725 194.330  0.00  0.00    +0.025 HD
ATOM    209  H   UNL     1     146.917 165.203 196.017  0.00  0.00    +0.025 HD
ENDBRANCH 195 206
BRANCH 197 210
ATOM    210  O   UNL     1     150.273 164.333 196.065  0.00  0.00    -0.380 OA
BRANCH 210 211
ATOM    211  C   UNL     1     151.263 163.456 196.585  0.00  0.00    +0.037 C 
ATOM    212  H   UNL     1     151.442 163.724 197.629  0.00  0.00    +0.052 HD
ATOM    213  H   UNL     1     150.913 162.421 196.549  0.00  0.00    +0.052 HD
ATOM    214  H   UNL     1     152.206 163.553 196.039  0.00  0.00    +0.052 HD
ENDBRANCH 210 211
ENDBRANCH 197 210
ENDBRANCH 190 193
ENDBRANCH 187 190
ENDBRANCH 181 187
ENDBRANCH 177 181
ENDBRANCH 171 177
ENDBRANCH  22 171
BRANCH  20 215
ATOM    215  O   UNL     1     150.872 162.019 185.519  0.00  0.00    -0.391 OA
ATOM    216  H   UNL     1     150.045 161.825 185.990  0.00  0.00    +0.210 HD
ENDBRANCH  20 215
BRANCH  18 217
ATOM    217  O   UNL     1     150.984 166.082 185.727  0.00  0.00    -0.391 OA
ATOM    218  H   UNL     1     150.373 165.633 186.341  0.00  0.00    +0.210 HD
ENDBRANCH  18 217
BRANCH  10 219
ATOM    219  O   UNL     1     147.924 164.426 191.384  0.00  0.00    -0.391 OA
ATOM    220  H   UNL     1     147.929 163.507 191.066  0.00  0.00    +0.210 HD
ENDBRANCH  10 219
BRANCH  37 221
ATOM    221  O   UNL     1     141.512 167.729 182.945  0.00  0.00    -0.379 OA
BRANCH 221 222
ATOM    222  C   UNL     1     140.221 167.227 182.626  0.00  0.00    +0.037 C 
ATOM    223  H   UNL     1     140.199 166.998 181.557  0.00  0.00    +0.052 HD
ATOM    224  H   UNL     1     140.030 166.303 183.178  0.00  0.00    +0.052 HD
ATOM    225  H   UNL     1     139.439 167.961 182.842  0.00  0.00    +0.052 HD
ENDBRANCH 221 222
ENDBRANCH  37 221
BRANCH  16 226
ATOM    226  O   UNL     1     147.431 165.371 183.524  0.00  0.00    -0.379 OA
BRANCH 226 227
ATOM    227  C   UNL     1     146.951 166.539 182.868  0.00  0.00    +0.037 C 
ATOM    228  H   UNL     1     145.861 166.474 182.804  0.00  0.00    +0.052 HD
ATOM    229  H   UNL     1     147.212 167.435 183.439  0.00  0.00    +0.052 HD
ATOM    230  H   UNL     1     147.356 166.609 181.854  0.00  0.00    +0.052 HD
ENDBRANCH 226 227
ENDBRANCH  16 226
TORSDOF 40
ENDMDL
MODEL 3
REMARK VINA RESULT:      -6.1      6.432     15.823
REMARK  Name = Swinholide A_conf3
REMARK  40 active torsions:
REMARK  status: ('A' for Active; 'I' for Inactive)
REMARK    1  A    between atoms: C_1  and  C_2
REMARK    2  A    between atoms: C_4  and  C_10
REMARK    3  A    between atoms: C_6  and  O_8
REMARK    4  A    between atoms: O_8  and  C_9
REMARK    5  A    between atoms: C_10  and  C_11
REMARK    6  A    between atoms: C_11  and  C_12
REMARK    7  A    between atoms: C_12  and  C_13
REMARK    8  A    between atoms: C_12  and  C_98
REMARK    9  A    between atoms: C_13  and  O_14
REMARK   10  A    between atoms: C_13  and  C_15
REMARK   11  A    between atoms: C_15  and  C_16
REMARK   12  A    between atoms: C_15  and  C_97
REMARK   13  A    between atoms: C_22  and  C_96
REMARK   14  A    between atoms: C_25  and  O_95
REMARK   15  A    between atoms: C_31  and  O_90
REMARK   16  A    between atoms: C_32  and  C_89
REMARK   17  A    between atoms: C_33  and  O_88
REMARK   18  A    between atoms: C_35  and  O_87
REMARK   19  A    between atoms: C_36  and  C_86
REMARK   20  A    between atoms: C_37  and  C_69
REMARK   21  A    between atoms: C_43  and  C_68
REMARK   22  A    between atoms: C_46  and  O_67
REMARK   23  A    between atoms: C_52  and  O_62
REMARK   24  A    between atoms: C_53  and  C_61
REMARK   25  A    between atoms: C_54  and  O_60
REMARK   26  A    between atoms: C_56  and  O_59
REMARK   27  A    between atoms: C_57  and  C_58
REMARK   28  A    between atoms: O_62  and  C_63
REMARK   29  A    between atoms: C_69  and  C_70
REMARK   30  A    between atoms: C_69  and  C_85
REMARK   31  A    between atoms: C_70  and  O_71
REMARK   32  A    between atoms: C_70  and  C_72
REMARK   33  A    between atoms: C_72  and  C_73
REMARK   34  A    between atoms: C_72  and  C_84
REMARK   35  A    between atoms: C_73  and  C_74
REMARK   36  A    between atoms: C_74  and  C_75
REMARK   37  A    between atoms: C_77  and  C_83
REMARK   38  A    between atoms: C_79  and  O_81
REMARK   39  A    between atoms: O_81  and  C_82
REMARK   40  A    between atoms: O_90  and  C_91
REMARK                            x       y       z     vdW  Elec       q    Type
REMARK                         _______ _______ _______ _____ _____    ______ ____
ROOT
ATOM      1  C   UNL     1     149.081 166.305 188.696  0.00  0.00    +0.113 C 
ATOM      2  O   UNL     1     148.888 167.612 189.298  0.00  0.00    -0.458 OA
ATOM      3  C   UNL     1     147.600 167.900 189.625  0.00  0.00    +0.332 C 
ATOM      4  O   UNL     1     146.651 167.131 189.555  0.00  0.00    -0.246 OA
ATOM      5  C   UNL     1     147.392 169.282 190.068  0.00  0.00    +0.023 C 
ATOM      6  C   UNL     1     148.307 170.100 190.608  0.00  0.00    -0.052 C 
ATOM      7  C   UNL     1     147.941 171.415 191.127  0.00  0.00    -0.054 C 
ATOM      8  C   UNL     1     146.838 171.556 191.889  0.00  0.00    -0.079 C 
ATOM      9  C   UNL     1     146.242 172.813 192.449  0.00  0.00    -0.008 C 
ATOM     10  C   UNL     1     145.424 173.692 191.476  0.00  0.00    +0.061 C 
ATOM     11  C   UNL     1     144.858 173.031 190.213  0.00  0.00    +0.003 C 
ATOM     12  C   UNL     1     143.563 172.207 190.303  0.00  0.00    +0.080 C 
ATOM     13  O   UNL     1     143.364 171.736 188.953  0.00  0.00    -0.369 OA
ATOM     14  C   UNL     1     142.435 170.650 188.793  0.00  0.00    +0.065 C 
ATOM     15  C   UNL     1     141.006 171.134 189.094  0.00  0.00    +0.000 C 
ATOM     16  C   UNL     1     139.877 170.166 188.689  0.00  0.00    +0.066 C 
ATOM     17  C   UNL     1     138.492 170.855 188.869  0.00  0.00    +0.009 C 
ATOM     18  C   UNL     1     137.946 170.867 190.327  0.00  0.00    +0.063 C 
ATOM     19  C   UNL     1     137.208 172.176 190.695  0.00  0.00    -0.000 C 
ATOM     20  C   UNL     1     138.144 173.407 190.681  0.00  0.00    +0.064 C 
ATOM     21  C   UNL     1     137.947 174.343 191.904  0.00  0.00    +0.020 C 
ATOM     22  C   UNL     1     139.242 175.129 192.322  0.00  0.00    +0.113 C 
ATOM     23  O   UNL     1     140.256 175.072 191.302  0.00  0.00    -0.458 OA
ATOM     24  C   UNL     1     140.198 176.009 190.325  0.00  0.00    +0.332 C 
ATOM     25  O   UNL     1     139.522 177.025 190.326  0.00  0.00    -0.246 OA
ATOM     26  C   UNL     1     141.090 175.571 189.232  0.00  0.00    +0.023 C 
ATOM     27  C   UNL     1     141.178 176.293 188.105  0.00  0.00    -0.052 C 
ATOM     28  C   UNL     1     141.987 175.935 186.948  0.00  0.00    -0.054 C 
ATOM     29  C   UNL     1     142.022 174.672 186.477  0.00  0.00    -0.079 C 
ATOM     30  C   UNL     1     142.760 174.177 185.261  0.00  0.00    -0.008 C 
ATOM     31  C   UNL     1     144.174 173.669 185.605  0.00  0.00    +0.061 C 
ATOM     32  C   UNL     1     144.264 172.136 185.570  0.00  0.00    +0.003 C 
ATOM     33  C   UNL     1     145.563 171.592 186.191  0.00  0.00    +0.080 C 
ATOM     34  O   UNL     1     145.397 170.207 186.560  0.00  0.00    -0.369 OA
ATOM     35  C   UNL     1     145.639 169.264 185.497  0.00  0.00    +0.065 C 
ATOM     36  C   UNL     1     145.323 167.867 186.071  0.00  0.00    +0.000 C 
ATOM     37  C   UNL     1     145.581 166.689 185.106  0.00  0.00    +0.066 C 
ATOM     38  C   UNL     1     145.291 165.308 185.767  0.00  0.00    +0.009 C 
ATOM     39  C   UNL     1     146.174 164.941 186.993  0.00  0.00    +0.063 C 
ATOM     40  C   UNL     1     147.558 164.287 186.794  0.00  0.00    -0.000 C 
ATOM     41  C   UNL     1     148.746 165.161 186.363  0.00  0.00    +0.064 C 
ATOM     42  C   UNL     1     148.952 166.476 187.150  0.00  0.00    +0.020 C 
ATOM     43  C   UNL     1     147.104 169.383 185.050  0.00  0.00    -0.008 C 
ATOM     44  C   UNL     1     147.495 170.802 184.797  0.00  0.00    -0.083 C 
ATOM     45  C   UNL     1     146.784 171.803 185.327  0.00  0.00    -0.059 C 
ATOM     46  C   UNL     1     142.915 169.437 189.601  0.00  0.00    -0.008 C 
ATOM     47  C   UNL     1     143.283 169.811 191.001  0.00  0.00    -0.083 C 
ATOM     48  C   UNL     1     143.566 171.086 191.308  0.00  0.00    -0.059 C 
ATOM     49  H   UNL     1     148.250 165.662 189.008  0.00  0.00    +0.074 HD
ATOM     50  H   UNL     1     146.352 169.587 189.984  0.00  0.00    +0.069 HD
ATOM     51  H   UNL     1     149.351 169.807 190.685  0.00  0.00    +0.062 HD
ATOM     52  H   UNL     1     146.266 170.662 192.142  0.00  0.00    +0.058 HD
ATOM     53  H   UNL     1     147.031 173.427 192.902  0.00  0.00    +0.033 HD
ATOM     54  H   UNL     1     145.611 172.530 193.301  0.00  0.00    +0.033 HD
ATOM     55  H   UNL     1     146.098 174.488 191.134  0.00  0.00    +0.060 HD
ATOM     56  H   UNL     1     145.635 172.450 189.699  0.00  0.00    +0.032 HD
ATOM     57  H   UNL     1     144.637 173.843 189.502  0.00  0.00    +0.032 HD
ATOM     58  H   UNL     1     142.736 172.883 190.544  0.00  0.00    +0.064 HD
ATOM     59  H   UNL     1     142.487 170.379 187.733  0.00  0.00    +0.060 HD
ATOM     60  H   UNL     1     140.874 172.079 188.551  0.00  0.00    +0.032 HD
ATOM     61  H   UNL     1     140.919 171.394 190.149  0.00  0.00    +0.032 HD
ATOM     62  H   UNL     1     139.919 169.249 189.291  0.00  0.00    +0.060 HD
ATOM     63  H   UNL     1     138.610 171.887 188.517  0.00  0.00    +0.035 HD
ATOM     64  H   UNL     1     137.232 170.040 190.434  0.00  0.00    +0.060 HD
ATOM     65  H   UNL     1     136.803 172.036 191.704  0.00  0.00    +0.032 HD
ATOM     66  H   UNL     1     136.360 172.324 190.016  0.00  0.00    +0.032 HD
ATOM     67  H   UNL     1     139.172 173.049 190.669  0.00  0.00    +0.060 HD
ATOM     68  H   UNL     1     137.654 173.723 192.757  0.00  0.00    +0.036 HD
ATOM     69  H   UNL     1     138.989 176.187 192.477  0.00  0.00    +0.074 HD
ATOM     70  H   UNL     1     141.618 174.637 189.370  0.00  0.00    +0.069 HD
ATOM     71  H   UNL     1     140.616 177.225 188.021  0.00  0.00    +0.062 HD
ATOM     72  H   UNL     1     141.450 173.896 186.987  0.00  0.00    +0.058 HD
ATOM     73  H   UNL     1     142.162 173.377 184.804  0.00  0.00    +0.033 HD
ATOM     74  H   UNL     1     142.798 174.963 184.499  0.00  0.00    +0.033 HD
ATOM     75  H   UNL     1     144.482 174.031 186.594  0.00  0.00    +0.060 HD
ATOM     76  H   UNL     1     143.413 171.710 186.110  0.00  0.00    +0.032 HD
ATOM     77  H   UNL     1     144.177 171.782 184.533  0.00  0.00    +0.032 HD
ATOM     78  H   UNL     1     145.738 172.112 187.140  0.00  0.00    +0.064 HD
ATOM     79  H   UNL     1     144.956 169.483 184.666  0.00  0.00    +0.060 HD
ATOM     80  H   UNL     1     145.889 167.749 186.998  0.00  0.00    +0.032 HD
ATOM     81  H   UNL     1     144.266 167.865 186.373  0.00  0.00    +0.032 HD
ATOM     82  H   UNL     1     146.612 166.722 184.753  0.00  0.00    +0.060 HD
ATOM     83  H   UNL     1     144.254 165.368 186.133  0.00  0.00    +0.035 HD
ATOM     84  H   UNL     1     146.275 165.800 187.647  0.00  0.00    +0.060 HD
ATOM     85  H   UNL     1     147.458 163.452 186.088  0.00  0.00    +0.032 HD
ATOM     86  H   UNL     1     147.835 163.803 187.741  0.00  0.00    +0.032 HD
ATOM     87  H   UNL     1     149.652 164.549 186.452  0.00  0.00    +0.060 HD
ATOM     88  H   UNL     1     148.048 167.072 186.992  0.00  0.00    +0.036 HD
ATOM     89  H   UNL     1     147.282 168.798 184.144  0.00  0.00    +0.033 HD
ATOM     90  H   UNL     1     147.766 169.007 185.833  0.00  0.00    +0.033 HD
ATOM     91  H   UNL     1     148.377 171.006 184.196  0.00  0.00    +0.057 HD
ATOM     92  H   UNL     1     147.085 172.828 185.131  0.00  0.00    +0.059 HD
ATOM     93  H   UNL     1     143.812 169.017 189.127  0.00  0.00    +0.033 HD
ATOM     94  H   UNL     1     142.157 168.650 189.609  0.00  0.00    +0.033 HD
ATOM     95  H   UNL     1     143.295 169.038 191.762  0.00  0.00    +0.057 HD
ATOM     96  H   UNL     1     143.751 171.350 192.343  0.00  0.00    +0.059 HD
ENDROOT
BRANCH  28  97
ATOM     97  C   UNL     1     142.712 177.103 186.334  0.00  0.00    -0.040 C 
ATOM     98  H   UNL     1     143.373 177.618 187.036  0.00  0.00    +0.028 HD
ATOM     99  H   UNL     1     143.321 176.774 185.484  0.00  0.00    +0.028 HD
ATOM    100  H   UNL     1     141.993 177.849 185.977  0.00  0.00    +0.028 HD
ENDBRANCH  28  97
BRANCH  21 101
ATOM    101  C   UNL     1     136.779 175.322 191.714  0.00  0.00    -0.057 C 
ATOM    102  H   UNL     1     135.819 174.804 191.636  0.00  0.00    +0.023 HD
ATOM    103  H   UNL     1     136.913 175.908 190.798  0.00  0.00    +0.023 HD
ATOM    104  H   UNL     1     136.721 176.030 192.548  0.00  0.00    +0.023 HD
ENDBRANCH  21 101
BRANCH  42 105
ATOM    105  C   UNL     1     150.051 167.343 186.515  0.00  0.00    -0.057 C 
ATOM    106  H   UNL     1     150.886 167.474 187.213  0.00  0.00    +0.023 HD
ATOM    107  H   UNL     1     150.459 166.887 185.607  0.00  0.00    +0.023 HD
ATOM    108  H   UNL     1     149.696 168.350 186.284  0.00  0.00    +0.023 HD
ENDBRANCH  42 105
BRANCH  17 109
ATOM    109  C   UNL     1     137.409 170.266 187.948  0.00  0.00    -0.058 C 
ATOM    110  H   UNL     1     136.973 169.360 188.377  0.00  0.00    +0.023 HD
ATOM    111  H   UNL     1     137.813 170.020 186.961  0.00  0.00    +0.023 HD
ATOM    112  H   UNL     1     136.599 170.986 187.786  0.00  0.00    +0.023 HD
ENDBRANCH  17 109
BRANCH  38 113
ATOM    113  C   UNL     1     145.259 164.164 184.741  0.00  0.00    -0.058 C 
ATOM    114  H   UNL     1     145.808 164.425 183.832  0.00  0.00    +0.023 HD
ATOM    115  H   UNL     1     145.697 163.249 185.156  0.00  0.00    +0.023 HD
ATOM    116  H   UNL     1     144.230 163.918 184.458  0.00  0.00    +0.023 HD
ENDBRANCH  38 113
BRANCH   7 117
ATOM    117  C   UNL     1     148.851 172.541 190.731  0.00  0.00    -0.040 C 
ATOM    118  H   UNL     1     148.831 173.326 191.490  0.00  0.00    +0.028 HD
ATOM    119  H   UNL     1     148.565 172.998 189.780  0.00  0.00    +0.028 HD
ATOM    120  H   UNL     1     149.884 172.190 190.622  0.00  0.00    +0.028 HD
ENDBRANCH   7 117
BRANCH   1 121
ATOM    121  C   UNL     1     150.333 165.589 189.286  0.00  0.00    +0.020 C 
ATOM    122  H   UNL     1     151.025 165.443 188.447  0.00  0.00    +0.036 HD
BRANCH 121 123
ATOM    123  C   UNL     1     151.122 166.372 190.332  0.00  0.00    -0.057 C 
ATOM    124  H   UNL     1     151.534 167.299 189.926  0.00  0.00    +0.023 HD
ATOM    125  H   UNL     1     150.494 166.612 191.195  0.00  0.00    +0.023 HD
ATOM    126  H   UNL     1     151.938 165.775 190.743  0.00  0.00    +0.023 HD
ENDBRANCH 121 123
BRANCH 121 127
ATOM    127  C   UNL     1     149.955 164.161 189.803  0.00  0.00    +0.064 C 
ATOM    128  H   UNL     1     150.118 163.471 188.967  0.00  0.00    +0.060 HD
BRANCH 127 129
ATOM    129  C   UNL     1     148.506 163.962 190.362  0.00  0.00    -0.017 C 
ATOM    130  H   UNL     1     147.861 164.743 189.954  0.00  0.00    +0.032 HD
BRANCH 129 131
ATOM    131  C   UNL     1     147.954 162.625 189.840  0.00  0.00    -0.060 C 
ATOM    132  H   UNL     1     148.571 162.231 189.025  0.00  0.00    +0.023 HD
ATOM    133  H   UNL     1     146.932 162.744 189.462  0.00  0.00    +0.023 HD
ATOM    134  H   UNL     1     147.914 161.872 190.634  0.00  0.00    +0.023 HD
ENDBRANCH 129 131
BRANCH 129 135
ATOM    135  C   UNL     1     148.419 163.993 191.907  0.00  0.00    -0.046 C 
ATOM    136  H   UNL     1     149.215 163.385 192.345  0.00  0.00    +0.027 HD
ATOM    137  H   UNL     1     147.478 163.524 192.227  0.00  0.00    +0.027 HD
BRANCH 135 138
ATOM    138  C   UNL     1     148.479 165.384 192.560  0.00  0.00    -0.026 C 
ATOM    139  H   UNL     1     147.444 165.754 192.599  0.00  0.00    +0.029 HD
ATOM    140  H   UNL     1     149.028 166.081 191.916  0.00  0.00    +0.029 HD
BRANCH 138 143
ATOM    141  C   UNL     1     149.014 166.828 195.958  0.00  0.00    +0.059 C 
ATOM    142  O   UNL     1     148.394 166.441 194.725  0.00  0.00    -0.373 OA
ATOM    143  C   UNL     1     149.060 165.418 193.983  0.00  0.00    +0.061 C 
ATOM    144  C   UNL     1     150.569 165.669 193.934  0.00  0.00    -0.000 C 
ATOM    145  C   UNL     1     151.174 165.725 195.342  0.00  0.00    +0.063 C 
ATOM    146  C   UNL     1     150.097 165.859 196.417  0.00  0.00    -0.000 C 
ATOM    147  H   UNL     1     149.457 167.817 195.792  0.00  0.00    +0.059 HD
ATOM    148  H   UNL     1     148.863 164.454 194.465  0.00  0.00    +0.060 HD
ATOM    149  H   UNL     1     151.055 164.908 193.314  0.00  0.00    +0.032 HD
ATOM    150  H   UNL     1     150.744 166.643 193.459  0.00  0.00    +0.032 HD
ATOM    151  H   UNL     1     151.848 166.591 195.414  0.00  0.00    +0.060 HD
ATOM    152  H   UNL     1     150.553 166.193 197.357  0.00  0.00    +0.032 HD
ATOM    153  H   UNL     1     149.659 164.878 196.630  0.00  0.00    +0.032 HD
BRANCH 141 154
ATOM    154  C   UNL     1     147.919 166.964 197.007  0.00  0.00    -0.039 C 
ATOM    155  H   UNL     1     146.947 166.658 196.608  0.00  0.00    +0.025 HD
ATOM    156  H   UNL     1     148.146 166.350 197.884  0.00  0.00    +0.025 HD
ATOM    157  H   UNL     1     147.840 167.999 197.357  0.00  0.00    +0.025 HD
ENDBRANCH 141 154
BRANCH 145 158
ATOM    158  O   UNL     1     151.917 164.535 195.630  0.00  0.00    -0.380 OA
BRANCH 158 159
ATOM    159  C   UNL     1     151.288 163.699 196.593  0.00  0.00    +0.037 C 
ATOM    160  H   UNL     1     151.933 163.654 197.477  0.00  0.00    +0.052 HD
ATOM    161  H   UNL     1     150.316 164.097 196.894  0.00  0.00    +0.052 HD
ATOM    162  H   UNL     1     151.172 162.686 196.196  0.00  0.00    +0.052 HD
ENDBRANCH 158 159
ENDBRANCH 145 158
ENDBRANCH 138 143
ENDBRANCH 135 138
ENDBRANCH 129 135
ENDBRANCH 127 129
BRANCH 127 163
ATOM    163  O   UNL     1     150.924 163.790 190.793  0.00  0.00    -0.391 OA
ATOM    164  H   UNL     1     151.614 163.273 190.340  0.00  0.00    +0.210 HD
ENDBRANCH 127 163
ENDBRANCH 121 127
ENDBRANCH   1 121
BRANCH  41 165
ATOM    165  O   UNL     1     148.593 165.451 184.971  0.00  0.00    -0.391 OA
ATOM    166  H   UNL     1     149.037 164.742 184.476  0.00  0.00    +0.210 HD
ENDBRANCH  41 165
BRANCH  39 167
ATOM    167  O   UNL     1     145.425 163.975 187.768  0.00  0.00    -0.391 OA
ATOM    168  H   UNL     1     145.051 164.458 188.525  0.00  0.00    +0.210 HD
ENDBRANCH  39 167
BRANCH  31 169
ATOM    169  O   UNL     1     145.094 174.225 184.660  0.00  0.00    -0.391 OA
ATOM    170  H   UNL     1     144.570 174.555 183.907  0.00  0.00    +0.210 HD
ENDBRANCH  31 169
BRANCH  22 171
ATOM    171  C   UNL     1     139.851 174.632 193.689  0.00  0.00    +0.020 C 
ATOM    172  H   UNL     1     138.999 174.320 194.307  0.00  0.00    +0.036 HD
BRANCH 171 173
ATOM    173  C   UNL     1     140.716 173.392 193.381  0.00  0.00    -0.057 C 
ATOM    174  H   UNL     1     140.711 173.150 192.313  0.00  0.00    +0.023 HD
ATOM    175  H   UNL     1     141.758 173.539 193.682  0.00  0.00    +0.023 HD
ATOM    176  H   UNL     1     140.345 172.493 193.873  0.00  0.00    +0.023 HD
ENDBRANCH 171 173
BRANCH 171 177
ATOM    177  C   UNL     1     140.633 175.723 194.496  0.00  0.00    +0.064 C 
ATOM    178  H   UNL     1     141.639 175.340 194.712  0.00  0.00    +0.060 HD
BRANCH 177 179
ATOM    179  O   UNL     1     140.782 176.872 193.663  0.00  0.00    -0.391 OA
ATOM    180  H   UNL     1     140.370 177.642 194.107  0.00  0.00    +0.210 HD
ENDBRANCH 177 179
BRANCH 177 181
ATOM    181  C   UNL     1     140.009 176.243 195.831  0.00  0.00    -0.017 C 
ATOM    182  H   UNL     1     140.568 175.793 196.663  0.00  0.00    +0.032 HD
BRANCH 181 183
ATOM    183  C   UNL     1     140.070 177.759 196.008  0.00  0.00    -0.060 C 
ATOM    184  H   UNL     1     139.694 178.044 196.994  0.00  0.00    +0.023 HD
ATOM    185  H   UNL     1     139.417 178.287 195.307  0.00  0.00    +0.023 HD
ATOM    186  H   UNL     1     141.087 178.139 195.874  0.00  0.00    +0.023 HD
ENDBRANCH 181 183
BRANCH 181 187
ATOM    187  C   UNL     1     138.547 175.715 195.949  0.00  0.00    -0.046 C 
ATOM    188  H   UNL     1     138.554 174.623 195.845  0.00  0.00    +0.027 HD
ATOM    189  H   UNL     1     137.955 176.105 195.110  0.00  0.00    +0.027 HD
BRANCH 187 190
ATOM    190  C   UNL     1     137.837 176.067 197.264  0.00  0.00    -0.026 C 
ATOM    191  H   UNL     1     138.576 176.360 198.019  0.00  0.00    +0.029 HD
ATOM    192  H   UNL     1     137.180 176.927 197.082  0.00  0.00    +0.029 HD
BRANCH 190 193
ATOM    193  C   UNL     1     136.980 174.915 197.811  0.00  0.00    +0.061 C 
ATOM    194  O   UNL     1     135.917 174.661 196.888  0.00  0.00    -0.373 OA
ATOM    195  C   UNL     1     135.048 173.590 197.269  0.00  0.00    +0.059 C 
ATOM    196  C   UNL     1     134.434 173.840 198.651  0.00  0.00    -0.000 C 
ATOM    197  C   UNL     1     135.470 174.211 199.713  0.00  0.00    +0.063 C 
ATOM    198  C   UNL     1     136.406 175.294 199.179  0.00  0.00    -0.000 C 
ATOM    199  H   UNL     1     137.617 174.026 197.894  0.00  0.00    +0.060 HD
ATOM    200  H   UNL     1     134.225 173.607 196.543  0.00  0.00    +0.059 HD
ATOM    201  H   UNL     1     133.836 172.976 198.953  0.00  0.00    +0.032 HD
ATOM    202  H   UNL     1     133.746 174.691 198.558  0.00  0.00    +0.032 HD
ATOM    203  H   UNL     1     134.964 174.604 200.604  0.00  0.00    +0.060 HD
ATOM    204  H   UNL     1     137.224 175.470 199.888  0.00  0.00    +0.032 HD
ATOM    205  H   UNL     1     135.833 176.226 199.087  0.00  0.00    +0.032 HD
BRANCH 195 206
ATOM    206  C   UNL     1     135.722 172.228 197.118  0.00  0.00    -0.039 C 
ATOM    207  H   UNL     1     136.541 172.291 196.393  0.00  0.00    +0.025 HD
ATOM    208  H   UNL     1     135.007 171.476 196.769  0.00  0.00    +0.025 HD
ATOM    209  H   UNL     1     136.165 171.864 198.049  0.00  0.00    +0.025 HD
ENDBRANCH 195 206
BRANCH 197 210
ATOM    210  O   UNL     1     136.268 173.087 200.096  0.00  0.00    -0.380 OA
BRANCH 210 211
ATOM    211  C   UNL     1     136.802 173.190 201.409  0.00  0.00    +0.037 C 
ATOM    212  H   UNL     1     137.878 173.012 201.355  0.00  0.00    +0.052 HD
ATOM    213  H   UNL     1     136.636 174.194 201.809  0.00  0.00    +0.052 HD
ATOM    214  H   UNL     1     136.363 172.443 202.076  0.00  0.00    +0.052 HD
ENDBRANCH 210 211
ENDBRANCH 197 210
ENDBRANCH 190 193
ENDBRANCH 187 190
ENDBRANCH 181 187
ENDBRANCH 177 181
ENDBRANCH 171 177
ENDBRANCH  22 171
BRANCH  20 215
ATOM    215  O   UNL     1     137.972 174.110 189.449  0.00  0.00    -0.391 OA
ATOM    216  H   UNL     1     138.841 174.383 189.111  0.00  0.00    +0.210 HD
ENDBRANCH  20 215
BRANCH  18 217
ATOM    217  O   UNL     1     138.953 170.630 191.315  0.00  0.00    -0.391 OA
ATOM    218  H   UNL     1     138.519 170.707 192.186  0.00  0.00    +0.210 HD
ENDBRANCH  18 217
BRANCH  10 219
ATOM    219  O   UNL     1     144.388 174.340 192.217  0.00  0.00    -0.391 OA
ATOM    220  H   UNL     1     143.953 173.676 192.779  0.00  0.00    +0.210 HD
ENDBRANCH  10 219
BRANCH  37 221
ATOM    221  O   UNL     1     144.668 166.872 184.007  0.00  0.00    -0.379 OA
BRANCH 221 222
ATOM    222  C   UNL     1     145.317 167.033 182.753  0.00  0.00    +0.037 C 
ATOM    223  H   UNL     1     145.472 166.041 182.321  0.00  0.00    +0.052 HD
ATOM    224  H   UNL     1     144.684 167.608 182.073  0.00  0.00    +0.052 HD
ATOM    225  H   UNL     1     146.290 167.522 182.863  0.00  0.00    +0.052 HD
ENDBRANCH 221 222
ENDBRANCH  37 221
BRANCH  16 226
ATOM    226  O   UNL     1     140.067 169.865 187.296  0.00  0.00    -0.379 OA
BRANCH 226 227
ATOM    227  C   UNL     1     140.253 168.477 187.039  0.00  0.00    +0.037 C 
ATOM    228  H   UNL     1     141.261 168.200 187.358  0.00  0.00    +0.052 HD
ATOM    229  H   UNL     1     139.532 167.881 187.606  0.00  0.00    +0.052 HD
ATOM    230  H   UNL     1     140.156 168.265 185.969  0.00  0.00    +0.052 HD
ENDBRANCH 226 227
ENDBRANCH  16 226
TORSDOF 40
ENDMDL
MODEL 4
REMARK VINA RESULT:      -6.1      6.705     16.119
REMARK  Name = Swinholide A_conf3
REMARK  40 active torsions:
REMARK  status: ('A' for Active; 'I' for Inactive)
REMARK    1  A    between atoms: C_1  and  C_2
REMARK    2  A    between atoms: C_4  and  C_10
REMARK    3  A    between atoms: C_6  and  O_8
REMARK    4  A    between atoms: O_8  and  C_9
REMARK    5  A    between atoms: C_10  and  C_11
REMARK    6  A    between atoms: C_11  and  C_12
REMARK    7  A    between atoms: C_12  and  C_13
REMARK    8  A    between atoms: C_12  and  C_98
REMARK    9  A    between atoms: C_13  and  O_14
REMARK   10  A    between atoms: C_13  and  C_15
REMARK   11  A    between atoms: C_15  and  C_16
REMARK   12  A    between atoms: C_15  and  C_97
REMARK   13  A    between atoms: C_22  and  C_96
REMARK   14  A    between atoms: C_25  and  O_95
REMARK   15  A    between atoms: C_31  and  O_90
REMARK   16  A    between atoms: C_32  and  C_89
REMARK   17  A    between atoms: C_33  and  O_88
REMARK   18  A    between atoms: C_35  and  O_87
REMARK   19  A    between atoms: C_36  and  C_86
REMARK   20  A    between atoms: C_37  and  C_69
REMARK   21  A    between atoms: C_43  and  C_68
REMARK   22  A    between atoms: C_46  and  O_67
REMARK   23  A    between atoms: C_52  and  O_62
REMARK   24  A    between atoms: C_53  and  C_61
REMARK   25  A    between atoms: C_54  and  O_60
REMARK   26  A    between atoms: C_56  and  O_59
REMARK   27  A    between atoms: C_57  and  C_58
REMARK   28  A    between atoms: O_62  and  C_63
REMARK   29  A    between atoms: C_69  and  C_70
REMARK   30  A    between atoms: C_69  and  C_85
REMARK   31  A    between atoms: C_70  and  O_71
REMARK   32  A    between atoms: C_70  and  C_72
REMARK   33  A    between atoms: C_72  and  C_73
REMARK   34  A    between atoms: C_72  and  C_84
REMARK   35  A    between atoms: C_73  and  C_74
REMARK   36  A    between atoms: C_74  and  C_75
REMARK   37  A    between atoms: C_77  and  C_83
REMARK   38  A    between atoms: C_79  and  O_81
REMARK   39  A    between atoms: O_81  and  C_82
REMARK   40  A    between atoms: O_90  and  C_91
REMARK                            x       y       z     vdW  Elec       q    Type
REMARK                         _______ _______ _______ _____ _____    ______ ____
ROOT
ATOM      1  C   UNL     1     148.336 166.519 188.400  0.00  0.00    +0.113 C 
ATOM      2  O   UNL     1     148.228 167.812 189.052  0.00  0.00    -0.458 OA
ATOM      3  C   UNL     1     146.964 168.158 189.415  0.00  0.00    +0.332 C 
ATOM      4  O   UNL     1     145.973 167.445 189.336  0.00  0.00    -0.246 OA
ATOM      5  C   UNL     1     146.841 169.532 189.910  0.00  0.00    +0.023 C 
ATOM      6  C   UNL     1     147.809 170.279 190.461  0.00  0.00    -0.052 C 
ATOM      7  C   UNL     1     147.526 171.592 191.033  0.00  0.00    -0.054 C 
ATOM      8  C   UNL     1     146.446 171.765 191.822  0.00  0.00    -0.079 C 
ATOM      9  C   UNL     1     145.931 173.031 192.438  0.00  0.00    -0.008 C 
ATOM     10  C   UNL     1     145.146 173.989 191.513  0.00  0.00    +0.061 C 
ATOM     11  C   UNL     1     144.522 173.406 190.239  0.00  0.00    +0.003 C 
ATOM     12  C   UNL     1     143.185 172.652 190.325  0.00  0.00    +0.080 C 
ATOM     13  O   UNL     1     142.936 172.243 188.964  0.00  0.00    -0.369 OA
ATOM     14  C   UNL     1     141.945 171.216 188.784  0.00  0.00    +0.065 C 
ATOM     15  C   UNL     1     140.551 171.766 189.130  0.00  0.00    +0.000 C 
ATOM     16  C   UNL     1     139.363 170.877 188.713  0.00  0.00    +0.066 C 
ATOM     17  C   UNL     1     138.022 171.634 188.946  0.00  0.00    +0.009 C 
ATOM     18  C   UNL     1     137.504 171.623 190.414  0.00  0.00    +0.063 C 
ATOM     19  C   UNL     1     136.846 172.956 190.842  0.00  0.00    -0.000 C 
ATOM     20  C   UNL     1     137.848 174.133 190.853  0.00  0.00    +0.064 C 
ATOM     21  C   UNL     1     137.726 175.033 192.113  0.00  0.00    +0.020 C 
ATOM     22  C   UNL     1     139.070 175.731 192.532  0.00  0.00    +0.113 C 
ATOM     23  O   UNL     1     140.060 175.655 191.491  0.00  0.00    -0.458 OA
ATOM     24  C   UNL     1     140.037 176.630 190.549  0.00  0.00    +0.332 C 
ATOM     25  O   UNL     1     139.419 177.681 190.599  0.00  0.00    -0.246 OA
ATOM     26  C   UNL     1     140.884 176.183 189.424  0.00  0.00    +0.023 C 
ATOM     27  C   UNL     1     140.992 176.941 188.322  0.00  0.00    -0.052 C 
ATOM     28  C   UNL     1     141.759 176.581 187.137  0.00  0.00    -0.054 C 
ATOM     29  C   UNL     1     141.715 175.336 186.620  0.00  0.00    -0.079 C 
ATOM     30  C   UNL     1     142.403 174.846 185.373  0.00  0.00    -0.008 C 
ATOM     31  C   UNL     1     143.792 174.250 185.671  0.00  0.00    +0.061 C 
ATOM     32  C   UNL     1     143.796 172.716 185.580  0.00  0.00    +0.003 C 
ATOM     33  C   UNL     1     145.074 172.079 186.155  0.00  0.00    +0.080 C 
ATOM     34  O   UNL     1     144.838 170.692 186.478  0.00  0.00    -0.369 OA
ATOM     35  C   UNL     1     145.008 169.777 185.377  0.00  0.00    +0.065 C 
ATOM     36  C   UNL     1     144.625 168.379 185.907  0.00  0.00    +0.000 C 
ATOM     37  C   UNL     1     144.800 167.226 184.897  0.00  0.00    +0.066 C 
ATOM     38  C   UNL     1     144.445 165.839 185.514  0.00  0.00    +0.009 C 
ATOM     39  C   UNL     1     145.329 165.380 186.708  0.00  0.00    +0.063 C 
ATOM     40  C   UNL     1     146.671 164.658 186.458  0.00  0.00    -0.000 C 
ATOM     41  C   UNL     1     147.897 165.481 186.035  0.00  0.00    +0.064 C 
ATOM     42  C   UNL     1     148.190 166.753 186.864  0.00  0.00    +0.020 C 
ATOM     43  C   UNL     1     146.469 169.832 184.906  0.00  0.00    -0.008 C 
ATOM     44  C   UNL     1     146.934 171.235 184.695  0.00  0.00    -0.083 C 
ATOM     45  C   UNL     1     146.289 172.254 185.275  0.00  0.00    -0.059 C 
ATOM     46  C   UNL     1     142.372 169.949 189.539  0.00  0.00    -0.008 C 
ATOM     47  C   UNL     1     142.785 170.252 190.943  0.00  0.00    -0.083 C 
ATOM     48  C   UNL     1     143.144 171.496 191.289  0.00  0.00    -0.059 C 
ATOM     49  H   UNL     1     147.477 165.911 188.706  0.00  0.00    +0.074 HD
ATOM     50  H   UNL     1     145.818 169.896 189.858  0.00  0.00    +0.069 HD
ATOM     51  H   UNL     1     148.836 169.926 190.507  0.00  0.00    +0.062 HD
ATOM     52  H   UNL     1     145.831 170.895 192.054  0.00  0.00    +0.058 HD
ATOM     53  H   UNL     1     146.761 173.585 192.897  0.00  0.00    +0.033 HD
ATOM     54  H   UNL     1     145.301 172.752 193.292  0.00  0.00    +0.033 HD
ATOM     55  H   UNL     1     145.858 174.759 191.186  0.00  0.00    +0.060 HD
ATOM     56  H   UNL     1     145.256 172.803 189.689  0.00  0.00    +0.032 HD
ATOM     57  H   UNL     1     144.334 174.255 189.562  0.00  0.00    +0.032 HD
ATOM     58  H   UNL     1     142.402 173.363 190.606  0.00  0.00    +0.064 HD
ATOM     59  H   UNL     1     141.963 170.982 187.714  0.00  0.00    +0.060 HD
ATOM     60  H   UNL     1     140.462 172.736 188.624  0.00  0.00    +0.032 HD
ATOM     61  H   UNL     1     140.498 171.992 190.195  0.00  0.00    +0.032 HD
ATOM     62  H   UNL     1     139.365 169.938 189.281  0.00  0.00    +0.060 HD
ATOM     63  H   UNL     1     138.190 172.670 188.628  0.00  0.00    +0.035 HD
ATOM     64  H   UNL     1     136.747 170.833 190.505  0.00  0.00    +0.060 HD
ATOM     65  H   UNL     1     136.452 172.801 191.854  0.00  0.00    +0.032 HD
ATOM     66  H   UNL     1     135.996 173.175 190.186  0.00  0.00    +0.032 HD
ATOM     67  H   UNL     1     138.854 173.720 190.808  0.00  0.00    +0.060 HD
ATOM     68  H   UNL     1     137.414 174.399 192.949  0.00  0.00    +0.036 HD
ATOM     69  H   UNL     1     138.879 176.795 192.730  0.00  0.00    +0.074 HD
ATOM     70  H   UNL     1     141.361 175.218 189.518  0.00  0.00    +0.069 HD
ATOM     71  H   UNL     1     140.481 177.904 188.282  0.00  0.00    +0.062 HD
ATOM     72  H   UNL     1     141.110 174.575 187.114  0.00  0.00    +0.058 HD
ATOM     73  H   UNL     1     141.753 174.097 184.901  0.00  0.00    +0.033 HD
ATOM     74  H   UNL     1     142.471 175.657 184.639  0.00  0.00    +0.033 HD
ATOM     75  H   UNL     1     144.137 174.557 186.666  0.00  0.00    +0.060 HD
ATOM     76  H   UNL     1     142.933 172.317 186.121  0.00  0.00    +0.032 HD
ATOM     77  H   UNL     1     143.671 172.405 184.533  0.00  0.00    +0.032 HD
ATOM     78  H   UNL     1     145.294 172.554 187.118  0.00  0.00    +0.064 HD
ATOM     79  H   UNL     1     144.323 170.063 184.568  0.00  0.00    +0.060 HD
ATOM     80  H   UNL     1     145.200 168.197 186.819  0.00  0.00    +0.032 HD
ATOM     81  H   UNL     1     143.575 168.425 186.230  0.00  0.00    +0.032 HD
ATOM     82  H   UNL     1     145.824 167.214 184.524  0.00  0.00    +0.060 HD
ATOM     83  H   UNL     1     143.420 165.943 185.902  0.00  0.00    +0.035 HD
ATOM     84  H   UNL     1     145.489 166.207 187.390  0.00  0.00    +0.060 HD
ATOM     85  H   UNL     1     146.512 163.857 185.725  0.00  0.00    +0.032 HD
ATOM     86  H   UNL     1     146.937 164.125 187.382  0.00  0.00    +0.032 HD
ATOM     87  H   UNL     1     148.769 164.817 186.085  0.00  0.00    +0.060 HD
ATOM     88  H   UNL     1     147.317 167.404 186.746  0.00  0.00    +0.036 HD
ATOM     89  H   UNL     1     146.598 169.271 183.976  0.00  0.00    +0.033 HD
ATOM     90  H   UNL     1     147.123 169.392 185.661  0.00  0.00    +0.033 HD
ATOM     91  H   UNL     1     147.814 171.413 184.085  0.00  0.00    +0.057 HD
ATOM     92  H   UNL     1     146.643 173.268 185.109  0.00  0.00    +0.059 HD
ATOM     93  H   UNL     1     143.235 169.498 189.032  0.00  0.00    +0.033 HD
ATOM     94  H   UNL     1     141.571 169.206 189.533  0.00  0.00    +0.033 HD
ATOM     95  H   UNL     1     142.768 169.452 191.676  0.00  0.00    +0.057 HD
ATOM     96  H   UNL     1     143.362 171.712 192.329  0.00  0.00    +0.059 HD
ENDROOT
BRANCH  28  97
ATOM     97  C   UNL     1     142.537 177.729 186.551  0.00  0.00    -0.040 C 
ATOM     98  H   UNL     1     142.467 178.644 187.143  0.00  0.00    +0.028 HD
ATOM     99  H   UNL     1     143.598 177.470 186.462  0.00  0.00    +0.028 HD
ATOM    100  H   UNL     1     142.155 177.973 185.552  0.00  0.00    +0.028 HD
ENDBRANCH  28  97
BRANCH  21 101
ATOM    101  C   UNL     1     136.611 176.081 191.981  0.00  0.00    -0.057 C 
ATOM    102  H   UNL     1     135.641 175.689 192.300  0.00  0.00    +0.023 HD
ATOM    103  H   UNL     1     136.509 176.406 190.940  0.00  0.00    +0.023 HD
ATOM    104  H   UNL     1     136.836 176.971 192.580  0.00  0.00    +0.023 HD
ENDBRANCH  21 101
BRANCH  42 105
ATOM    105  C   UNL     1     149.324 167.582 186.238  0.00  0.00    -0.057 C 
ATOM    106  H   UNL     1     149.392 167.386 185.162  0.00  0.00    +0.023 HD
ATOM    107  H   UNL     1     149.160 168.657 186.361  0.00  0.00    +0.023 HD
ATOM    108  H   UNL     1     150.300 167.317 186.650  0.00  0.00    +0.023 HD
ENDBRANCH  42 105
BRANCH  17 109
ATOM    109  C   UNL     1     136.891 171.139 188.026  0.00  0.00    -0.058 C 
ATOM    110  H   UNL     1     137.291 170.654 187.131  0.00  0.00    +0.023 HD
ATOM    111  H   UNL     1     136.243 171.963 187.710  0.00  0.00    +0.023 HD
ATOM    112  H   UNL     1     136.252 170.416 188.545  0.00  0.00    +0.023 HD
ENDBRANCH  17 109
BRANCH  38 113
ATOM    113  C   UNL     1     144.332 164.737 184.449  0.00  0.00    -0.058 C 
ATOM    114  H   UNL     1     145.145 164.010 184.534  0.00  0.00    +0.023 HD
ATOM    115  H   UNL     1     143.380 164.200 184.536  0.00  0.00    +0.023 HD
ATOM    116  H   UNL     1     144.360 165.161 183.439  0.00  0.00    +0.023 HD
ENDBRANCH  38 113
BRANCH   7 117
ATOM    117  C   UNL     1     148.490 172.679 190.659  0.00  0.00    -0.040 C 
ATOM    118  H   UNL     1     148.154 173.184 189.750  0.00  0.00    +0.028 HD
ATOM    119  H   UNL     1     149.498 172.300 190.469  0.00  0.00    +0.028 HD
ATOM    120  H   UNL     1     148.571 173.424 191.459  0.00  0.00    +0.028 HD
ENDBRANCH   7 117
BRANCH   1 121
ATOM    121  C   UNL     1     149.558 165.714 188.939  0.00  0.00    +0.020 C 
ATOM    122  H   UNL     1     149.284 165.384 189.949  0.00  0.00    +0.036 HD
BRANCH 121 123
ATOM    123  C   UNL     1     149.911 164.441 188.176  0.00  0.00    -0.057 C 
ATOM    124  H   UNL     1     150.543 164.644 187.309  0.00  0.00    +0.023 HD
ATOM    125  H   UNL     1     150.423 163.725 188.827  0.00  0.00    +0.023 HD
ATOM    126  H   UNL     1     149.015 163.915 187.844  0.00  0.00    +0.023 HD
ENDBRANCH 121 123
BRANCH 121 127
ATOM    127  C   UNL     1     150.802 166.650 189.100  0.00  0.00    +0.064 C 
ATOM    128  H   UNL     1     150.980 167.108 188.119  0.00  0.00    +0.060 HD
BRANCH 127 129
ATOM    129  C   UNL     1     152.129 165.997 189.613  0.00  0.00    -0.017 C 
ATOM    130  H   UNL     1     152.222 165.000 189.176  0.00  0.00    +0.032 HD
BRANCH 129 131
ATOM    131  C   UNL     1     153.320 166.815 189.085  0.00  0.00    -0.060 C 
ATOM    132  H   UNL     1     154.259 166.498 189.552  0.00  0.00    +0.023 HD
ATOM    133  H   UNL     1     153.184 167.883 189.294  0.00  0.00    +0.023 HD
ATOM    134  H   UNL     1     153.425 166.714 188.001  0.00  0.00    +0.023 HD
ENDBRANCH 129 131
BRANCH 129 135
ATOM    135  C   UNL     1     152.218 165.882 191.153  0.00  0.00    -0.046 C 
ATOM    136  H   UNL     1     151.876 166.808 191.624  0.00  0.00    +0.027 HD
ATOM    137  H   UNL     1     153.271 165.771 191.449  0.00  0.00    +0.027 HD
BRANCH 135 138
ATOM    138  C   UNL     1     151.442 164.717 191.791  0.00  0.00    -0.026 C 
ATOM    139  H   UNL     1     152.195 164.046 192.230  0.00  0.00    +0.029 HD
ATOM    140  H   UNL     1     150.930 164.135 191.016  0.00  0.00    +0.029 HD
BRANCH 138 143
ATOM    141  C   UNL     1     148.994 166.969 193.479  0.00  0.00    +0.059 C 
ATOM    142  O   UNL     1     149.731 166.276 192.464  0.00  0.00    -0.373 OA
ATOM    143  C   UNL     1     150.446 165.115 192.892  0.00  0.00    +0.061 C 
ATOM    144  C   UNL     1     151.185 165.379 194.207  0.00  0.00    -0.000 C 
ATOM    145  C   UNL     1     150.216 165.796 195.320  0.00  0.00    +0.063 C 
ATOM    146  C   UNL     1     148.842 166.168 194.766  0.00  0.00    -0.000 C 
ATOM    147  H   UNL     1     149.541 167.896 193.689  0.00  0.00    +0.059 HD
ATOM    148  H   UNL     1     149.731 164.297 193.031  0.00  0.00    +0.060 HD
ATOM    149  H   UNL     1     151.772 164.499 194.489  0.00  0.00    +0.032 HD
ATOM    150  H   UNL     1     151.887 166.208 194.050  0.00  0.00    +0.032 HD
ATOM    151  H   UNL     1     150.626 166.666 195.852  0.00  0.00    +0.060 HD
ATOM    152  H   UNL     1     148.282 166.735 195.520  0.00  0.00    +0.032 HD
ATOM    153  H   UNL     1     148.257 165.261 194.579  0.00  0.00    +0.032 HD
BRANCH 141 154
ATOM    154  C   UNL     1     147.636 167.338 192.898  0.00  0.00    -0.039 C 
ATOM    155  H   UNL     1     146.862 167.347 193.672  0.00  0.00    +0.025 HD
ATOM    156  H   UNL     1     147.672 168.326 192.429  0.00  0.00    +0.025 HD
ATOM    157  H   UNL     1     147.339 166.628 192.119  0.00  0.00    +0.025 HD
ENDBRANCH 141 154
BRANCH 145 158
ATOM    158  O   UNL     1     150.023 164.730 196.258  0.00  0.00    -0.380 OA
BRANCH 158 159
ATOM    159  C   UNL     1     151.205 163.981 196.510  0.00  0.00    +0.037 C 
ATOM    160  H   UNL     1     152.066 164.619 196.284  0.00  0.00    +0.052 HD
ATOM    161  H   UNL     1     151.268 163.674 197.557  0.00  0.00    +0.052 HD
ATOM    162  H   UNL     1     151.242 163.103 195.858  0.00  0.00    +0.052 HD
ENDBRANCH 158 159
ENDBRANCH 145 158
ENDBRANCH 138 143
ENDBRANCH 135 138
ENDBRANCH 129 135
ENDBRANCH 127 129
BRANCH 127 163
ATOM    163  O   UNL     1     150.419 167.734 189.957  0.00  0.00    -0.391 OA
ATOM    164  H   UNL     1     149.895 167.354 190.684  0.00  0.00    +0.210 HD
ENDBRANCH 127 163
ENDBRANCH 121 127
ENDBRANCH   1 121
BRANCH  41 165
ATOM    165  O   UNL     1     147.735 165.829 184.658  0.00  0.00    -0.391 OA
ATOM    166  H   UNL     1     146.838 166.189 184.552  0.00  0.00    +0.210 HD
ENDBRANCH  41 165
BRANCH  39 167
ATOM    167  O   UNL     1     144.541 164.428 187.463  0.00  0.00    -0.391 OA
ATOM    168  H   UNL     1     145.173 163.857 187.934  0.00  0.00    +0.210 HD
ENDBRANCH  39 167
BRANCH  31 169
ATOM    169  O   UNL     1     144.725 174.788 184.728  0.00  0.00    -0.391 OA
ATOM    170  H   UNL     1     144.318 174.713 183.845  0.00  0.00    +0.210 HD
ENDBRANCH  31 169
BRANCH  22 171
ATOM    171  C   UNL     1     139.675 175.152 193.869  0.00  0.00    +0.020 C 
ATOM    172  H   UNL     1     138.819 174.834 194.478  0.00  0.00    +0.036 HD
BRANCH 171 173
ATOM    173  C   UNL     1     140.502 173.904 193.494  0.00  0.00    -0.057 C 
ATOM    174  H   UNL     1     139.868 173.099 193.109  0.00  0.00    +0.023 HD
ATOM    175  H   UNL     1     141.251 174.130 192.728  0.00  0.00    +0.023 HD
ATOM    176  H   UNL     1     141.014 173.471 194.352  0.00  0.00    +0.023 HD
ENDBRANCH 171 173
BRANCH 171 177
ATOM    177  C   UNL     1     140.493 176.180 194.720  0.00  0.00    +0.064 C 
ATOM    178  H   UNL     1     141.515 175.797 194.839  0.00  0.00    +0.060 HD
BRANCH 177 179
ATOM    179  O   UNL     1     140.577 177.401 193.986  0.00  0.00    -0.391 OA
ATOM    180  H   UNL     1     139.675 177.767 193.875  0.00  0.00    +0.210 HD
ENDBRANCH 177 179
BRANCH 177 181
ATOM    181  C   UNL     1     139.949 176.569 196.132  0.00  0.00    -0.017 C 
ATOM    182  H   UNL     1     140.528 176.013 196.883  0.00  0.00    +0.032 HD
BRANCH 181 183
ATOM    183  C   UNL     1     140.071 178.054 196.469  0.00  0.00    -0.060 C 
ATOM    184  H   UNL     1     139.091 178.536 196.429  0.00  0.00    +0.023 HD
ATOM    185  H   UNL     1     140.671 178.601 195.735  0.00  0.00    +0.023 HD
ATOM    186  H   UNL     1     140.521 178.207 197.454  0.00  0.00    +0.023 HD
ENDBRANCH 181 183
BRANCH 181 187
ATOM    187  C   UNL     1     138.476 176.076 196.263  0.00  0.00    -0.046 C 
ATOM    188  H   UNL     1     138.433 175.011 196.003  0.00  0.00    +0.027 HD
ATOM    189  H   UNL     1     137.853 176.603 195.527  0.00  0.00    +0.027 HD
BRANCH 187 190
ATOM    190  C   UNL     1     137.856 176.255 197.656  0.00  0.00    -0.026 C 
ATOM    191  H   UNL     1     138.644 176.456 198.391  0.00  0.00    +0.029 HD
ATOM    192  H   UNL     1     137.189 177.127 197.628  0.00  0.00    +0.029 HD
BRANCH 190 193
ATOM    193  C   UNL     1     137.037 175.037 198.110  0.00  0.00    +0.061 C 
ATOM    194  O   UNL     1     136.026 174.778 197.130  0.00  0.00    -0.373 OA
ATOM    195  C   UNL     1     135.199 173.648 197.422  0.00  0.00    +0.059 C 
ATOM    196  C   UNL     1     134.516 173.799 198.785  0.00  0.00    -0.000 C 
ATOM    197  C   UNL     1     135.487 174.167 199.908  0.00  0.00    +0.063 C 
ATOM    198  C   UNL     1     136.388 175.320 199.467  0.00  0.00    -0.000 C 
ATOM    199  H   UNL     1     137.714 174.178 198.179  0.00  0.00    +0.060 HD
ATOM    200  H   UNL     1     134.407 173.660 196.661  0.00  0.00    +0.059 HD
ATOM    201  H   UNL     1     133.950 172.893 199.020  0.00  0.00    +0.032 HD
ATOM    202  H   UNL     1     133.790 174.620 198.703  0.00  0.00    +0.032 HD
ATOM    203  H   UNL     1     134.924 174.490 200.793  0.00  0.00    +0.060 HD
ATOM    204  H   UNL     1     137.165 175.500 200.220  0.00  0.00    +0.032 HD
ATOM    205  H   UNL     1     135.772 176.226 199.395  0.00  0.00    +0.032 HD
BRANCH 195 206
ATOM    206  C   UNL     1     135.946 172.329 197.236  0.00  0.00    -0.039 C 
ATOM    207  H   UNL     1     135.390 171.674 196.555  0.00  0.00    +0.025 HD
ATOM    208  H   UNL     1     136.069 171.813 198.192  0.00  0.00    +0.025 HD
ATOM    209  H   UNL     1     136.937 172.458 196.793  0.00  0.00    +0.025 HD
ENDBRANCH 195 206
BRANCH 197 210
ATOM    210  O   UNL     1     136.324 173.065 200.272  0.00  0.00    -0.380 OA
BRANCH 210 211
ATOM    211  C   UNL     1     136.834 173.153 201.596  0.00  0.00    +0.037 C 
ATOM    212  H   UNL     1     136.942 174.210 201.850  0.00  0.00    +0.052 HD
ATOM    213  H   UNL     1     136.137 172.695 202.303  0.00  0.00    +0.052 HD
ATOM    214  H   UNL     1     137.815 172.677 201.676  0.00  0.00    +0.052 HD
ENDBRANCH 210 211
ENDBRANCH 197 210
ENDBRANCH 190 193
ENDBRANCH 187 190
ENDBRANCH 181 187
ENDBRANCH 177 181
ENDBRANCH 171 177
ENDBRANCH  22 171
BRANCH  20 215
ATOM    215  O   UNL     1     137.694 174.889 189.651  0.00  0.00    -0.391 OA
ATOM    216  H   UNL     1     136.857 174.643 189.222  0.00  0.00    +0.210 HD
ENDBRANCH  20 215
BRANCH  18 217
ATOM    217  O   UNL     1     138.514 171.294 191.372  0.00  0.00    -0.391 OA
ATOM    218  H   UNL     1     138.981 170.508 191.033  0.00  0.00    +0.210 HD
ENDBRANCH  18 217
BRANCH  10 219
ATOM    219  O   UNL     1     144.161 174.665 192.297  0.00  0.00    -0.391 OA
ATOM    220  H   UNL     1     143.288 174.499 191.901  0.00  0.00    +0.210 HD
ENDBRANCH  10 219
BRANCH  37 221
ATOM    221  O   UNL     1     143.879 167.499 183.824  0.00  0.00    -0.379 OA
BRANCH 221 222
ATOM    222  C   UNL     1     144.513 167.666 182.563  0.00  0.00    +0.037 C 
ATOM    223  H   UNL     1     144.855 168.702 182.488  0.00  0.00    +0.052 HD
ATOM    224  H   UNL     1     145.386 167.012 182.491  0.00  0.00    +0.052 HD
ATOM    225  H   UNL     1     143.825 167.465 181.736  0.00  0.00    +0.052 HD
ENDBRANCH 221 222
ENDBRANCH  37 221
BRANCH  16 226
ATOM    226  O   UNL     1     139.511 170.617 187.307  0.00  0.00    -0.379 OA
BRANCH 226 227
ATOM    227  C   UNL     1     139.624 169.232 186.998  0.00  0.00    +0.037 C 
ATOM    228  H   UNL     1     139.011 168.670 187.707  0.00  0.00    +0.052 HD
ATOM    229  H   UNL     1     139.258 169.032 185.987  0.00  0.00    +0.052 HD
ATOM    230  H   UNL     1     140.662 168.898 187.093  0.00  0.00    +0.052 HD
ENDBRANCH 226 227
ENDBRANCH  16 226
TORSDOF 40
ENDMDL
MODEL 5
REMARK VINA RESULT:      -5.9      6.052     15.916
REMARK  Name = Swinholide A_conf3
REMARK  40 active torsions:
REMARK  status: ('A' for Active; 'I' for Inactive)
REMARK    1  A    between atoms: C_1  and  C_2
REMARK    2  A    between atoms: C_4  and  C_10
REMARK    3  A    between atoms: C_6  and  O_8
REMARK    4  A    between atoms: O_8  and  C_9
REMARK    5  A    between atoms: C_10  and  C_11
REMARK    6  A    between atoms: C_11  and  C_12
REMARK    7  A    between atoms: C_12  and  C_13
REMARK    8  A    between atoms: C_12  and  C_98
REMARK    9  A    between atoms: C_13  and  O_14
REMARK   10  A    between atoms: C_13  and  C_15
REMARK   11  A    between atoms: C_15  and  C_16
REMARK   12  A    between atoms: C_15  and  C_97
REMARK   13  A    between atoms: C_22  and  C_96
REMARK   14  A    between atoms: C_25  and  O_95
REMARK   15  A    between atoms: C_31  and  O_90
REMARK   16  A    between atoms: C_32  and  C_89
REMARK   17  A    between atoms: C_33  and  O_88
REMARK   18  A    between atoms: C_35  and  O_87
REMARK   19  A    between atoms: C_36  and  C_86
REMARK   20  A    between atoms: C_37  and  C_69
REMARK   21  A    between atoms: C_43  and  C_68
REMARK   22  A    between atoms: C_46  and  O_67
REMARK   23  A    between atoms: C_52  and  O_62
REMARK   24  A    between atoms: C_53  and  C_61
REMARK   25  A    between atoms: C_54  and  O_60
REMARK   26  A    between atoms: C_56  and  O_59
REMARK   27  A    between atoms: C_57  and  C_58
REMARK   28  A    between atoms: O_62  and  C_63
REMARK   29  A    between atoms: C_69  and  C_70
REMARK   30  A    between atoms: C_69  and  C_85
REMARK   31  A    between atoms: C_70  and  O_71
REMARK   32  A    between atoms: C_70  and  C_72
REMARK   33  A    between atoms: C_72  and  C_73
REMARK   34  A    between atoms: C_72  and  C_84
REMARK   35  A    between atoms: C_73  and  C_74
REMARK   36  A    between atoms: C_74  and  C_75
REMARK   37  A    between atoms: C_77  and  C_83
REMARK   38  A    between atoms: C_79  and  O_81
REMARK   39  A    between atoms: O_81  and  C_82
REMARK   40  A    between atoms: O_90  and  C_91
REMARK                            x       y       z     vdW  Elec       q    Type
REMARK                         _______ _______ _______ _____ _____    ______ ____
ROOT
ATOM      1  C   UNL     1     149.250 166.297 190.012  0.00  0.00    +0.113 C 
ATOM      2  O   UNL     1     148.998 167.684 190.357  0.00  0.00    -0.458 OA
ATOM      3  C   UNL     1     147.686 167.996 190.530  0.00  0.00    +0.332 C 
ATOM      4  O   UNL     1     146.753 167.205 190.525  0.00  0.00    -0.246 OA
ATOM      5  C   UNL     1     147.431 169.429 190.704  0.00  0.00    +0.023 C 
ATOM      6  C   UNL     1     148.293 170.350 191.159  0.00  0.00    -0.052 C 
ATOM      7  C   UNL     1     147.875 171.727 191.408  0.00  0.00    -0.054 C 
ATOM      8  C   UNL     1     146.714 171.974 192.048  0.00  0.00    -0.079 C 
ATOM      9  C   UNL     1     146.064 173.295 192.329  0.00  0.00    -0.008 C 
ATOM     10  C   UNL     1     145.317 173.971 191.157  0.00  0.00    +0.061 C 
ATOM     11  C   UNL     1     144.859 173.085 189.992  0.00  0.00    +0.003 C 
ATOM     12  C   UNL     1     143.568 172.260 190.128  0.00  0.00    +0.080 C 
ATOM     13  O   UNL     1     143.481 171.556 188.871  0.00  0.00    -0.369 OA
ATOM     14  C   UNL     1     142.577 170.437 188.835  0.00  0.00    +0.065 C 
ATOM     15  C   UNL     1     141.124 170.933 188.937  0.00  0.00    +0.000 C 
ATOM     16  C   UNL     1     140.039 169.883 188.625  0.00  0.00    +0.066 C 
ATOM     17  C   UNL     1     138.639 170.561 188.575  0.00  0.00    +0.009 C 
ATOM     18  C   UNL     1     137.980 170.816 189.962  0.00  0.00    +0.063 C 
ATOM     19  C   UNL     1     137.202 172.152 190.036  0.00  0.00    -0.000 C 
ATOM     20  C   UNL     1     138.125 173.383 189.875  0.00  0.00    +0.064 C 
ATOM     21  C   UNL     1     137.824 174.514 190.895  0.00  0.00    +0.020 C 
ATOM     22  C   UNL     1     139.074 175.391 191.265  0.00  0.00    +0.113 C 
ATOM     23  O   UNL     1     140.166 175.179 190.350  0.00  0.00    -0.458 OA
ATOM     24  C   UNL     1     140.176 175.929 189.221  0.00  0.00    +0.332 C 
ATOM     25  O   UNL     1     139.493 176.913 188.991  0.00  0.00    -0.246 OA
ATOM     26  C   UNL     1     141.155 175.326 188.294  0.00  0.00    +0.023 C 
ATOM     27  C   UNL     1     141.325 175.841 187.068  0.00  0.00    -0.052 C 
ATOM     28  C   UNL     1     142.227 175.304 186.057  0.00  0.00    -0.054 C 
ATOM     29  C   UNL     1     142.310 173.979 185.820  0.00  0.00    -0.079 C 
ATOM     30  C   UNL     1     143.146 173.295 184.770  0.00  0.00    -0.008 C 
ATOM     31  C   UNL     1     144.533 172.889 185.305  0.00  0.00    +0.061 C 
ATOM     32  C   UNL     1     144.640 171.375 185.549  0.00  0.00    +0.003 C 
ATOM     33  C   UNL     1     145.891 170.979 186.353  0.00  0.00    +0.080 C 
ATOM     34  O   UNL     1     145.710 169.677 186.948  0.00  0.00    -0.369 OA
ATOM     35  C   UNL     1     146.043 168.568 186.089  0.00  0.00    +0.065 C 
ATOM     36  C   UNL     1     145.696 167.286 186.875  0.00  0.00    +0.000 C 
ATOM     37  C   UNL     1     146.040 165.964 186.157  0.00  0.00    +0.066 C 
ATOM     38  C   UNL     1     145.712 164.714 187.028  0.00  0.00    +0.009 C 
ATOM     39  C   UNL     1     146.499 164.588 188.362  0.00  0.00    +0.063 C 
ATOM     40  C   UNL     1     147.901 163.942 188.387  0.00  0.00    -0.000 C 
ATOM     41  C   UNL     1     149.110 164.754 187.900  0.00  0.00    +0.064 C 
ATOM     42  C   UNL     1     149.242 166.190 188.455  0.00  0.00    +0.020 C 
ATOM     43  C   UNL     1     147.537 168.641 185.741  0.00  0.00    -0.008 C 
ATOM     44  C   UNL     1     147.934 170.001 185.271  0.00  0.00    -0.083 C 
ATOM     45  C   UNL     1     147.174 171.063 185.560  0.00  0.00    -0.059 C 
ATOM     46  C   UNL     1     143.003 169.396 189.880  0.00  0.00    -0.008 C 
ATOM     47  C   UNL     1     143.256 170.019 191.215  0.00  0.00    -0.083 C 
ATOM     48  C   UNL     1     143.502 171.333 191.312  0.00  0.00    -0.059 C 
ATOM     49  H   UNL     1     148.404 165.700 190.369  0.00  0.00    +0.074 HD
ATOM     50  H   UNL     1     146.398 169.690 190.489  0.00  0.00    +0.069 HD
ATOM     51  H   UNL     1     149.330 170.099 191.366  0.00  0.00    +0.062 HD
ATOM     52  H   UNL     1     146.133 171.125 192.410  0.00  0.00    +0.058 HD
ATOM     53  H   UNL     1     146.809 173.998 192.725  0.00  0.00    +0.033 HD
ATOM     54  H   UNL     1     145.370 173.152 193.168  0.00  0.00    +0.033 HD
ATOM     55  H   UNL     1     146.009 174.710 190.731  0.00  0.00    +0.060 HD
ATOM     56  H   UNL     1     145.678 172.441 189.649  0.00  0.00    +0.032 HD
ATOM     57  H   UNL     1     144.687 173.755 189.134  0.00  0.00    +0.032 HD
ATOM     58  H   UNL     1     142.719 172.949 190.182  0.00  0.00    +0.064 HD
ATOM     59  H   UNL     1     142.714 169.986 187.847  0.00  0.00    +0.060 HD
ATOM     60  H   UNL     1     141.027 171.765 188.227  0.00  0.00    +0.032 HD
ATOM     61  H   UNL     1     140.952 171.372 189.920  0.00  0.00    +0.032 HD
ATOM     62  H   UNL     1     140.043 169.088 189.381  0.00  0.00    +0.060 HD
ATOM     63  H   UNL     1     138.774 171.517 188.056  0.00  0.00    +0.035 HD
ATOM     64  H   UNL     1     137.267 170.005 190.159  0.00  0.00    +0.060 HD
ATOM     65  H   UNL     1     136.720 172.182 191.020  0.00  0.00    +0.032 HD
ATOM     66  H   UNL     1     136.409 172.159 189.279  0.00  0.00    +0.032 HD
ATOM     67  H   UNL     1     139.154 173.052 190.005  0.00  0.00    +0.060 HD
ATOM     68  H   UNL     1     137.470 174.046 191.820  0.00  0.00    +0.036 HD
ATOM     69  H   UNL     1     138.801 176.454 191.210  0.00  0.00    +0.074 HD
ATOM     70  H   UNL     1     141.680 174.443 188.635  0.00  0.00    +0.069 HD
ATOM     71  H   UNL     1     140.763 176.730 186.778  0.00  0.00    +0.062 HD
ATOM     72  H   UNL     1     141.706 173.292 186.415  0.00  0.00    +0.058 HD
ATOM     73  H   UNL     1     142.593 172.414 184.418  0.00  0.00    +0.033 HD
ATOM     74  H   UNL     1     143.237 173.936 183.886  0.00  0.00    +0.033 HD
ATOM     75  H   UNL     1     144.759 173.425 186.235  0.00  0.00    +0.060 HD
ATOM     76  H   UNL     1     143.753 171.031 186.090  0.00  0.00    +0.032 HD
ATOM     77  H   UNL     1     144.638 170.843 184.588  0.00  0.00    +0.032 HD
ATOM     78  H   UNL     1     145.986 171.662 187.205  0.00  0.00    +0.064 HD
ATOM     79  H   UNL     1     145.426 168.622 185.183  0.00  0.00    +0.060 HD
ATOM     80  H   UNL     1     146.188 167.347 187.849  0.00  0.00    +0.032 HD
ATOM     81  H   UNL     1     144.619 167.313 187.092  0.00  0.00    +0.032 HD
ATOM     82  H   UNL     1     147.095 165.958 185.882  0.00  0.00    +0.060 HD
ATOM     83  H   UNL     1     144.649 164.814 187.297  0.00  0.00    +0.035 HD
ATOM     84  H   UNL     1     146.540 165.551 188.860  0.00  0.00    +0.060 HD
ATOM     85  H   UNL     1     147.865 162.994 187.835  0.00  0.00    +0.032 HD
ATOM     86  H   UNL     1     148.107 163.638 189.423  0.00  0.00    +0.032 HD
ATOM     87  H   UNL     1     150.012 164.188 188.164  0.00  0.00    +0.060 HD
ATOM     88  H   UNL     1     148.347 166.729 188.127  0.00  0.00    +0.036 HD
ATOM     89  H   UNL     1     147.792 167.909 184.968  0.00  0.00    +0.033 HD
ATOM     90  H   UNL     1     148.140 168.423 186.625  0.00  0.00    +0.033 HD
ATOM     91  H   UNL     1     148.858 170.117 184.712  0.00  0.00    +0.057 HD
ATOM     92  H   UNL     1     147.481 172.045 185.209  0.00  0.00    +0.059 HD
ATOM     93  H   UNL     1     143.938 168.920 189.557  0.00  0.00    +0.033 HD
ATOM     94  H   UNL     1     142.254 168.605 189.969  0.00  0.00    +0.033 HD
ATOM     95  H   UNL     1     143.216 169.392 192.100  0.00  0.00    +0.057 HD
ATOM     96  H   UNL     1     143.603 171.779 192.295  0.00  0.00    +0.059 HD
ENDROOT
BRANCH  28  97
ATOM     97  C   UNL     1     142.987 176.362 185.303  0.00  0.00    -0.040 C 
ATOM     98  H   UNL     1     143.498 177.074 185.956  0.00  0.00    +0.028 HD
ATOM     99  H   UNL     1     143.741 175.905 184.653  0.00  0.00    +0.028 HD
ATOM    100  H   UNL     1     142.301 176.948 184.679  0.00  0.00    +0.028 HD
ENDBRANCH  28  97
BRANCH  21 101
ATOM    101  C   UNL     1     136.665 175.418 190.447  0.00  0.00    -0.057 C 
ATOM    102  H   UNL     1     136.672 175.585 189.366  0.00  0.00    +0.023 HD
ATOM    103  H   UNL     1     136.731 176.397 190.933  0.00  0.00    +0.023 HD
ATOM    104  H   UNL     1     135.699 174.981 190.722  0.00  0.00    +0.023 HD
ENDBRANCH  21 101
BRANCH  42 105
ATOM    105  C   UNL     1     150.379 166.958 187.762  0.00  0.00    -0.057 C 
ATOM    106  H   UNL     1     150.230 168.039 187.865  0.00  0.00    +0.023 HD
ATOM    107  H   UNL     1     151.356 166.725 188.200  0.00  0.00    +0.023 HD
ATOM    108  H   UNL     1     150.410 166.764 186.688  0.00  0.00    +0.023 HD
ENDBRANCH  42 105
BRANCH  17 109
ATOM    109  C   UNL     1     137.637 169.795 187.693  0.00  0.00    -0.058 C 
ATOM    110  H   UNL     1     137.844 169.949 186.631  0.00  0.00    +0.023 HD
ATOM    111  H   UNL     1     136.607 170.107 187.893  0.00  0.00    +0.023 HD
ATOM    112  H   UNL     1     137.684 168.718 187.892  0.00  0.00    +0.023 HD
ENDBRANCH  17 109
BRANCH  38 113
ATOM    113  C   UNL     1     145.772 163.407 186.220  0.00  0.00    -0.058 C 
ATOM    114  H   UNL     1     145.681 162.530 186.868  0.00  0.00    +0.023 HD
ATOM    115  H   UNL     1     144.970 163.367 185.474  0.00  0.00    +0.023 HD
ATOM    116  H   UNL     1     146.716 163.327 185.671  0.00  0.00    +0.023 HD
ENDBRANCH  38 113
BRANCH   7 117
ATOM    117  C   UNL     1     148.803 172.786 190.889  0.00  0.00    -0.040 C 
ATOM    118  H   UNL     1     148.541 173.757 191.316  0.00  0.00    +0.028 HD
ATOM    119  H   UNL     1     148.761 172.885 189.801  0.00  0.00    +0.028 HD
ATOM    120  H   UNL     1     149.842 172.560 191.154  0.00  0.00    +0.028 HD
ENDBRANCH   7 117
BRANCH   1 121
ATOM    121  C   UNL     1     150.459 165.725 190.813  0.00  0.00    +0.020 C 
ATOM    122  H   UNL     1     151.228 165.477 190.070  0.00  0.00    +0.036 HD
BRANCH 121 123
ATOM    123  C   UNL     1     151.131 166.686 191.789  0.00  0.00    -0.057 C 
ATOM    124  H   UNL     1     150.596 166.747 192.739  0.00  0.00    +0.023 HD
ATOM    125  H   UNL     1     152.165 166.384 191.984  0.00  0.00    +0.023 HD
ATOM    126  H   UNL     1     151.213 167.688 191.366  0.00  0.00    +0.023 HD
ENDBRANCH 121 123
BRANCH 121 127
ATOM    127  C   UNL     1     150.067 164.380 191.511  0.00  0.00    +0.064 C 
ATOM    128  H   UNL     1     150.258 164.515 192.582  0.00  0.00    +0.060 HD
BRANCH 127 129
ATOM    129  C   UNL     1     150.786 163.080 191.018  0.00  0.00    -0.017 C 
ATOM    130  H   UNL     1     151.417 162.700 191.824  0.00  0.00    +0.032 HD
BRANCH 129 131
ATOM    131  C   UNL     1     149.726 161.999 190.749  0.00  0.00    -0.060 C 
ATOM    132  H   UNL     1     149.576 161.847 189.674  0.00  0.00    +0.023 HD
ATOM    133  H   UNL     1     148.761 162.279 191.187  0.00  0.00    +0.023 HD
ATOM    134  H   UNL     1     150.011 161.040 191.193  0.00  0.00    +0.023 HD
ENDBRANCH 129 131
BRANCH 129 135
ATOM    135  C   UNL     1     151.654 163.283 189.753  0.00  0.00    -0.046 C 
ATOM    136  H   UNL     1     151.509 164.289 189.350  0.00  0.00    +0.027 HD
ATOM    137  H   UNL     1     151.316 162.597 188.966  0.00  0.00    +0.027 HD
BRANCH 135 138
ATOM    138  C   UNL     1     153.167 163.063 189.928  0.00  0.00    -0.026 C 
ATOM    139  H   UNL     1     153.381 162.057 189.540  0.00  0.00    +0.029 HD
ATOM    140  H   UNL     1     153.425 163.040 190.993  0.00  0.00    +0.029 HD
BRANCH 138 143
ATOM    141  C   UNL     1     156.413 164.673 189.040  0.00  0.00    +0.059 C 
ATOM    142  O   UNL     1     155.431 163.687 189.382  0.00  0.00    -0.373 OA
ATOM    143  C   UNL     1     154.067 164.069 189.193  0.00  0.00    +0.061 C 
ATOM    144  C   UNL     1     153.817 165.486 189.716  0.00  0.00    -0.000 C 
ATOM    145  C   UNL     1     154.715 166.511 189.011  0.00  0.00    +0.063 C 
ATOM    146  C   UNL     1     155.845 165.835 188.235  0.00  0.00    -0.000 C 
ATOM    147  H   UNL     1     156.824 165.050 189.985  0.00  0.00    +0.059 HD
ATOM    148  H   UNL     1     153.839 164.027 188.122  0.00  0.00    +0.060 HD
ATOM    149  H   UNL     1     152.756 165.740 189.615  0.00  0.00    +0.032 HD
ATOM    150  H   UNL     1     154.062 165.510 190.786  0.00  0.00    +0.032 HD
ATOM    151  H   UNL     1     155.159 167.181 189.761  0.00  0.00    +0.060 HD
ATOM    152  H   UNL     1     156.623 166.572 188.002  0.00  0.00    +0.032 HD
ATOM    153  H   UNL     1     155.472 165.478 187.269  0.00  0.00    +0.032 HD
BRANCH 141 154
ATOM    154  C   UNL     1     157.530 163.972 188.279  0.00  0.00    -0.039 C 
ATOM    155  H   UNL     1     157.602 162.917 188.562  0.00  0.00    +0.025 HD
ATOM    156  H   UNL     1     157.359 164.033 187.200  0.00  0.00    +0.025 HD
ATOM    157  H   UNL     1     158.496 164.451 188.474  0.00  0.00    +0.025 HD
ENDBRANCH 141 154
BRANCH 145 158
ATOM    158  O   UNL     1     153.965 167.294 188.075  0.00  0.00    -0.380 OA
BRANCH 158 159
ATOM    159  C   UNL     1     154.354 167.081 186.724  0.00  0.00    +0.037 C 
ATOM    160  H   UNL     1     153.535 167.412 186.078  0.00  0.00    +0.052 HD
ATOM    161  H   UNL     1     155.249 167.655 186.471  0.00  0.00    +0.052 HD
ATOM    162  H   UNL     1     154.528 166.015 186.545  0.00  0.00    +0.052 HD
ENDBRANCH 158 159
ENDBRANCH 145 158
ENDBRANCH 138 143
ENDBRANCH 135 138
ENDBRANCH 129 135
ENDBRANCH 127 129
BRANCH 127 163
ATOM    163  O   UNL     1     148.645 164.233 191.398  0.00  0.00    -0.391 OA
ATOM    164  H   UNL     1     148.334 163.805 192.215  0.00  0.00    +0.210 HD
ENDBRANCH 127 163
ENDBRANCH 121 127
ENDBRANCH   1 121
BRANCH  41 165
ATOM    165  O   UNL     1     149.065 164.791 186.471  0.00  0.00    -0.391 OA
ATOM    166  H   UNL     1     148.859 163.892 186.163  0.00  0.00    +0.210 HD
ENDBRANCH  41 165
BRANCH  39 167
ATOM    167  O   UNL     1     145.700 163.756 189.237  0.00  0.00    -0.391 OA
ATOM    168  H   UNL     1     144.804 163.738 188.860  0.00  0.00    +0.210 HD
ENDBRANCH  39 167
BRANCH  31 169
ATOM    169  O   UNL     1     145.520 173.292 184.349  0.00  0.00    -0.391 OA
ATOM    170  H   UNL     1     145.167 174.072 183.882  0.00  0.00    +0.210 HD
ENDBRANCH  31 169
BRANCH  22 171
ATOM    171  C   UNL     1     139.579 175.156 192.740  0.00  0.00    +0.020 C 
ATOM    172  H   UNL     1     138.707 175.312 193.389  0.00  0.00    +0.036 HD
BRANCH 171 173
ATOM    173  C   UNL     1     140.012 173.678 192.846  0.00  0.00    -0.057 C 
ATOM    174  H   UNL     1     139.243 173.065 193.326  0.00  0.00    +0.023 HD
ATOM    175  H   UNL     1     140.215 173.245 191.862  0.00  0.00    +0.023 HD
ATOM    176  H   UNL     1     140.900 173.549 193.464  0.00  0.00    +0.023 HD
ENDBRANCH 171 173
BRANCH 171 177
ATOM    177  C   UNL     1     140.695 176.144 193.219  0.00  0.00    +0.064 C 
ATOM    178  H   UNL     1     141.628 175.579 193.343  0.00  0.00    +0.060 HD
BRANCH 177 179
ATOM    179  O   UNL     1     140.910 177.107 192.188  0.00  0.00    -0.391 OA
ATOM    180  H   UNL     1     140.213 177.005 191.508  0.00  0.00    +0.210 HD
ENDBRANCH 177 179
BRANCH 177 181
ATOM    181  C   UNL     1     140.444 176.967 194.524  0.00  0.00    -0.017 C 
ATOM    182  H   UNL     1     141.386 177.461 194.798  0.00  0.00    +0.032 HD
BRANCH 181 183
ATOM    183  C   UNL     1     139.379 178.054 194.389  0.00  0.00    -0.060 C 
ATOM    184  H   UNL     1     138.708 177.830 193.556  0.00  0.00    +0.023 HD
ATOM    185  H   UNL     1     139.808 179.028 194.137  0.00  0.00    +0.023 HD
ATOM    186  H   UNL     1     138.802 178.167 195.311  0.00  0.00    +0.023 HD
ENDBRANCH 181 183
BRANCH 181 187
ATOM    187  C   UNL     1     140.109 175.985 195.687  0.00  0.00    -0.046 C 
ATOM    188  H   UNL     1     140.948 175.971 196.394  0.00  0.00    +0.027 HD
ATOM    189  H   UNL     1     140.022 174.966 195.286  0.00  0.00    +0.027 HD
BRANCH 187 190
ATOM    190  C   UNL     1     138.830 176.322 196.469  0.00  0.00    -0.026 C 
ATOM    191  H   UNL     1     139.047 176.346 197.543  0.00  0.00    +0.029 HD
ATOM    192  H   UNL     1     138.497 177.323 196.167  0.00  0.00    +0.029 HD
BRANCH 190 193
ATOM    193  C   UNL     1     137.685 175.332 196.203  0.00  0.00    +0.061 C 
ATOM    194  O   UNL     1     136.756 175.943 195.302  0.00  0.00    -0.373 OA
ATOM    195  C   UNL     1     135.643 175.115 194.953  0.00  0.00    +0.059 C 
ATOM    196  C   UNL     1     134.875 174.664 196.200  0.00  0.00    -0.000 C 
ATOM    197  C   UNL     1     135.779 174.071 197.282  0.00  0.00    +0.063 C 
ATOM    198  C   UNL     1     136.984 174.979 197.518  0.00  0.00    -0.000 C 
ATOM    199  H   UNL     1     138.112 174.434 195.741  0.00  0.00    +0.060 HD
ATOM    200  H   UNL     1     134.968 175.760 194.375  0.00  0.00    +0.059 HD
ATOM    201  H   UNL     1     134.077 173.974 195.916  0.00  0.00    +0.032 HD
ATOM    202  H   UNL     1     134.394 175.553 196.632  0.00  0.00    +0.032 HD
ATOM    203  H   UNL     1     135.223 173.987 198.225  0.00  0.00    +0.060 HD
ATOM    204  H   UNL     1     137.695 174.495 198.198  0.00  0.00    +0.032 HD
ATOM    205  H   UNL     1     136.630 175.899 198.000  0.00  0.00    +0.032 HD
BRANCH 195 206
ATOM    206  C   UNL     1     136.048 173.977 194.019  0.00  0.00    -0.039 C 
ATOM    207  H   UNL     1     137.025 174.190 193.569  0.00  0.00    +0.025 HD
ATOM    208  H   UNL     1     135.316 173.853 193.216  0.00  0.00    +0.025 HD
ATOM    209  H   UNL     1     136.151 173.018 194.533  0.00  0.00    +0.025 HD
ENDBRANCH 195 206
BRANCH 197 210
ATOM    210  O   UNL     1     136.266 172.775 196.919  0.00  0.00    -0.380 OA
BRANCH 210 211
ATOM    211  C   UNL     1     135.247 171.787 196.842  0.00  0.00    +0.037 C 
ATOM    212  H   UNL     1     134.543 171.957 197.660  0.00  0.00    +0.052 HD
ATOM    213  H   UNL     1     134.705 171.872 195.895  0.00  0.00    +0.052 HD
ATOM    214  H   UNL     1     135.661 170.781 196.947  0.00  0.00    +0.052 HD
ENDBRANCH 210 211
ENDBRANCH 197 210
ENDBRANCH 190 193
ENDBRANCH 187 190
ENDBRANCH 181 187
ENDBRANCH 177 181
ENDBRANCH 171 177
ENDBRANCH  22 171
BRANCH  20 215
ATOM    215  O   UNL     1     138.044 173.855 188.529  0.00  0.00    -0.391 OA
ATOM    216  H   UNL     1     137.218 174.353 188.413  0.00  0.00    +0.210 HD
ENDBRANCH  20 215
BRANCH  18 217
ATOM    217  O   UNL     1     138.908 170.779 191.050  0.00  0.00    -0.391 OA
ATOM    218  H   UNL     1     138.594 170.092 191.667  0.00  0.00    +0.210 HD
ENDBRANCH  18 217
BRANCH  10 219
ATOM    219  O   UNL     1     144.219 174.715 191.691  0.00  0.00    -0.391 OA
ATOM    220  H   UNL     1     144.354 174.812 192.650  0.00  0.00    +0.210 HD
ENDBRANCH  10 219
BRANCH  37 221
ATOM    221  O   UNL     1     145.215 165.930 184.977  0.00  0.00    -0.379 OA
BRANCH 221 222
ATOM    222  C   UNL     1     145.959 165.881 183.767  0.00  0.00    +0.037 C 
ATOM    223  H   UNL     1     145.743 166.789 183.197  0.00  0.00    +0.052 HD
ATOM    224  H   UNL     1     147.030 165.860 183.985  0.00  0.00    +0.052 HD
ATOM    225  H   UNL     1     145.684 165.014 183.160  0.00  0.00    +0.052 HD
ENDBRANCH 221 222
ENDBRANCH  37 221
BRANCH  16 226
ATOM    226  O   UNL     1     140.342 169.346 187.325  0.00  0.00    -0.379 OA
BRANCH 226 227
ATOM    227  C   UNL     1     140.558 167.940 187.332  0.00  0.00    +0.037 C 
ATOM    228  H   UNL     1     139.902 167.486 186.584  0.00  0.00    +0.052 HD
ATOM    229  H   UNL     1     141.595 167.709 187.070  0.00  0.00    +0.052 HD
ATOM    230  H   UNL     1     140.316 167.515 188.312  0.00  0.00    +0.052 HD
ENDBRANCH 226 227
ENDBRANCH  16 226
TORSDOF 40
ENDMDL
MODEL 6
REMARK VINA RESULT:      -5.8     13.283     22.504
REMARK  Name = Swinholide A_conf3
REMARK  40 active torsions:
REMARK  status: ('A' for Active; 'I' for Inactive)
REMARK    1  A    between atoms: C_1  and  C_2
REMARK    2  A    between atoms: C_4  and  C_10
REMARK    3  A    between atoms: C_6  and  O_8
REMARK    4  A    between atoms: O_8  and  C_9
REMARK    5  A    between atoms: C_10  and  C_11
REMARK    6  A    between atoms: C_11  and  C_12
REMARK    7  A    between atoms: C_12  and  C_13
REMARK    8  A    between atoms: C_12  and  C_98
REMARK    9  A    between atoms: C_13  and  O_14
REMARK   10  A    between atoms: C_13  and  C_15
REMARK   11  A    between atoms: C_15  and  C_16
REMARK   12  A    between atoms: C_15  and  C_97
REMARK   13  A    between atoms: C_22  and  C_96
REMARK   14  A    between atoms: C_25  and  O_95
REMARK   15  A    between atoms: C_31  and  O_90
REMARK   16  A    between atoms: C_32  and  C_89
REMARK   17  A    between atoms: C_33  and  O_88
REMARK   18  A    between atoms: C_35  and  O_87
REMARK   19  A    between atoms: C_36  and  C_86
REMARK   20  A    between atoms: C_37  and  C_69
REMARK   21  A    between atoms: C_43  and  C_68
REMARK   22  A    between atoms: C_46  and  O_67
REMARK   23  A    between atoms: C_52  and  O_62
REMARK   24  A    between atoms: C_53  and  C_61
REMARK   25  A    between atoms: C_54  and  O_60
REMARK   26  A    between atoms: C_56  and  O_59
REMARK   27  A    between atoms: C_57  and  C_58
REMARK   28  A    between atoms: O_62  and  C_63
REMARK   29  A    between atoms: C_69  and  C_70
REMARK   30  A    between atoms: C_69  and  C_85
REMARK   31  A    between atoms: C_70  and  O_71
REMARK   32  A    between atoms: C_70  and  C_72
REMARK   33  A    between atoms: C_72  and  C_73
REMARK   34  A    between atoms: C_72  and  C_84
REMARK   35  A    between atoms: C_73  and  C_74
REMARK   36  A    between atoms: C_74  and  C_75
REMARK   37  A    between atoms: C_77  and  C_83
REMARK   38  A    between atoms: C_79  and  O_81
REMARK   39  A    between atoms: O_81  and  C_82
REMARK   40  A    between atoms: O_90  and  C_91
REMARK                            x       y       z     vdW  Elec       q    Type
REMARK                         _______ _______ _______ _____ _____    ______ ____
ROOT
ATOM      1  C   UNL     1     140.955 175.255 190.985  0.00  0.00    +0.113 C 
ATOM      2  O   UNL     1     140.615 176.211 192.024  0.00  0.00    -0.458 OA
ATOM      3  C   UNL     1     139.947 175.681 193.084  0.00  0.00    +0.332 C 
ATOM      4  O   UNL     1     139.719 174.493 193.269  0.00  0.00    -0.246 OA
ATOM      5  C   UNL     1     139.457 176.679 194.039  0.00  0.00    +0.023 C 
ATOM      6  C   UNL     1     139.951 177.909 194.243  0.00  0.00    -0.052 C 
ATOM      7  C   UNL     1     139.452 178.762 195.317  0.00  0.00    -0.054 C 
ATOM      8  C   UNL     1     139.249 178.248 196.547  0.00  0.00    -0.079 C 
ATOM      9  C   UNL     1     138.671 178.918 197.758  0.00  0.00    -0.008 C 
ATOM     10  C   UNL     1     137.134 179.078 197.802  0.00  0.00    +0.061 C 
ATOM     11  C   UNL     1     136.290 178.147 196.922  0.00  0.00    +0.003 C 
ATOM     12  C   UNL     1     135.994 176.715 197.398  0.00  0.00    +0.080 C 
ATOM     13  O   UNL     1     135.214 176.153 196.322  0.00  0.00    -0.369 OA
ATOM     14  C   UNL     1     135.090 174.720 196.312  0.00  0.00    +0.065 C 
ATOM     15  C   UNL     1     134.229 174.260 197.501  0.00  0.00    +0.000 C 
ATOM     16  C   UNL     1     133.772 172.789 197.461  0.00  0.00    +0.066 C 
ATOM     17  C   UNL     1     132.759 172.513 198.612  0.00  0.00    +0.009 C 
ATOM     18  C   UNL     1     133.399 172.267 200.009  0.00  0.00    +0.063 C 
ATOM     19  C   UNL     1     132.588 172.884 201.173  0.00  0.00    -0.000 C 
ATOM     20  C   UNL     1     132.531 174.427 201.102  0.00  0.00    +0.064 C 
ATOM     21  C   UNL     1     132.775 175.115 202.472  0.00  0.00    +0.020 C 
ATOM     22  C   UNL     1     133.425 176.542 202.363  0.00  0.00    +0.113 C 
ATOM     23  O   UNL     1     133.366 177.056 201.020  0.00  0.00    -0.458 OA
ATOM     24  C   UNL     1     132.239 177.720 200.665  0.00  0.00    +0.332 C 
ATOM     25  O   UNL     1     131.362 178.123 201.411  0.00  0.00    -0.246 OA
ATOM     26  C   UNL     1     132.244 177.853 199.194  0.00  0.00    +0.023 C 
ATOM     27  C   UNL     1     131.206 178.426 198.567  0.00  0.00    -0.052 C 
ATOM     28  C   UNL     1     131.083 178.570 197.122  0.00  0.00    -0.054 C 
ATOM     29  C   UNL     1     131.397 177.561 196.284  0.00  0.00    -0.079 C 
ATOM     30  C   UNL     1     131.259 177.550 194.784  0.00  0.00    -0.008 C 
ATOM     31  C   UNL     1     132.548 178.015 194.079  0.00  0.00    +0.061 C 
ATOM     32  C   UNL     1     133.311 176.845 193.438  0.00  0.00    +0.003 C 
ATOM     33  C   UNL     1     134.733 177.225 192.989  0.00  0.00    +0.080 C 
ATOM     34  O   UNL     1     135.545 176.040 192.846  0.00  0.00    -0.369 OA
ATOM     35  C   UNL     1     135.434 175.381 191.569  0.00  0.00    +0.065 C 
ATOM     36  C   UNL     1     136.299 174.106 191.658  0.00  0.00    +0.000 C 
ATOM     37  C   UNL     1     136.376 173.275 190.359  0.00  0.00    +0.066 C 
ATOM     38  C   UNL     1     137.306 172.032 190.505  0.00  0.00    +0.009 C 
ATOM     39  C   UNL     1     138.801 172.333 190.803  0.00  0.00    +0.063 C 
ATOM     40  C   UNL     1     139.784 172.636 189.652  0.00  0.00    -0.000 C 
ATOM     41  C   UNL     1     139.769 174.026 188.999  0.00  0.00    +0.064 C 
ATOM     42  C   UNL     1     139.778 175.237 189.960  0.00  0.00    +0.020 C 
ATOM     43  C   UNL     1     135.930 176.336 190.473  0.00  0.00    -0.008 C 
ATOM     44  C   UNL     1     135.311 177.689 190.590  0.00  0.00    -0.083 C 
ATOM     45  C   UNL     1     134.769 178.085 191.748  0.00  0.00    -0.059 C 
ATOM     46  C   UNL     1     136.483 174.083 196.207  0.00  0.00    -0.008 C 
ATOM     47  C   UNL     1     137.439 174.673 197.192  0.00  0.00    -0.083 C 
ATOM     48  C   UNL     1     137.196 175.874 197.736  0.00  0.00    -0.059 C 
ATOM     49  H   UNL     1     140.988 174.258 191.439  0.00  0.00    +0.074 HD
ATOM     50  H   UNL     1     138.653 176.291 194.660  0.00  0.00    +0.069 HD
ATOM     51  H   UNL     1     140.747 178.307 193.619  0.00  0.00    +0.062 HD
ATOM     52  H   UNL     1     139.512 177.204 196.721  0.00  0.00    +0.058 HD
ATOM     53  H   UNL     1     139.132 179.906 197.890  0.00  0.00    +0.033 HD
ATOM     54  H   UNL     1     139.004 178.355 198.639  0.00  0.00    +0.033 HD
ATOM     55  H   UNL     1     136.918 180.101 197.468  0.00  0.00    +0.060 HD
ATOM     56  H   UNL     1     136.678 178.126 195.896  0.00  0.00    +0.032 HD
ATOM     57  H   UNL     1     135.304 178.626 196.810  0.00  0.00    +0.032 HD
ATOM     58  H   UNL     1     135.351 176.768 198.282  0.00  0.00    +0.064 HD
ATOM     59  H   UNL     1     134.550 174.483 195.389  0.00  0.00    +0.060 HD
ATOM     60  H   UNL     1     133.342 174.907 197.515  0.00  0.00    +0.032 HD
ATOM     61  H   UNL     1     134.751 174.468 198.436  0.00  0.00    +0.032 HD
ATOM     62  H   UNL     1     134.632 172.114 197.552  0.00  0.00    +0.060 HD
ATOM     63  H   UNL     1     132.101 173.388 198.663  0.00  0.00    +0.035 HD
ATOM     64  H   UNL     1     133.452 171.183 200.177  0.00  0.00    +0.060 HD
ATOM     65  H   UNL     1     133.086 172.578 202.101  0.00  0.00    +0.032 HD
ATOM     66  H   UNL     1     131.578 172.457 201.185  0.00  0.00    +0.032 HD
ATOM     67  H   UNL     1     133.289 174.760 200.396  0.00  0.00    +0.060 HD
ATOM     68  H   UNL     1     133.466 174.487 203.044  0.00  0.00    +0.036 HD
ATOM     69  H   UNL     1     132.874 177.241 203.008  0.00  0.00    +0.074 HD
ATOM     70  H   UNL     1     133.088 177.434 198.663  0.00  0.00    +0.069 HD
ATOM     71  H   UNL     1     130.379 178.825 199.156  0.00  0.00    +0.062 HD
ATOM     72  H   UNL     1     131.773 176.624 196.696  0.00  0.00    +0.058 HD
ATOM     73  H   UNL     1     130.994 176.530 194.477  0.00  0.00    +0.033 HD
ATOM     74  H   UNL     1     130.401 178.162 194.482  0.00  0.00    +0.033 HD
ATOM     75  H   UNL     1     133.205 178.537 194.784  0.00  0.00    +0.060 HD
ATOM     76  H   UNL     1     133.379 176.020 194.153  0.00  0.00    +0.032 HD
ATOM     77  H   UNL     1     132.746 176.459 192.578  0.00  0.00    +0.032 HD
ATOM     78  H   UNL     1     135.212 177.792 193.796  0.00  0.00    +0.064 HD
ATOM     79  H   UNL     1     134.386 175.103 191.402  0.00  0.00    +0.060 HD
ATOM     80  H   UNL     1     137.295 174.399 191.999  0.00  0.00    +0.032 HD
ATOM     81  H   UNL     1     135.887 173.483 192.465  0.00  0.00    +0.032 HD
ATOM     82  H   UNL     1     136.724 173.904 189.540  0.00  0.00    +0.060 HD
ATOM     83  H   UNL     1     136.918 171.475 191.372  0.00  0.00    +0.035 HD
ATOM     84  H   UNL     1     138.880 173.111 191.555  0.00  0.00    +0.060 HD
ATOM     85  H   UNL     1     139.661 171.875 188.870  0.00  0.00    +0.032 HD
ATOM     86  H   UNL     1     140.802 172.464 190.031  0.00  0.00    +0.032 HD
ATOM     87  H   UNL     1     140.646 174.088 188.342  0.00  0.00    +0.060 HD
ATOM     88  H   UNL     1     138.865 175.160 190.559  0.00  0.00    +0.036 HD
ATOM     89  H   UNL     1     135.716 175.931 189.480  0.00  0.00    +0.033 HD
ATOM     90  H   UNL     1     137.010 176.474 190.557  0.00  0.00    +0.033 HD
ATOM     91  H   UNL     1     135.327 178.353 189.731  0.00  0.00    +0.057 HD
ATOM     92  H   UNL     1     134.323 179.074 191.813  0.00  0.00    +0.059 HD
ATOM     93  H   UNL     1     136.890 174.265 195.204  0.00  0.00    +0.033 HD
ATOM     94  H   UNL     1     136.425 173.000 196.339  0.00  0.00    +0.033 HD
ATOM     95  H   UNL     1     138.319 174.102 197.472  0.00  0.00    +0.057 HD
ATOM     96  H   UNL     1     137.860 176.247 198.508  0.00  0.00    +0.059 HD
ENDROOT
BRANCH  28  97
ATOM     97  C   UNL     1     130.538 179.906 196.694  0.00  0.00    -0.040 C 
ATOM     98  H   UNL     1     130.983 180.276 195.767  0.00  0.00    +0.028 HD
ATOM     99  H   UNL     1     129.454 179.850 196.545  0.00  0.00    +0.028 HD
ATOM    100  H   UNL     1     130.743 180.662 197.461  0.00  0.00    +0.028 HD
ENDBRANCH  28  97
BRANCH  21 101
ATOM    101  C   UNL     1     131.505 175.183 203.332  0.00  0.00    -0.057 C 
ATOM    102  H   UNL     1     131.455 176.106 203.917  0.00  0.00    +0.023 HD
ATOM    103  H   UNL     1     131.473 174.345 204.037  0.00  0.00    +0.023 HD
ATOM    104  H   UNL     1     130.606 175.121 202.710  0.00  0.00    +0.023 HD
ENDBRANCH  21 101
BRANCH  42 105
ATOM    105  C   UNL     1     139.580 176.559 189.199  0.00  0.00    -0.057 C 
ATOM    106  H   UNL     1     138.532 176.873 189.246  0.00  0.00    +0.023 HD
ATOM    107  H   UNL     1     140.180 177.370 189.627  0.00  0.00    +0.023 HD
ATOM    108  H   UNL     1     139.814 176.459 188.138  0.00  0.00    +0.023 HD
ENDBRANCH  42 105
BRANCH  17 109
ATOM    109  C   UNL     1     131.806 171.346 198.299  0.00  0.00    -0.058 C 
ATOM    110  H   UNL     1     131.097 171.183 199.115  0.00  0.00    +0.023 HD
ATOM    111  H   UNL     1     132.356 170.414 198.130  0.00  0.00    +0.023 HD
ATOM    112  H   UNL     1     131.231 171.542 197.387  0.00  0.00    +0.023 HD
ENDBRANCH  17 109
BRANCH  38 113
ATOM    113  C   UNL     1     137.158 171.051 189.332  0.00  0.00    -0.058 C 
ATOM    114  H   UNL     1     136.489 171.445 188.561  0.00  0.00    +0.023 HD
ATOM    115  H   UNL     1     138.129 170.839 188.869  0.00  0.00    +0.023 HD
ATOM    116  H   UNL     1     136.756 170.090 189.671  0.00  0.00    +0.023 HD
ENDBRANCH  38 113
BRANCH   7 117
ATOM    117  C   UNL     1     139.178 180.187 194.935  0.00  0.00    -0.040 C 
ATOM    118  H   UNL     1     138.868 180.759 195.813  0.00  0.00    +0.028 HD
ATOM    119  H   UNL     1     138.385 180.277 194.188  0.00  0.00    +0.028 HD
ATOM    120  H   UNL     1     140.073 180.658 194.514  0.00  0.00    +0.028 HD
ENDBRANCH   7 117
BRANCH   1 121
ATOM    121  C   UNL     1     142.412 175.469 190.475  0.00  0.00    +0.020 C 
ATOM    122  H   UNL     1     142.354 175.477 189.380  0.00  0.00    +0.036 HD
BRANCH 121 123
ATOM    123  C   UNL     1     143.069 176.792 190.858  0.00  0.00    -0.057 C 
ATOM    124  H   UNL     1     142.381 177.454 191.386  0.00  0.00    +0.023 HD
ATOM    125  H   UNL     1     143.950 176.623 191.486  0.00  0.00    +0.023 HD
ATOM    126  H   UNL     1     143.455 177.312 189.980  0.00  0.00    +0.023 HD
ENDBRANCH 121 123
BRANCH 121 127
ATOM    127  C   UNL     1     143.312 174.248 190.863  0.00  0.00    +0.064 C 
ATOM    128  H   UNL     1     144.255 174.662 191.243  0.00  0.00    +0.060 HD
BRANCH 127 129
ATOM    129  C   UNL     1     143.623 173.202 189.741  0.00  0.00    -0.017 C 
ATOM    130  H   UNL     1     142.960 172.343 189.867  0.00  0.00    +0.032 HD
BRANCH 129 131
ATOM    131  C   UNL     1     143.278 173.821 188.376  0.00  0.00    -0.060 C 
ATOM    132  H   UNL     1     142.230 174.139 188.337  0.00  0.00    +0.023 HD
ATOM    133  H   UNL     1     143.442 173.101 187.567  0.00  0.00    +0.023 HD
ATOM    134  H   UNL     1     143.908 174.690 188.162  0.00  0.00    +0.023 HD
ENDBRANCH 129 131
BRANCH 129 135
ATOM    135  C   UNL     1     145.089 172.707 189.732  0.00  0.00    -0.046 C 
ATOM    136  H   UNL     1     145.761 173.505 190.059  0.00  0.00    +0.027 HD
ATOM    137  H   UNL     1     145.387 172.473 188.701  0.00  0.00    +0.027 HD
BRANCH 135 138
ATOM    138  C   UNL     1     145.390 171.463 190.585  0.00  0.00    -0.026 C 
ATOM    139  H   UNL     1     145.532 170.631 189.881  0.00  0.00    +0.029 HD
ATOM    140  H   UNL     1     144.515 171.202 191.193  0.00  0.00    +0.029 HD
BRANCH 138 143
ATOM    141  C   UNL     1     147.871 173.231 192.737  0.00  0.00    +0.059 C 
ATOM    142  O   UNL     1     146.638 172.839 192.121  0.00  0.00    -0.373 OA
ATOM    143  C   UNL     1     146.637 171.563 191.478  0.00  0.00    +0.061 C 
ATOM    144  C   UNL     1     147.905 171.368 190.642  0.00  0.00    -0.000 C 
ATOM    145  C   UNL     1     149.168 171.480 191.506  0.00  0.00    +0.063 C 
ATOM    146  C   UNL     1     148.866 172.085 192.876  0.00  0.00    -0.000 C 
ATOM    147  H   UNL     1     148.305 174.015 192.105  0.00  0.00    +0.059 HD
ATOM    148  H   UNL     1     146.581 170.785 192.248  0.00  0.00    +0.060 HD
ATOM    149  H   UNL     1     147.860 170.410 190.113  0.00  0.00    +0.032 HD
ATOM    150  H   UNL     1     147.948 172.162 189.886  0.00  0.00    +0.032 HD
ATOM    151  H   UNL     1     149.901 172.120 190.996  0.00  0.00    +0.060 HD
ATOM    152  H   UNL     1     149.799 172.425 193.342  0.00  0.00    +0.032 HD
ATOM    153  H   UNL     1     148.463 171.315 193.543  0.00  0.00    +0.032 HD
BRANCH 141 154
ATOM    154  C   UNL     1     147.541 173.839 194.094  0.00  0.00    -0.039 C 
ATOM    155  H   UNL     1     148.249 174.632 194.356  0.00  0.00    +0.025 HD
ATOM    156  H   UNL     1     146.531 174.259 194.092  0.00  0.00    +0.025 HD
ATOM    157  H   UNL     1     147.567 173.077 194.880  0.00  0.00    +0.025 HD
ENDBRANCH 141 154
BRANCH 145 158
ATOM    158  O   UNL     1     149.754 170.192 191.729  0.00  0.00    -0.380 OA
BRANCH 158 159
ATOM    159  C   UNL     1     151.155 170.245 191.966  0.00  0.00    +0.037 C 
ATOM    160  H   UNL     1     151.341 169.884 192.983  0.00  0.00    +0.052 HD
ATOM    161  H   UNL     1     151.703 169.609 191.267  0.00  0.00    +0.052 HD
ATOM    162  H   UNL     1     151.511 171.277 191.894  0.00  0.00    +0.052 HD
ENDBRANCH 158 159
ENDBRANCH 145 158
ENDBRANCH 138 143
ENDBRANCH 135 138
ENDBRANCH 129 135
ENDBRANCH 127 129
BRANCH 127 163
ATOM    163  O   UNL     1     142.703 173.603 191.989  0.00  0.00    -0.391 OA
ATOM    164  H   UNL     1     141.823 174.002 192.108  0.00  0.00    +0.210 HD
ENDBRANCH 127 163
ENDBRANCH 121 127
ENDBRANCH   1 121
BRANCH  41 165
ATOM    165  O   UNL     1     138.623 174.095 188.146  0.00  0.00    -0.391 OA
ATOM    166  H   UNL     1     138.775 173.485 187.405  0.00  0.00    +0.210 HD
ENDBRANCH  41 165
BRANCH  39 167
ATOM    167  O   UNL     1     139.342 171.151 191.440  0.00  0.00    -0.391 OA
ATOM    168  H   UNL     1     139.906 171.463 192.169  0.00  0.00    +0.210 HD
ENDBRANCH  39 167
BRANCH  31 169
ATOM    169  O   UNL     1     132.191 178.964 193.069  0.00  0.00    -0.391 OA
ATOM    170  H   UNL     1     132.011 178.463 192.252  0.00  0.00    +0.210 HD
ENDBRANCH  31 169
BRANCH  22 171
ATOM    171  C   UNL     1     134.918 176.581 202.870  0.00  0.00    +0.020 C 
ATOM    172  H   UNL     1     135.214 177.639 202.865  0.00  0.00    +0.036 HD
BRANCH 171 173
ATOM    173  C   UNL     1     134.919 176.079 204.330  0.00  0.00    -0.057 C 
ATOM    174  H   UNL     1     134.138 175.331 204.500  0.00  0.00    +0.023 HD
ATOM    175  H   UNL     1     135.877 175.625 204.601  0.00  0.00    +0.023 HD
ATOM    176  H   UNL     1     134.707 176.874 205.044  0.00  0.00    +0.023 HD
ENDBRANCH 171 173
BRANCH 171 177
ATOM    177  C   UNL     1     135.939 175.809 201.970  0.00  0.00    +0.064 C 
ATOM    178  H   UNL     1     135.384 175.092 201.352  0.00  0.00    +0.060 HD
BRANCH 177 179
ATOM    179  O   UNL     1     136.555 176.748 201.088  0.00  0.00    -0.391 OA
ATOM    180  H   UNL     1     136.688 176.323 200.215  0.00  0.00    +0.210 HD
ENDBRANCH 177 179
BRANCH 177 181
ATOM    181  C   UNL     1     137.113 175.049 202.668  0.00  0.00    -0.017 C 
ATOM    182  H   UNL     1     136.829 174.878 203.715  0.00  0.00    +0.032 HD
BRANCH 181 183
ATOM    183  C   UNL     1     137.437 173.688 202.054  0.00  0.00    -0.060 C 
ATOM    184  H   UNL     1     137.419 173.748 200.962  0.00  0.00    +0.023 HD
ATOM    185  H   UNL     1     136.685 172.931 202.295  0.00  0.00    +0.023 HD
ATOM    186  H   UNL     1     138.410 173.318 202.389  0.00  0.00    +0.023 HD
ENDBRANCH 181 183
BRANCH 181 187
ATOM    187  C   UNL     1     138.369 175.972 202.699  0.00  0.00    -0.046 C 
ATOM    188  H   UNL     1     138.225 176.792 201.984  0.00  0.00    +0.027 HD
ATOM    189  H   UNL     1     139.242 175.404 202.352  0.00  0.00    +0.027 HD
BRANCH 187 190
ATOM    190  C   UNL     1     138.687 176.583 204.071  0.00  0.00    -0.026 C 
ATOM    191  H   UNL     1     137.858 176.398 204.763  0.00  0.00    +0.029 HD
ATOM    192  H   UNL     1     139.580 176.085 204.471  0.00  0.00    +0.029 HD
BRANCH 190 193
ATOM    193  C   UNL     1     138.968 178.093 204.006  0.00  0.00    +0.061 C 
ATOM    194  O   UNL     1     139.572 178.497 205.239  0.00  0.00    -0.373 OA
ATOM    195  C   UNL     1     139.905 179.886 205.304  0.00  0.00    +0.059 C 
ATOM    196  C   UNL     1     138.672 180.763 205.065  0.00  0.00    -0.000 C 
ATOM    197  C   UNL     1     137.885 180.369 203.814  0.00  0.00    +0.063 C 
ATOM    198  C   UNL     1     137.659 178.858 203.789  0.00  0.00    -0.000 C 
ATOM    199  H   UNL     1     139.662 178.274 203.177  0.00  0.00    +0.060 HD
ATOM    200  H   UNL     1     140.229 180.062 206.338  0.00  0.00    +0.059 HD
ATOM    201  H   UNL     1     138.963 181.817 205.044  0.00  0.00    +0.032 HD
ATOM    202  H   UNL     1     138.000 180.632 205.924  0.00  0.00    +0.032 HD
ATOM    203  H   UNL     1     136.904 180.862 203.822  0.00  0.00    +0.060 HD
ATOM    204  H   UNL     1     137.209 178.559 202.835  0.00  0.00    +0.032 HD
ATOM    205  H   UNL     1     136.952 178.605 204.589  0.00  0.00    +0.032 HD
BRANCH 195 206
ATOM    206  C   UNL     1     141.101 180.229 204.419  0.00  0.00    -0.039 C 
ATOM    207  H   UNL     1     140.815 180.176 203.362  0.00  0.00    +0.025 HD
ATOM    208  H   UNL     1     141.925 179.530 204.591  0.00  0.00    +0.025 HD
ATOM    209  H   UNL     1     141.478 181.241 204.583  0.00  0.00    +0.025 HD
ENDBRANCH 195 206
BRANCH 197 210
ATOM    210  O   UNL     1     138.573 180.733 202.613  0.00  0.00    -0.380 OA
BRANCH 210 211
ATOM    211  C   UNL     1     138.572 182.132 202.360  0.00  0.00    +0.037 C 
ATOM    212  H   UNL     1     139.390 182.354 201.671  0.00  0.00    +0.052 HD
ATOM    213  H   UNL     1     137.631 182.433 201.891  0.00  0.00    +0.052 HD
ATOM    214  H   UNL     1     138.732 182.702 203.279  0.00  0.00    +0.052 HD
ENDBRANCH 210 211
ENDBRANCH 197 210
ENDBRANCH 190 193
ENDBRANCH 187 190
ENDBRANCH 181 187
ENDBRANCH 177 181
ENDBRANCH 171 177
ENDBRANCH  22 171
BRANCH  20 215
ATOM    215  O   UNL     1     131.281 174.822 200.532  0.00  0.00    -0.391 OA
ATOM    216  H   UNL     1     131.381 175.695 200.116  0.00  0.00    +0.210 HD
ENDBRANCH  20 215
BRANCH  18 217
ATOM    217  O   UNL     1     134.748 172.733 200.109  0.00  0.00    -0.391 OA
ATOM    218  H   UNL     1     134.880 173.019 201.033  0.00  0.00    +0.210 HD
ENDBRANCH  18 217
BRANCH  10 219
ATOM    219  O   UNL     1     136.713 179.007 199.166  0.00  0.00    -0.391 OA
ATOM    220  H   UNL     1     136.792 179.894 199.556  0.00  0.00    +0.210 HD
ENDBRANCH  10 219
BRANCH  37 221
ATOM    221  O   UNL     1     135.034 172.817 190.105  0.00  0.00    -0.379 OA
BRANCH 221 222
ATOM    222  C   UNL     1     134.461 172.108 191.195  0.00  0.00    +0.037 C 
ATOM    223  H   UNL     1     134.867 171.093 191.192  0.00  0.00    +0.052 HD
ATOM    224  H   UNL     1     134.738 172.584 192.140  0.00  0.00    +0.052 HD
ATOM    225  H   UNL     1     133.373 172.049 191.110  0.00  0.00    +0.052 HD
ENDBRANCH 221 222
ENDBRANCH  37 221
BRANCH  16 226
ATOM    226  O   UNL     1     133.107 172.594 196.201  0.00  0.00    -0.379 OA
BRANCH 226 227
ATOM    227  C   UNL     1     133.731 171.614 195.380  0.00  0.00    +0.037 C 
ATOM    228  H   UNL     1     134.182 170.858 196.028  0.00  0.00    +0.052 HD
ATOM    229  H   UNL     1     132.994 171.125 194.736  0.00  0.00    +0.052 HD
ATOM    230  H   UNL     1     134.520 172.065 194.770  0.00  0.00    +0.052 HD
ENDBRANCH 226 227
ENDBRANCH  16 226
TORSDOF 40
ENDMDL
MODEL 7
REMARK VINA RESULT:      -5.8      4.552      8.494
REMARK  Name = Swinholide A_conf3
REMARK  40 active torsions:
REMARK  status: ('A' for Active; 'I' for Inactive)
REMARK    1  A    between atoms: C_1  and  C_2
REMARK    2  A    between atoms: C_4  and  C_10
REMARK    3  A    between atoms: C_6  and  O_8
REMARK    4  A    between atoms: O_8  and  C_9
REMARK    5  A    between atoms: C_10  and  C_11
REMARK    6  A    between atoms: C_11  and  C_12
REMARK    7  A    between atoms: C_12  and  C_13
REMARK    8  A    between atoms: C_12  and  C_98
REMARK    9  A    between atoms: C_13  and  O_14
REMARK   10  A    between atoms: C_13  and  C_15
REMARK   11  A    between atoms: C_15  and  C_16
REMARK   12  A    between atoms: C_15  and  C_97
REMARK   13  A    between atoms: C_22  and  C_96
REMARK   14  A    between atoms: C_25  and  O_95
REMARK   15  A    between atoms: C_31  and  O_90
REMARK   16  A    between atoms: C_32  and  C_89
REMARK   17  A    between atoms: C_33  and  O_88
REMARK   18  A    between atoms: C_35  and  O_87
REMARK   19  A    between atoms: C_36  and  C_86
REMARK   20  A    between atoms: C_37  and  C_69
REMARK   21  A    between atoms: C_43  and  C_68
REMARK   22  A    between atoms: C_46  and  O_67
REMARK   23  A    between atoms: C_52  and  O_62
REMARK   24  A    between atoms: C_53  and  C_61
REMARK   25  A    between atoms: C_54  and  O_60
REMARK   26  A    between atoms: C_56  and  O_59
REMARK   27  A    between atoms: C_57  and  C_58
REMARK   28  A    between atoms: O_62  and  C_63
REMARK   29  A    between atoms: C_69  and  C_70
REMARK   30  A    between atoms: C_69  and  C_85
REMARK   31  A    between atoms: C_70  and  O_71
REMARK   32  A    between atoms: C_70  and  C_72
REMARK   33  A    between atoms: C_72  and  C_73
REMARK   34  A    between atoms: C_72  and  C_84
REMARK   35  A    between atoms: C_73  and  C_74
REMARK   36  A    between atoms: C_74  and  C_75
REMARK   37  A    between atoms: C_77  and  C_83
REMARK   38  A    between atoms: C_79  and  O_81
REMARK   39  A    between atoms: O_81  and  C_82
REMARK   40  A    between atoms: O_90  and  C_91
REMARK                            x       y       z     vdW  Elec       q    Type
REMARK                         _______ _______ _______ _____ _____    ______ ____
ROOT
ATOM      1  C   UNL     1     140.157 169.343 186.226  0.00  0.00    +0.113 C 
ATOM      2  O   UNL     1     140.830 168.806 187.394  0.00  0.00    -0.458 OA
ATOM      3  C   UNL     1     142.172 168.643 187.250  0.00  0.00    +0.332 C 
ATOM      4  O   UNL     1     142.841 169.003 186.290  0.00  0.00    -0.246 OA
ATOM      5  C   UNL     1     142.812 167.941 188.366  0.00  0.00    +0.023 C 
ATOM      6  C   UNL     1     142.369 167.866 189.630  0.00  0.00    -0.052 C 
ATOM      7  C   UNL     1     143.166 167.241 190.681  0.00  0.00    -0.054 C 
ATOM      8  C   UNL     1     144.484 167.511 190.778  0.00  0.00    -0.079 C 
ATOM      9  C   UNL     1     145.493 166.922 191.718  0.00  0.00    -0.008 C 
ATOM     10  C   UNL     1     146.021 165.509 191.382  0.00  0.00    +0.061 C 
ATOM     11  C   UNL     1     145.899 165.023 189.932  0.00  0.00    +0.003 C 
ATOM     12  C   UNL     1     146.930 165.483 188.888  0.00  0.00    +0.080 C 
ATOM     13  O   UNL     1     146.483 164.855 187.668  0.00  0.00    -0.369 OA
ATOM     14  C   UNL     1     147.034 165.379 186.448  0.00  0.00    +0.065 C 
ATOM     15  C   UNL     1     148.532 165.039 186.360  0.00  0.00    +0.000 C 
ATOM     16  C   UNL     1     149.191 165.283 184.988  0.00  0.00    +0.066 C 
ATOM     17  C   UNL     1     150.643 164.721 184.986  0.00  0.00    +0.009 C 
ATOM     18  C   UNL     1     151.708 165.642 185.649  0.00  0.00    +0.063 C 
ATOM     19  C   UNL     1     152.779 164.863 186.450  0.00  0.00    -0.000 C 
ATOM     20  C   UNL     1     152.183 164.116 187.665  0.00  0.00    +0.064 C 
ATOM     21  C   UNL     1     153.029 164.271 188.958  0.00  0.00    +0.020 C 
ATOM     22  C   UNL     1     152.190 164.189 190.284  0.00  0.00    +0.113 C 
ATOM     23  O   UNL     1     150.868 163.670 190.050  0.00  0.00    -0.458 OA
ATOM     24  C   UNL     1     150.725 162.322 190.068  0.00  0.00    +0.332 C 
ATOM     25  O   UNL     1     151.536 161.506 190.474  0.00  0.00    -0.246 OA
ATOM     26  C   UNL     1     149.407 162.005 189.481  0.00  0.00    +0.023 C 
ATOM     27  C   UNL     1     149.031 160.728 189.324  0.00  0.00    -0.052 C 
ATOM     28  C   UNL     1     147.778 160.297 188.718  0.00  0.00    -0.054 C 
ATOM     29  C   UNL     1     147.306 160.871 187.592  0.00  0.00    -0.079 C 
ATOM     30  C   UNL     1     146.066 160.487 186.828  0.00  0.00    -0.008 C 
ATOM     31  C   UNL     1     144.831 161.287 187.285  0.00  0.00    +0.061 C 
ATOM     32  C   UNL     1     144.427 162.362 186.263  0.00  0.00    +0.003 C 
ATOM     33  C   UNL     1     143.396 163.363 186.814  0.00  0.00    +0.080 C 
ATOM     34  O   UNL     1     143.410 164.575 186.032  0.00  0.00    -0.369 OA
ATOM     35  C   UNL     1     142.585 164.542 184.850  0.00  0.00    +0.065 C 
ATOM     36  C   UNL     1     142.812 165.883 184.120  0.00  0.00    +0.000 C 
ATOM     37  C   UNL     1     141.964 166.087 182.847  0.00  0.00    +0.066 C 
ATOM     38  C   UNL     1     142.205 167.481 182.192  0.00  0.00    +0.009 C 
ATOM     39  C   UNL     1     141.820 168.714 183.056  0.00  0.00    +0.063 C 
ATOM     40  C   UNL     1     140.368 169.239 183.071  0.00  0.00    -0.000 C 
ATOM     41  C   UNL     1     139.310 168.492 183.897  0.00  0.00    +0.064 C 
ATOM     42  C   UNL     1     139.700 168.135 185.350  0.00  0.00    +0.020 C 
ATOM     43  C   UNL     1     141.119 164.359 185.272  0.00  0.00    -0.008 C 
ATOM     44  C   UNL     1     140.955 163.236 186.242  0.00  0.00    -0.083 C 
ATOM     45  C   UNL     1     142.003 162.791 186.943  0.00  0.00    -0.059 C 
ATOM     46  C   UNL     1     146.676 166.866 186.318  0.00  0.00    -0.008 C 
ATOM     47  C   UNL     1     146.972 167.621 187.573  0.00  0.00    -0.083 C 
ATOM     48  C   UNL     1     147.096 166.972 188.740  0.00  0.00    -0.059 C 
ATOM     49  H   UNL     1     140.895 169.895 185.633  0.00  0.00    +0.074 HD
ATOM     50  H   UNL     1     143.773 167.518 188.087  0.00  0.00    +0.069 HD
ATOM     51  H   UNL     1     141.403 168.277 189.914  0.00  0.00    +0.062 HD
ATOM     52  H   UNL     1     144.916 168.236 190.087  0.00  0.00    +0.058 HD
ATOM     53  H   UNL     1     145.087 166.913 192.739  0.00  0.00    +0.033 HD
ATOM     54  H   UNL     1     146.336 167.621 191.780  0.00  0.00    +0.033 HD
ATOM     55  H   UNL     1     145.442 164.806 191.994  0.00  0.00    +0.060 HD
ATOM     56  H   UNL     1     144.883 165.190 189.551  0.00  0.00    +0.032 HD
ATOM     57  H   UNL     1     145.981 163.925 189.958  0.00  0.00    +0.032 HD
ATOM     58  H   UNL     1     147.903 165.052 189.146  0.00  0.00    +0.064 HD
ATOM     59  H   UNL     1     146.517 164.846 185.644  0.00  0.00    +0.060 HD
ATOM     60  H   UNL     1     148.628 163.976 186.616  0.00  0.00    +0.032 HD
ATOM     61  H   UNL     1     149.077 165.573 187.140  0.00  0.00    +0.032 HD
ATOM     62  H   UNL     1     149.204 166.354 184.751  0.00  0.00    +0.060 HD
ATOM     63  H   UNL     1     150.607 163.764 185.519  0.00  0.00    +0.035 HD
ATOM     64  H   UNL     1     152.223 166.199 184.856  0.00  0.00    +0.060 HD
ATOM     65  H   UNL     1     153.511 165.603 186.797  0.00  0.00    +0.032 HD
ATOM     66  H   UNL     1     153.303 164.167 185.784  0.00  0.00    +0.032 HD
ATOM     67  H   UNL     1     151.183 164.509 187.845  0.00  0.00    +0.060 HD
ATOM     68  H   UNL     1     153.502 165.258 188.932  0.00  0.00    +0.036 HD
ATOM     69  H   UNL     1     152.691 163.511 190.988  0.00  0.00    +0.074 HD
ATOM     70  H   UNL     1     148.799 162.838 189.154  0.00  0.00    +0.069 HD
ATOM     71  H   UNL     1     149.690 159.929 189.668  0.00  0.00    +0.062 HD
ATOM     72  H   UNL     1     147.864 161.691 187.138  0.00  0.00    +0.058 HD
ATOM     73  H   UNL     1     146.262 160.652 185.760  0.00  0.00    +0.033 HD
ATOM     74  H   UNL     1     145.891 159.408 186.914  0.00  0.00    +0.033 HD
ATOM     75  H   UNL     1     145.016 161.759 188.257  0.00  0.00    +0.060 HD
ATOM     76  H   UNL     1     145.316 162.915 185.947  0.00  0.00    +0.032 HD
ATOM     77  H   UNL     1     144.026 161.883 185.359  0.00  0.00    +0.032 HD
ATOM     78  H   UNL     1     143.717 163.676 187.815  0.00  0.00    +0.064 HD
ATOM     79  H   UNL     1     142.915 163.715 184.209  0.00  0.00    +0.060 HD
ATOM     80  H   UNL     1     142.645 166.688 184.840  0.00  0.00    +0.032 HD
ATOM     81  H   UNL     1     143.878 165.941 183.861  0.00  0.00    +0.032 HD
ATOM     82  H   UNL     1     140.907 165.968 183.085  0.00  0.00    +0.060 HD
ATOM     83  H   UNL     1     143.291 167.542 182.022  0.00  0.00    +0.035 HD
ATOM     84  H   UNL     1     142.160 168.573 184.076  0.00  0.00    +0.060 HD
ATOM     85  H   UNL     1     140.012 169.327 182.036  0.00  0.00    +0.032 HD
ATOM     86  H   UNL     1     140.394 170.276 183.433  0.00  0.00    +0.032 HD
ATOM     87  H   UNL     1     138.409 169.118 183.916  0.00  0.00    +0.060 HD
ATOM     88  H   UNL     1     140.569 167.474 185.281  0.00  0.00    +0.036 HD
ATOM     89  H   UNL     1     140.485 164.173 184.401  0.00  0.00    +0.033 HD
ATOM     90  H   UNL     1     140.757 165.262 185.769  0.00  0.00    +0.033 HD
ATOM     91  H   UNL     1     139.969 162.802 186.384  0.00  0.00    +0.057 HD
ATOM     92  H   UNL     1     141.863 161.973 187.644  0.00  0.00    +0.059 HD
ATOM     93  H   UNL     1     145.601 166.965 186.121  0.00  0.00    +0.033 HD
ATOM     94  H   UNL     1     147.201 167.320 185.473  0.00  0.00    +0.033 HD
ATOM     95  H   UNL     1     147.104 168.697 187.517  0.00  0.00    +0.057 HD
ATOM     96  H   UNL     1     147.390 167.527 189.623  0.00  0.00    +0.059 HD
ENDROOT
BRANCH  28  97
ATOM     97  C   UNL     1     147.122 159.150 189.439  0.00  0.00    -0.040 C 
ATOM     98  H   UNL     1     147.086 159.285 190.522  0.00  0.00    +0.028 HD
ATOM     99  H   UNL     1     146.093 159.012 189.086  0.00  0.00    +0.028 HD
ATOM    100  H   UNL     1     147.677 158.223 189.258  0.00  0.00    +0.028 HD
ENDBRANCH  28  97
BRANCH  21 101
ATOM    101  C   UNL     1     154.199 163.279 189.017  0.00  0.00    -0.057 C 
ATOM    102  H   UNL     1     155.026 163.656 189.627  0.00  0.00    +0.023 HD
ATOM    103  H   UNL     1     154.592 163.087 188.013  0.00  0.00    +0.023 HD
ATOM    104  H   UNL     1     153.878 162.317 189.431  0.00  0.00    +0.023 HD
ENDBRANCH  21 101
BRANCH  42 105
ATOM    105  C   UNL     1     138.639 167.239 186.012  0.00  0.00    -0.057 C 
ATOM    106  H   UNL     1     138.812 166.188 185.755  0.00  0.00    +0.023 HD
ATOM    107  H   UNL     1     138.666 167.313 187.104  0.00  0.00    +0.023 HD
ATOM    108  H   UNL     1     137.632 167.469 185.659  0.00  0.00    +0.023 HD
ENDBRANCH  42 105
BRANCH  17 109
ATOM    109  C   UNL     1     151.134 164.346 183.576  0.00  0.00    -0.058 C 
ATOM    110  H   UNL     1     150.339 164.465 182.834  0.00  0.00    +0.023 HD
ATOM    111  H   UNL     1     151.488 163.311 183.537  0.00  0.00    +0.023 HD
ATOM    112  H   UNL     1     151.976 164.979 183.273  0.00  0.00    +0.023 HD
ENDBRANCH  17 109
BRANCH  38 113
ATOM    113  C   UNL     1     141.599 167.577 180.782  0.00  0.00    -0.058 C 
ATOM    114  H   UNL     1     141.450 166.587 180.341  0.00  0.00    +0.023 HD
ATOM    115  H   UNL     1     140.633 168.093 180.803  0.00  0.00    +0.023 HD
ATOM    116  H   UNL     1     142.248 168.152 180.114  0.00  0.00    +0.023 HD
ENDBRANCH  38 113
BRANCH   7 117
ATOM    117  C   UNL     1     142.421 166.301 191.583  0.00  0.00    -0.040 C 
ATOM    118  H   UNL     1     142.773 166.410 192.612  0.00  0.00    +0.028 HD
ATOM    119  H   UNL     1     142.555 165.254 191.300  0.00  0.00    +0.028 HD
ATOM    120  H   UNL     1     141.345 166.507 191.561  0.00  0.00    +0.028 HD
ENDBRANCH   7 117
BRANCH   1 121
ATOM    121  C   UNL     1     139.121 170.437 186.622  0.00  0.00    +0.020 C 
ATOM    122  H   UNL     1     138.337 170.409 185.855  0.00  0.00    +0.036 HD
BRANCH 121 123
ATOM    123  C   UNL     1     138.398 170.226 187.950  0.00  0.00    -0.057 C 
ATOM    124  H   UNL     1     138.672 170.980 188.691  0.00  0.00    +0.023 HD
ATOM    125  H   UNL     1     137.312 170.245 187.810  0.00  0.00    +0.023 HD
ATOM    126  H   UNL     1     138.604 169.237 188.361  0.00  0.00    +0.023 HD
ENDBRANCH 121 123
BRANCH 121 127
ATOM    127  C   UNL     1     139.769 171.860 186.543  0.00  0.00    +0.064 C 
ATOM    128  H   UNL     1     138.968 172.581 186.749  0.00  0.00    +0.060 HD
BRANCH 127 129
ATOM    129  C   UNL     1     140.483 172.249 185.205  0.00  0.00    -0.017 C 
ATOM    130  H   UNL     1     140.950 171.356 184.783  0.00  0.00    +0.032 HD
BRANCH 129 131
ATOM    131  C   UNL     1     139.420 172.704 184.191  0.00  0.00    -0.060 C 
ATOM    132  H   UNL     1     139.880 173.027 183.251  0.00  0.00    +0.023 HD
ATOM    133  H   UNL     1     138.836 173.543 184.586  0.00  0.00    +0.023 HD
ATOM    134  H   UNL     1     138.712 171.900 183.967  0.00  0.00    +0.023 HD
ENDBRANCH 129 131
BRANCH 129 135
ATOM    135  C   UNL     1     141.556 173.352 185.363  0.00  0.00    -0.046 C 
ATOM    136  H   UNL     1     141.664 173.629 186.415  0.00  0.00    +0.027 HD
ATOM    137  H   UNL     1     141.220 174.263 184.850  0.00  0.00    +0.027 HD
BRANCH 135 138
ATOM    138  C   UNL     1     142.957 173.017 184.821  0.00  0.00    -0.026 C 
ATOM    139  H   UNL     1     143.458 173.978 184.641  0.00  0.00    +0.029 HD
ATOM    140  H   UNL     1     142.876 172.527 183.844  0.00  0.00    +0.029 HD
BRANCH 138 143
ATOM    141  C   UNL     1     144.415 172.031 188.111  0.00  0.00    +0.059 C 
ATOM    142  O   UNL     1     143.492 172.477 187.109  0.00  0.00    -0.373 OA
ATOM    143  C   UNL     1     143.840 172.175 185.757  0.00  0.00    +0.061 C 
ATOM    144  C   UNL     1     145.320 172.466 185.493  0.00  0.00    -0.000 C 
ATOM    145  C   UNL     1     146.226 171.653 186.426  0.00  0.00    +0.063 C 
ATOM    146  C   UNL     1     145.441 171.036 187.583  0.00  0.00    -0.000 C 
ATOM    147  H   UNL     1     144.931 172.924 188.484  0.00  0.00    +0.059 HD
ATOM    148  H   UNL     1     143.636 171.115 185.573  0.00  0.00    +0.060 HD
ATOM    149  H   UNL     1     145.555 172.284 184.439  0.00  0.00    +0.032 HD
ATOM    150  H   UNL     1     145.506 173.529 185.694  0.00  0.00    +0.032 HD
ATOM    151  H   UNL     1     147.003 172.309 186.842  0.00  0.00    +0.060 HD
ATOM    152  H   UNL     1     146.134 170.726 188.374  0.00  0.00    +0.032 HD
ATOM    153  H   UNL     1     144.941 170.121 187.248  0.00  0.00    +0.032 HD
BRANCH 141 154
ATOM    154  C   UNL     1     143.607 171.433 189.254  0.00  0.00    -0.039 C 
ATOM    155  H   UNL     1     142.878 172.150 189.643  0.00  0.00    +0.025 HD
ATOM    156  H   UNL     1     143.072 170.538 188.921  0.00  0.00    +0.025 HD
ATOM    157  H   UNL     1     144.263 171.124 190.075  0.00  0.00    +0.025 HD
ENDBRANCH 141 154
BRANCH 145 158
ATOM    158  O   UNL     1     146.857 170.578 185.719  0.00  0.00    -0.380 OA
BRANCH 158 159
ATOM    159  C   UNL     1     147.155 170.894 184.365  0.00  0.00    +0.037 C 
ATOM    160  H   UNL     1     146.253 170.719 183.770  0.00  0.00    +0.052 HD
ATOM    161  H   UNL     1     147.446 171.941 184.253  0.00  0.00    +0.052 HD
ATOM    162  H   UNL     1     147.949 170.241 183.991  0.00  0.00    +0.052 HD
ENDBRANCH 158 159
ENDBRANCH 145 158
ENDBRANCH 138 143
ENDBRANCH 135 138
ENDBRANCH 129 135
ENDBRANCH 127 129
BRANCH 127 163
ATOM    163  O   UNL     1     140.679 171.982 187.644  0.00  0.00    -0.391 OA
ATOM    164  H   UNL     1     141.569 171.784 187.305  0.00  0.00    +0.210 HD
ENDBRANCH 127 163
ENDBRANCH 121 127
ENDBRANCH   1 121
BRANCH  41 165
ATOM    165  O   UNL     1     138.959 167.303 183.185  0.00  0.00    -0.391 OA
ATOM    166  H   UNL     1     138.343 166.801 183.744  0.00  0.00    +0.210 HD
ENDBRANCH  41 165
BRANCH  39 167
ATOM    167  O   UNL     1     142.602 169.827 182.559  0.00  0.00    -0.391 OA
ATOM    168  H   UNL     1     143.498 169.484 182.394  0.00  0.00    +0.210 HD
ENDBRANCH  39 167
BRANCH  31 169
ATOM    169  O   UNL     1     143.746 160.372 187.472  0.00  0.00    -0.391 OA
ATOM    170  H   UNL     1     143.438 160.104 186.586  0.00  0.00    +0.210 HD
ENDBRANCH  31 169
BRANCH  22 171
ATOM    171  C   UNL     1     152.080 165.574 191.031  0.00  0.00    +0.020 C 
ATOM    172  H   UNL     1     152.887 165.583 191.775  0.00  0.00    +0.036 HD
BRANCH 171 173
ATOM    173  C   UNL     1     152.358 166.679 189.991  0.00  0.00    -0.057 C 
ATOM    174  H   UNL     1     151.896 166.450 189.025  0.00  0.00    +0.023 HD
ATOM    175  H   UNL     1     151.975 167.650 190.319  0.00  0.00    +0.023 HD
ATOM    176  H   UNL     1     153.420 166.789 189.775  0.00  0.00    +0.023 HD
ENDBRANCH 171 173
BRANCH 171 177
ATOM    177  C   UNL     1     150.737 165.800 191.802  0.00  0.00    +0.064 C 
ATOM    178  H   UNL     1     149.933 165.931 191.067  0.00  0.00    +0.060 HD
BRANCH 177 179
ATOM    179  O   UNL     1     150.446 164.619 192.549  0.00  0.00    -0.391 OA
ATOM    180  H   UNL     1     150.940 164.649 193.395  0.00  0.00    +0.210 HD
ENDBRANCH 177 179
BRANCH 177 181
ATOM    181  C   UNL     1     150.662 166.979 192.826  0.00  0.00    -0.017 C 
ATOM    182  H   UNL     1     150.305 166.575 193.782  0.00  0.00    +0.032 HD
BRANCH 181 183
ATOM    183  C   UNL     1     151.998 167.670 193.092  0.00  0.00    -0.060 C 
ATOM    184  H   UNL     1     152.394 168.103 192.170  0.00  0.00    +0.023 HD
ATOM    185  H   UNL     1     152.773 166.970 193.416  0.00  0.00    +0.023 HD
ATOM    186  H   UNL     1     151.903 168.447 193.856  0.00  0.00    +0.023 HD
ENDBRANCH 181 183
BRANCH 181 187
ATOM    187  C   UNL     1     149.581 167.998 192.350  0.00  0.00    -0.046 C 
ATOM    188  H   UNL     1     148.942 168.262 193.201  0.00  0.00    +0.027 HD
ATOM    189  H   UNL     1     148.931 167.513 191.609  0.00  0.00    +0.027 HD
BRANCH 187 190
ATOM    190  C   UNL     1     150.138 169.296 191.748  0.00  0.00    -0.026 C 
ATOM    191  H   UNL     1     151.123 169.513 192.177  0.00  0.00    +0.029 HD
ATOM    192  H   UNL     1     150.264 169.148 190.667  0.00  0.00    +0.029 HD
BRANCH 190 193
ATOM    193  C   UNL     1     149.212 170.503 191.963  0.00  0.00    +0.061 C 
ATOM    194  O   UNL     1     148.637 170.866 190.703  0.00  0.00    -0.373 OA
ATOM    195  C   UNL     1     147.732 171.972 190.765  0.00  0.00    +0.059 C 
ATOM    196  C   UNL     1     148.412 173.211 191.356  0.00  0.00    -0.000 C 
ATOM    197  C   UNL     1     149.143 172.929 192.670  0.00  0.00    +0.063 C 
ATOM    198  C   UNL     1     150.010 171.679 192.531  0.00  0.00    -0.000 C 
ATOM    199  H   UNL     1     148.419 170.204 192.658  0.00  0.00    +0.060 HD
ATOM    200  H   UNL     1     147.485 172.207 189.721  0.00  0.00    +0.059 HD
ATOM    201  H   UNL     1     147.684 174.020 191.463  0.00  0.00    +0.032 HD
ATOM    202  H   UNL     1     149.166 173.552 190.633  0.00  0.00    +0.032 HD
ATOM    203  H   UNL     1     149.797 173.775 192.919  0.00  0.00    +0.060 HD
ATOM    204  H   UNL     1     150.433 171.404 193.505  0.00  0.00    +0.032 HD
ATOM    205  H   UNL     1     150.843 171.914 191.856  0.00  0.00    +0.032 HD
BRANCH 195 206
ATOM    206  C   UNL     1     146.416 171.595 191.440  0.00  0.00    -0.039 C 
ATOM    207  H   UNL     1     146.610 171.158 192.426  0.00  0.00    +0.025 HD
ATOM    208  H   UNL     1     145.865 170.866 190.839  0.00  0.00    +0.025 HD
ATOM    209  H   UNL     1     145.761 172.454 191.610  0.00  0.00    +0.025 HD
ENDBRANCH 195 206
BRANCH 197 210
ATOM    210  O   UNL     1     148.231 172.717 193.752  0.00  0.00    -0.380 OA
BRANCH 210 211
ATOM    211  C   UNL     1     147.407 173.842 194.029  0.00  0.00    +0.037 C 
ATOM    212  H   UNL     1     148.049 174.720 194.127  0.00  0.00    +0.052 HD
ATOM    213  H   UNL     1     146.709 174.014 193.204  0.00  0.00    +0.052 HD
ATOM    214  H   UNL     1     146.857 173.711 194.965  0.00  0.00    +0.052 HD
ENDBRANCH 210 211
ENDBRANCH 197 210
ENDBRANCH 190 193
ENDBRANCH 187 190
ENDBRANCH 181 187
ENDBRANCH 177 181
ENDBRANCH 171 177
ENDBRANCH  22 171
BRANCH  20 215
ATOM    215  O   UNL     1     151.995 162.742 187.322  0.00  0.00    -0.391 OA
ATOM    216  H   UNL     1     151.087 162.613 187.000  0.00  0.00    +0.210 HD
ENDBRANCH  20 215
BRANCH  18 217
ATOM    217  O   UNL     1     151.145 166.638 186.509  0.00  0.00    -0.391 OA
ATOM    218  H   UNL     1     150.442 167.085 186.001  0.00  0.00    +0.210 HD
ENDBRANCH  18 217
BRANCH  10 219
ATOM    219  O   UNL     1     147.373 165.414 191.837  0.00  0.00    -0.391 OA
ATOM    220  H   UNL     1     147.367 165.046 192.737  0.00  0.00    +0.210 HD
ENDBRANCH  10 219
BRANCH  37 221
ATOM    221  O   UNL     1     142.388 165.067 181.923  0.00  0.00    -0.379 OA
BRANCH 221 222
ATOM    222  C   UNL     1     141.344 164.181 181.540  0.00  0.00    +0.037 C 
ATOM    223  H   UNL     1     141.134 163.518 182.384  0.00  0.00    +0.052 HD
ATOM    224  H   UNL     1     140.436 164.746 181.314  0.00  0.00    +0.052 HD
ATOM    225  H   UNL     1     141.630 163.570 180.679  0.00  0.00    +0.052 HD
ENDBRANCH 221 222
ENDBRANCH  37 221
BRANCH  16 226
ATOM    226  O   UNL     1     148.412 164.561 184.019  0.00  0.00    -0.379 OA
BRANCH 226 227
ATOM    227  C   UNL     1     147.847 165.395 183.014  0.00  0.00    +0.037 C 
ATOM    228  H   UNL     1     147.012 164.861 182.552  0.00  0.00    +0.052 HD
ATOM    229  H   UNL     1     147.467 166.322 183.452  0.00  0.00    +0.052 HD
ATOM    230  H   UNL     1     148.586 165.622 182.239  0.00  0.00    +0.052 HD
ENDBRANCH 226 227
ENDBRANCH  16 226
TORSDOF 40
ENDMDL
MODEL 8
REMARK VINA RESULT:      -5.8      6.499     16.087
REMARK  Name = Swinholide A_conf3
REMARK  40 active torsions:
REMARK  status: ('A' for Active; 'I' for Inactive)
REMARK    1  A    between atoms: C_1  and  C_2
REMARK    2  A    between atoms: C_4  and  C_10
REMARK    3  A    between atoms: C_6  and  O_8
REMARK    4  A    between atoms: O_8  and  C_9
REMARK    5  A    between atoms: C_10  and  C_11
REMARK    6  A    between atoms: C_11  and  C_12
REMARK    7  A    between atoms: C_12  and  C_13
REMARK    8  A    between atoms: C_12  and  C_98
REMARK    9  A    between atoms: C_13  and  O_14
REMARK   10  A    between atoms: C_13  and  C_15
REMARK   11  A    between atoms: C_15  and  C_16
REMARK   12  A    between atoms: C_15  and  C_97
REMARK   13  A    between atoms: C_22  and  C_96
REMARK   14  A    between atoms: C_25  and  O_95
REMARK   15  A    between atoms: C_31  and  O_90
REMARK   16  A    between atoms: C_32  and  C_89
REMARK   17  A    between atoms: C_33  and  O_88
REMARK   18  A    between atoms: C_35  and  O_87
REMARK   19  A    between atoms: C_36  and  C_86
REMARK   20  A    between atoms: C_37  and  C_69
REMARK   21  A    between atoms: C_43  and  C_68
REMARK   22  A    between atoms: C_46  and  O_67
REMARK   23  A    between atoms: C_52  and  O_62
REMARK   24  A    between atoms: C_53  and  C_61
REMARK   25  A    between atoms: C_54  and  O_60
REMARK   26  A    between atoms: C_56  and  O_59
REMARK   27  A    between atoms: C_57  and  C_58
REMARK   28  A    between atoms: O_62  and  C_63
REMARK   29  A    between atoms: C_69  and  C_70
REMARK   30  A    between atoms: C_69  and  C_85
REMARK   31  A    between atoms: C_70  and  O_71
REMARK   32  A    between atoms: C_70  and  C_72
REMARK   33  A    between atoms: C_72  and  C_73
REMARK   34  A    between atoms: C_72  and  C_84
REMARK   35  A    between atoms: C_73  and  C_74
REMARK   36  A    between atoms: C_74  and  C_75
REMARK   37  A    between atoms: C_77  and  C_83
REMARK   38  A    between atoms: C_79  and  O_81
REMARK   39  A    between atoms: O_81  and  C_82
REMARK   40  A    between atoms: O_90  and  C_91
REMARK                            x       y       z     vdW  Elec       q    Type
REMARK                         _______ _______ _______ _____ _____    ______ ____
ROOT
ATOM      1  C   UNL     1     149.031 166.343 189.046  0.00  0.00    +0.113 C 
ATOM      2  O   UNL     1     148.834 167.679 189.577  0.00  0.00    -0.458 OA
ATOM      3  C   UNL     1     147.542 167.988 189.868  0.00  0.00    +0.332 C 
ATOM      4  O   UNL     1     146.592 167.219 189.822  0.00  0.00    -0.246 OA
ATOM      5  C   UNL     1     147.332 169.391 190.236  0.00  0.00    +0.023 C 
ATOM      6  C   UNL     1     148.241 170.233 190.749  0.00  0.00    -0.052 C 
ATOM      7  C   UNL     1     147.872 171.574 191.193  0.00  0.00    -0.054 C 
ATOM      8  C   UNL     1     146.757 171.757 191.930  0.00  0.00    -0.079 C 
ATOM      9  C   UNL     1     146.157 173.043 192.415  0.00  0.00    -0.008 C 
ATOM     10  C   UNL     1     145.358 173.873 191.385  0.00  0.00    +0.061 C 
ATOM     11  C   UNL     1     144.811 173.150 190.148  0.00  0.00    +0.003 C 
ATOM     12  C   UNL     1     143.511 172.335 190.259  0.00  0.00    +0.080 C 
ATOM     13  O   UNL     1     143.332 171.797 188.933  0.00  0.00    -0.369 OA
ATOM     14  C   UNL     1     142.401 170.707 188.813  0.00  0.00    +0.065 C 
ATOM     15  C   UNL     1     140.969 171.210 189.065  0.00  0.00    +0.000 C 
ATOM     16  C   UNL     1     139.843 170.225 188.692  0.00  0.00    +0.066 C 
ATOM     17  C   UNL     1     138.459 170.927 188.814  0.00  0.00    +0.009 C 
ATOM     18  C   UNL     1     137.890 171.016 190.260  0.00  0.00    +0.063 C 
ATOM     19  C   UNL     1     137.150 172.344 190.549  0.00  0.00    -0.000 C 
ATOM     20  C   UNL     1     138.091 173.570 190.487  0.00  0.00    +0.064 C 
ATOM     21  C   UNL     1     137.878 174.568 191.657  0.00  0.00    +0.020 C 
ATOM     22  C   UNL     1     139.169 175.370 192.056  0.00  0.00    +0.113 C 
ATOM     23  O   UNL     1     140.199 175.257 191.056  0.00  0.00    -0.458 OA
ATOM     24  C   UNL     1     140.160 176.144 190.032  0.00  0.00    +0.332 C 
ATOM     25  O   UNL     1     139.489 177.161 189.970  0.00  0.00    -0.246 OA
ATOM     26  C   UNL     1     141.068 175.648 188.977  0.00  0.00    +0.023 C 
ATOM     27  C   UNL     1     141.177 176.311 187.817  0.00  0.00    -0.052 C 
ATOM     28  C   UNL     1     142.004 175.892 186.693  0.00  0.00    -0.054 C 
ATOM     29  C   UNL     1     142.041 174.606 186.287  0.00  0.00    -0.079 C 
ATOM     30  C   UNL     1     142.797 174.047 185.111  0.00  0.00    -0.008 C 
ATOM     31  C   UNL     1     144.203 173.554 185.504  0.00  0.00    +0.061 C 
ATOM     32  C   UNL     1     144.288 172.020 185.548  0.00  0.00    +0.003 C 
ATOM     33  C   UNL     1     145.574 171.505 186.217  0.00  0.00    +0.080 C 
ATOM     34  O   UNL     1     145.398 170.141 186.654  0.00  0.00    -0.369 OA
ATOM     35  C   UNL     1     145.653 169.144 185.645  0.00  0.00    +0.065 C 
ATOM     36  C   UNL     1     145.322 167.779 186.284  0.00  0.00    +0.000 C 
ATOM     37  C   UNL     1     145.591 166.553 185.385  0.00  0.00    +0.066 C 
ATOM     38  C   UNL     1     145.285 165.208 186.111  0.00  0.00    +0.009 C 
ATOM     39  C   UNL     1     146.147 164.902 187.368  0.00  0.00    +0.063 C 
ATOM     40  C   UNL     1     147.532 164.234 187.225  0.00  0.00    -0.000 C 
ATOM     41  C   UNL     1     148.729 165.082 186.770  0.00  0.00    +0.064 C 
ATOM     42  C   UNL     1     148.928 166.434 187.491  0.00  0.00    +0.020 C 
ATOM     43  C   UNL     1     147.125 169.236 185.216  0.00  0.00    -0.008 C 
ATOM     44  C   UNL     1     147.526 170.639 184.897  0.00  0.00    -0.083 C 
ATOM     45  C   UNL     1     146.810 171.668 185.363  0.00  0.00    -0.059 C 
ATOM     46  C   UNL     1     142.864 169.535 189.690  0.00  0.00    -0.008 C 
ATOM     47  C   UNL     1     143.210 169.980 191.074  0.00  0.00    -0.083 C 
ATOM     48  C   UNL     1     143.493 171.267 191.320  0.00  0.00    -0.059 C 
ATOM     49  H   UNL     1     148.193 165.719 189.377  0.00  0.00    +0.074 HD
ATOM     50  H   UNL     1     146.295 169.694 190.120  0.00  0.00    +0.069 HD
ATOM     51  H   UNL     1     149.283 169.941 190.858  0.00  0.00    +0.062 HD
ATOM     52  H   UNL     1     146.178 170.879 192.218  0.00  0.00    +0.058 HD
ATOM     53  H   UNL     1     146.941 173.677 192.849  0.00  0.00    +0.033 HD
ATOM     54  H   UNL     1     145.511 172.805 193.270  0.00  0.00    +0.033 HD
ATOM     55  H   UNL     1     146.041 174.649 191.013  0.00  0.00    +0.060 HD
ATOM     56  H   UNL     1     145.593 172.541 189.677  0.00  0.00    +0.032 HD
ATOM     57  H   UNL     1     144.604 173.925 189.393  0.00  0.00    +0.032 HD
ATOM     58  H   UNL     1     142.683 173.025 190.452  0.00  0.00    +0.064 HD
ATOM     59  H   UNL     1     142.469 170.382 187.769  0.00  0.00    +0.060 HD
ATOM     60  H   UNL     1     140.850 172.127 188.472  0.00  0.00    +0.032 HD
ATOM     61  H   UNL     1     140.867 171.524 190.104  0.00  0.00    +0.032 HD
ATOM     62  H   UNL     1     139.873 169.341 189.340  0.00  0.00    +0.060 HD
ATOM     63  H   UNL     1     138.586 171.939 188.412  0.00  0.00    +0.035 HD
ATOM     64  H   UNL     1     137.171 170.197 190.398  0.00  0.00    +0.060 HD
ATOM     65  H   UNL     1     136.728 172.256 191.557  0.00  0.00    +0.032 HD
ATOM     66  H   UNL     1     136.314 172.460 189.849  0.00  0.00    +0.032 HD
ATOM     67  H   UNL     1     139.117 173.209 190.510  0.00  0.00    +0.060 HD
ATOM     68  H   UNL     1     137.569 173.993 192.536  0.00  0.00    +0.036 HD
ATOM     69  H   UNL     1     138.918 176.436 192.152  0.00  0.00    +0.074 HD
ATOM     70  H   UNL     1     141.590 174.721 189.172  0.00  0.00    +0.069 HD
ATOM     71  H   UNL     1     140.620 177.239 187.676  0.00  0.00    +0.062 HD
ATOM     72  H   UNL     1     141.458 173.859 186.827  0.00  0.00    +0.058 HD
ATOM     73  H   UNL     1     142.203 173.227 184.686  0.00  0.00    +0.033 HD
ATOM     74  H   UNL     1     142.850 174.793 184.310  0.00  0.00    +0.033 HD
ATOM     75  H   UNL     1     144.496 173.964 186.477  0.00  0.00    +0.060 HD
ATOM     76  H   UNL     1     143.427 171.625 186.096  0.00  0.00    +0.032 HD
ATOM     77  H   UNL     1     144.216 171.614 184.530  0.00  0.00    +0.032 HD
ATOM     78  H   UNL     1     145.736 172.072 187.141  0.00  0.00    +0.064 HD
ATOM     79  H   UNL     1     144.984 169.322 184.792  0.00  0.00    +0.060 HD
ATOM     80  H   UNL     1     145.872 167.708 187.225  0.00  0.00    +0.032 HD
ATOM     81  H   UNL     1     144.260 167.796 186.568  0.00  0.00    +0.032 HD
ATOM     82  H   UNL     1     146.628 166.564 185.047  0.00  0.00    +0.060 HD
ATOM     83  H   UNL     1     144.243 165.290 186.457  0.00  0.00    +0.035 HD
ATOM     84  H   UNL     1     146.241 165.793 187.979  0.00  0.00    +0.060 HD
ATOM     85  H   UNL     1     147.440 163.365 186.561  0.00  0.00    +0.032 HD
ATOM     86  H   UNL     1     147.792 163.799 188.200  0.00  0.00    +0.032 HD
ATOM     87  H   UNL     1     149.631 164.472 186.905  0.00  0.00    +0.060 HD
ATOM     88  H   UNL     1     148.029 167.025 187.289  0.00  0.00    +0.036 HD
ATOM     89  H   UNL     1     147.315 168.604 184.344  0.00  0.00    +0.033 HD
ATOM     90  H   UNL     1     147.773 168.898 186.027  0.00  0.00    +0.033 HD
ATOM     91  H   UNL     1     148.417 170.809 184.301  0.00  0.00    +0.057 HD
ATOM     92  H   UNL     1     147.118 172.680 185.120  0.00  0.00    +0.059 HD
ATOM     93  H   UNL     1     143.766 169.089 189.252  0.00  0.00    +0.033 HD
ATOM     94  H   UNL     1     142.103 168.752 189.725  0.00  0.00    +0.033 HD
ATOM     95  H   UNL     1     143.207 169.247 191.874  0.00  0.00    +0.057 HD
ATOM     96  H   UNL     1     143.663 171.583 192.343  0.00  0.00    +0.059 HD
ENDROOT
BRANCH  28  97
ATOM     97  C   UNL     1     142.743 177.024 186.032  0.00  0.00    -0.040 C 
ATOM     98  H   UNL     1     142.083 177.817 185.670  0.00  0.00    +0.028 HD
ATOM     99  H   UNL     1     143.457 177.477 186.729  0.00  0.00    +0.028 HD
ATOM    100  H   UNL     1     143.296 176.657 185.160  0.00  0.00    +0.028 HD
ENDBRANCH  28  97
BRANCH  21 101
ATOM    101  C   UNL     1     136.717 175.539 191.399  0.00  0.00    -0.057 C 
ATOM    102  H   UNL     1     135.923 175.436 192.144  0.00  0.00    +0.023 HD
ATOM    103  H   UNL     1     136.273 175.354 190.415  0.00  0.00    +0.023 HD
ATOM    104  H   UNL     1     137.065 176.578 191.409  0.00  0.00    +0.023 HD
ENDBRANCH  21 101
BRANCH  42 105
ATOM    105  C   UNL     1     150.041 167.265 186.831  0.00  0.00    -0.057 C 
ATOM    106  H   UNL     1     150.912 167.331 187.492  0.00  0.00    +0.023 HD
ATOM    107  H   UNL     1     150.382 166.818 185.891  0.00  0.00    +0.023 HD
ATOM    108  H   UNL     1     149.729 168.295 186.647  0.00  0.00    +0.023 HD
ENDBRANCH  42 105
BRANCH  17 109
ATOM    109  C   UNL     1     137.388 170.295 187.907  0.00  0.00    -0.058 C 
ATOM    110  H   UNL     1     137.389 170.752 186.913  0.00  0.00    +0.023 HD
ATOM    111  H   UNL     1     136.386 170.403 188.335  0.00  0.00    +0.023 HD
ATOM    112  H   UNL     1     137.564 169.220 187.784  0.00  0.00    +0.023 HD
ENDBRANCH  17 109
BRANCH  38 113
ATOM    113  C   UNL     1     145.266 164.013 185.144  0.00  0.00    -0.058 C 
ATOM    114  H   UNL     1     144.819 164.282 184.183  0.00  0.00    +0.023 HD
ATOM    115  H   UNL     1     146.279 163.638 184.960  0.00  0.00    +0.023 HD
ATOM    116  H   UNL     1     144.693 163.178 185.562  0.00  0.00    +0.023 HD
ENDBRANCH  38 113
BRANCH   7 117
ATOM    117  C   UNL     1     148.793 172.675 190.755  0.00  0.00    -0.040 C 
ATOM    118  H   UNL     1     148.736 173.513 191.454  0.00  0.00    +0.028 HD
ATOM    119  H   UNL     1     148.545 173.060 189.763  0.00  0.00    +0.028 HD
ATOM    120  H   UNL     1     149.831 172.326 190.717  0.00  0.00    +0.028 HD
ENDBRANCH   7 117
BRANCH   1 121
ATOM    121  C   UNL     1     150.271 165.654 189.692  0.00  0.00    +0.020 C 
ATOM    122  H   UNL     1     150.721 165.034 188.906  0.00  0.00    +0.036 HD
BRANCH 121 123
ATOM    123  C   UNL     1     151.386 166.585 190.163  0.00  0.00    -0.057 C 
ATOM    124  H   UNL     1     152.136 166.751 189.387  0.00  0.00    +0.023 HD
ATOM    125  H   UNL     1     150.980 167.552 190.476  0.00  0.00    +0.023 HD
ATOM    126  H   UNL     1     151.880 166.194 191.053  0.00  0.00    +0.023 HD
ENDBRANCH 121 123
BRANCH 121 127
ATOM    127  C   UNL     1     149.824 164.676 190.829  0.00  0.00    +0.064 C 
ATOM    128  H   UNL     1     150.501 164.848 191.675  0.00  0.00    +0.060 HD
BRANCH 127 129
ATOM    129  C   UNL     1     149.800 163.147 190.490  0.00  0.00    -0.017 C 
ATOM    130  H   UNL     1     150.311 162.602 191.287  0.00  0.00    +0.032 HD
BRANCH 129 131
ATOM    131  C   UNL     1     148.340 162.662 190.498  0.00  0.00    -0.060 C 
ATOM    132  H   UNL     1     148.114 162.068 189.605  0.00  0.00    +0.023 HD
ATOM    133  H   UNL     1     147.646 163.510 190.522  0.00  0.00    +0.023 HD
ATOM    134  H   UNL     1     148.127 162.050 191.380  0.00  0.00    +0.023 HD
ENDBRANCH 129 131
BRANCH 129 135
ATOM    135  C   UNL     1     150.459 162.793 189.136  0.00  0.00    -0.046 C 
ATOM    136  H   UNL     1     150.647 163.701 188.556  0.00  0.00    +0.027 HD
ATOM    137  H   UNL     1     149.757 162.198 188.535  0.00  0.00    +0.027 HD
BRANCH 135 138
ATOM    138  C   UNL     1     151.777 162.003 189.210  0.00  0.00    -0.026 C 
ATOM    139  H   UNL     1     152.313 162.375 190.095  0.00  0.00    +0.029 HD
ATOM    140  H   UNL     1     152.409 162.241 188.347  0.00  0.00    +0.029 HD
BRANCH 138 143
ATOM    141  C   UNL     1     149.878 158.793 189.297  0.00  0.00    +0.059 C 
ATOM    142  O   UNL     1     150.300 160.116 188.944  0.00  0.00    -0.373 OA
ATOM    143  C   UNL     1     151.623 160.479 189.342  0.00  0.00    +0.061 C 
ATOM    144  C   UNL     1     151.903 160.040 190.781  0.00  0.00    -0.000 C 
ATOM    145  C   UNL     1     151.741 158.523 190.946  0.00  0.00    +0.063 C 
ATOM    146  C   UNL     1     151.023 157.897 189.751  0.00  0.00    -0.000 C 
ATOM    147  H   UNL     1     149.153 158.901 190.114  0.00  0.00    +0.059 HD
ATOM    148  H   UNL     1     152.336 159.995 188.665  0.00  0.00    +0.060 HD
ATOM    149  H   UNL     1     152.900 160.376 191.088  0.00  0.00    +0.032 HD
ATOM    150  H   UNL     1     151.173 160.525 191.441  0.00  0.00    +0.032 HD
ATOM    151  H   UNL     1     151.154 158.317 191.853  0.00  0.00    +0.060 HD
ATOM    152  H   UNL     1     150.660 156.898 190.022  0.00  0.00    +0.032 HD
ATOM    153  H   UNL     1     151.731 157.745 188.929  0.00  0.00    +0.032 HD
BRANCH 141 154
ATOM    154  C   UNL     1     149.158 158.197 188.095  0.00  0.00    -0.039 C 
ATOM    155  H   UNL     1     148.682 157.245 188.349  0.00  0.00    +0.025 HD
ATOM    156  H   UNL     1     148.389 158.884 187.727  0.00  0.00    +0.025 HD
ATOM    157  H   UNL     1     149.855 158.028 187.267  0.00  0.00    +0.025 HD
ENDBRANCH 141 154
BRANCH 145 158
ATOM    158  O   UNL     1     153.015 157.879 191.063  0.00  0.00    -0.380 OA
BRANCH 158 159
ATOM    159  C   UNL     1     153.385 157.149 189.900  0.00  0.00    +0.037 C 
ATOM    160  H   UNL     1     152.476 156.942 189.326  0.00  0.00    +0.052 HD
ATOM    161  H   UNL     1     154.070 157.721 189.270  0.00  0.00    +0.052 HD
ATOM    162  H   UNL     1     153.842 156.196 190.183  0.00  0.00    +0.052 HD
ENDBRANCH 158 159
ENDBRANCH 145 158
ENDBRANCH 138 143
ENDBRANCH 135 138
ENDBRANCH 129 135
ENDBRANCH 127 129
BRANCH 127 163
ATOM    163  O   UNL     1     148.534 165.104 191.285  0.00  0.00    -0.391 OA
ATOM    164  H   UNL     1     148.193 164.409 191.875  0.00  0.00    +0.210 HD
ENDBRANCH 127 163
ENDBRANCH 121 127
ENDBRANCH   1 121
BRANCH  41 165
ATOM    165  O   UNL     1     148.600 165.300 185.362  0.00  0.00    -0.391 OA
ATOM    166  H   UNL     1     147.664 165.490 185.182  0.00  0.00    +0.210 HD
ENDBRANCH  41 165
BRANCH  39 167
ATOM    167  O   UNL     1     145.382 163.979 188.180  0.00  0.00    -0.391 OA
ATOM    168  H   UNL     1     146.020 163.522 188.755  0.00  0.00    +0.210 HD
ENDBRANCH  39 167
BRANCH  31 169
ATOM    169  O   UNL     1     145.140 174.058 184.546  0.00  0.00    -0.391 OA
ATOM    170  H   UNL     1     145.842 174.518 185.044  0.00  0.00    +0.210 HD
ENDBRANCH  31 169
BRANCH  22 171
ATOM    171  C   UNL     1     139.754 174.942 193.456  0.00  0.00    +0.020 C 
ATOM    172  H   UNL     1     138.890 174.690 194.084  0.00  0.00    +0.036 HD
BRANCH 171 173
ATOM    173  C   UNL     1     140.589 173.663 193.232  0.00  0.00    -0.057 C 
ATOM    174  H   UNL     1     141.020 173.633 192.226  0.00  0.00    +0.023 HD
ATOM    175  H   UNL     1     141.413 173.587 193.948  0.00  0.00    +0.023 HD
ATOM    176  H   UNL     1     139.989 172.757 193.308  0.00  0.00    +0.023 HD
ENDBRANCH 171 173
BRANCH 171 177
ATOM    177  C   UNL     1     140.558 176.059 194.202  0.00  0.00    +0.064 C 
ATOM    178  H   UNL     1     141.570 175.684 194.403  0.00  0.00    +0.060 HD
BRANCH 177 179
ATOM    179  O   UNL     1     140.683 177.180 193.327  0.00  0.00    -0.391 OA
ATOM    180  H   UNL     1     141.378 176.989 192.664  0.00  0.00    +0.210 HD
ENDBRANCH 177 179
BRANCH 177 181
ATOM    181  C   UNL     1     139.973 176.625 195.536  0.00  0.00    -0.017 C 
ATOM    182  H   UNL     1     140.687 176.401 196.341  0.00  0.00    +0.032 HD
BRANCH 181 183
ATOM    183  C   UNL     1     139.745 178.136 195.535  0.00  0.00    -0.060 C 
ATOM    184  H   UNL     1     139.345 178.461 194.571  0.00  0.00    +0.023 HD
ATOM    185  H   UNL     1     140.676 178.699 195.645  0.00  0.00    +0.023 HD
ATOM    186  H   UNL     1     139.068 178.440 196.339  0.00  0.00    +0.023 HD
ENDBRANCH 181 183
BRANCH 181 187
ATOM    187  C   UNL     1     138.664 175.853 195.885  0.00  0.00    -0.046 C 
ATOM    188  H   UNL     1     138.866 174.776 195.846  0.00  0.00    +0.027 HD
ATOM    189  H   UNL     1     137.909 176.058 195.114  0.00  0.00    +0.027 HD
BRANCH 187 190
ATOM    190  C   UNL     1     138.069 176.180 197.262  0.00  0.00    -0.026 C 
ATOM    191  H   UNL     1     138.875 176.387 197.976  0.00  0.00    +0.029 HD
ATOM    192  H   UNL     1     137.458 177.087 197.167  0.00  0.00    +0.029 HD
BRANCH 190 193
ATOM    193  C   UNL     1     137.178 175.056 197.814  0.00  0.00    +0.061 C 
ATOM    194  O   UNL     1     136.090 174.852 196.907  0.00  0.00    -0.373 OA
ATOM    195  C   UNL     1     135.188 173.810 197.293  0.00  0.00    +0.059 C 
ATOM    196  C   UNL     1     134.607 174.070 198.687  0.00  0.00    -0.000 C 
ATOM    197  C   UNL     1     135.675 174.391 199.735  0.00  0.00    +0.063 C 
ATOM    198  C   UNL     1     136.642 175.444 199.194  0.00  0.00    -0.000 C 
ATOM    199  H   UNL     1     137.782 174.143 197.877  0.00  0.00    +0.060 HD
ATOM    200  H   UNL     1     134.354 173.866 196.581  0.00  0.00    +0.059 HD
ATOM    201  H   UNL     1     133.982 173.227 198.992  0.00  0.00    +0.032 HD
ATOM    202  H   UNL     1     133.951 174.948 198.615  0.00  0.00    +0.032 HD
ATOM    203  H   UNL     1     135.199 174.795 200.638  0.00  0.00    +0.060 HD
ATOM    204  H   UNL     1     137.478 175.581 199.891  0.00  0.00    +0.032 HD
ATOM    205  H   UNL     1     136.103 176.397 199.121  0.00  0.00    +0.032 HD
BRANCH 195 206
ATOM    206  C   UNL     1     135.806 172.425 197.118  0.00  0.00    -0.039 C 
ATOM    207  H   UNL     1     135.030 171.655 197.188  0.00  0.00    +0.025 HD
ATOM    208  H   UNL     1     136.557 172.233 197.890  0.00  0.00    +0.025 HD
ATOM    209  H   UNL     1     136.283 172.290 196.144  0.00  0.00    +0.025 HD
ENDBRANCH 195 206
BRANCH 197 210
ATOM    210  O   UNL     1     136.436 173.234 200.093  0.00  0.00    -0.380 OA
BRANCH 210 211
ATOM    211  C   UNL     1     136.777 173.184 201.472  0.00  0.00    +0.037 C 
ATOM    212  H   UNL     1     136.616 174.176 201.900  0.00  0.00    +0.052 HD
ATOM    213  H   UNL     1     136.134 172.471 201.998  0.00  0.00    +0.052 HD
ATOM    214  H   UNL     1     137.828 172.915 201.612  0.00  0.00    +0.052 HD
ENDBRANCH 210 211
ENDBRANCH 197 210
ENDBRANCH 190 193
ENDBRANCH 187 190
ENDBRANCH 181 187
ENDBRANCH 177 181
ENDBRANCH 171 177
ENDBRANCH  22 171
BRANCH  20 215
ATOM    215  O   UNL     1     137.941 174.210 189.218  0.00  0.00    -0.391 OA
ATOM    216  H   UNL     1     137.207 173.796 188.735  0.00  0.00    +0.210 HD
ENDBRANCH  20 215
BRANCH  18 217
ATOM    217  O   UNL     1     138.879 170.826 191.276  0.00  0.00    -0.391 OA
ATOM    218  H   UNL     1     138.977 171.680 191.738  0.00  0.00    +0.210 HD
ENDBRANCH  18 217
BRANCH  10 219
ATOM    219  O   UNL     1     144.313 174.562 192.075  0.00  0.00    -0.391 OA
ATOM    220  H   UNL     1     143.631 173.913 192.322  0.00  0.00    +0.210 HD
ENDBRANCH  10 219
BRANCH  37 221
ATOM    221  O   UNL     1     144.697 166.682 184.264  0.00  0.00    -0.379 OA
BRANCH 221 222
ATOM    222  C   UNL     1     145.367 166.773 183.013  0.00  0.00    +0.037 C 
ATOM    223  H   UNL     1     146.397 167.088 183.201  0.00  0.00    +0.052 HD
ATOM    224  H   UNL     1     145.391 165.794 182.528  0.00  0.00    +0.052 HD
ATOM    225  H   UNL     1     144.892 167.507 182.355  0.00  0.00    +0.052 HD
ENDBRANCH 221 222
ENDBRANCH  37 221
BRANCH  16 226
ATOM    226  O   UNL     1     140.055 169.853 187.319  0.00  0.00    -0.379 OA
BRANCH 226 227
ATOM    227  C   UNL     1     140.239 168.454 187.136  0.00  0.00    +0.037 C 
ATOM    228  H   UNL     1     140.216 167.972 188.118  0.00  0.00    +0.052 HD
ATOM    229  H   UNL     1     139.434 168.036 186.525  0.00  0.00    +0.052 HD
ATOM    230  H   UNL     1     141.208 168.248 186.670  0.00  0.00    +0.052 HD
ENDBRANCH 226 227
ENDBRANCH  16 226
TORSDOF 40
ENDMDL
MODEL 9
REMARK VINA RESULT:      -5.8      6.365     16.016
REMARK  Name = Swinholide A_conf3
REMARK  40 active torsions:
REMARK  status: ('A' for Active; 'I' for Inactive)
REMARK    1  A    between atoms: C_1  and  C_2
REMARK    2  A    between atoms: C_4  and  C_10
REMARK    3  A    between atoms: C_6  and  O_8
REMARK    4  A    between atoms: O_8  and  C_9
REMARK    5  A    between atoms: C_10  and  C_11
REMARK    6  A    between atoms: C_11  and  C_12
REMARK    7  A    between atoms: C_12  and  C_13
REMARK    8  A    between atoms: C_12  and  C_98
REMARK    9  A    between atoms: C_13  and  O_14
REMARK   10  A    between atoms: C_13  and  C_15
REMARK   11  A    between atoms: C_15  and  C_16
REMARK   12  A    between atoms: C_15  and  C_97
REMARK   13  A    between atoms: C_22  and  C_96
REMARK   14  A    between atoms: C_25  and  O_95
REMARK   15  A    between atoms: C_31  and  O_90
REMARK   16  A    between atoms: C_32  and  C_89
REMARK   17  A    between atoms: C_33  and  O_88
REMARK   18  A    between atoms: C_35  and  O_87
REMARK   19  A    between atoms: C_36  and  C_86
REMARK   20  A    between atoms: C_37  and  C_69
REMARK   21  A    between atoms: C_43  and  C_68
REMARK   22  A    between atoms: C_46  and  O_67
REMARK   23  A    between atoms: C_52  and  O_62
REMARK   24  A    between atoms: C_53  and  C_61
REMARK   25  A    between atoms: C_54  and  O_60
REMARK   26  A    between atoms: C_56  and  O_59
REMARK   27  A    between atoms: C_57  and  C_58
REMARK   28  A    between atoms: O_62  and  C_63
REMARK   29  A    between atoms: C_69  and  C_70
REMARK   30  A    between atoms: C_69  and  C_85
REMARK   31  A    between atoms: C_70  and  O_71
REMARK   32  A    between atoms: C_70  and  C_72
REMARK   33  A    between atoms: C_72  and  C_73
REMARK   34  A    between atoms: C_72  and  C_84
REMARK   35  A    between atoms: C_73  and  C_74
REMARK   36  A    between atoms: C_74  and  C_75
REMARK   37  A    between atoms: C_77  and  C_83
REMARK   38  A    between atoms: C_79  and  O_81
REMARK   39  A    between atoms: O_81  and  C_82
REMARK   40  A    between atoms: O_90  and  C_91
REMARK                            x       y       z     vdW  Elec       q    Type
REMARK                         _______ _______ _______ _____ _____    ______ ____
ROOT
ATOM      1  C   UNL     1     149.040 166.401 188.943  0.00  0.00    +0.113 C 
ATOM      2  O   UNL     1     148.513 167.282 187.917  0.00  0.00    -0.458 OA
ATOM      3  C   UNL     1     147.976 168.440 188.387  0.00  0.00    +0.332 C 
ATOM      4  O   UNL     1     148.002 168.825 189.548  0.00  0.00    -0.246 OA
ATOM      5  C   UNL     1     147.293 169.239 187.365  0.00  0.00    +0.023 C 
ATOM      6  C   UNL     1     147.520 169.219 186.044  0.00  0.00    -0.052 C 
ATOM      7  C   UNL     1     146.859 170.159 185.143  0.00  0.00    -0.054 C 
ATOM      8  C   UNL     1     146.774 171.464 185.475  0.00  0.00    -0.079 C 
ATOM      9  C   UNL     1     146.074 172.571 184.744  0.00  0.00    -0.008 C 
ATOM     10  C   UNL     1     144.539 172.650 184.898  0.00  0.00    +0.061 C 
ATOM     11  C   UNL     1     143.903 171.967 186.116  0.00  0.00    +0.003 C 
ATOM     12  C   UNL     1     143.916 172.682 187.478  0.00  0.00    +0.080 C 
ATOM     13  O   UNL     1     143.265 171.744 188.360  0.00  0.00    -0.369 OA
ATOM     14  C   UNL     1     143.443 171.973 189.769  0.00  0.00    +0.065 C 
ATOM     15  C   UNL     1     142.703 173.254 190.190  0.00  0.00    +0.000 C 
ATOM     16  C   UNL     1     142.564 173.473 191.709  0.00  0.00    +0.066 C 
ATOM     17  C   UNL     1     141.637 174.692 191.990  0.00  0.00    +0.009 C 
ATOM     18  C   UNL     1     142.321 176.084 191.862  0.00  0.00    +0.063 C 
ATOM     19  C   UNL     1     141.404 177.164 191.238  0.00  0.00    -0.000 C 
ATOM     20  C   UNL     1     141.025 176.844 189.774  0.00  0.00    +0.064 C 
ATOM     21  C   UNL     1     141.128 178.073 188.830  0.00  0.00    +0.020 C 
ATOM     22  C   UNL     1     141.464 177.707 187.339  0.00  0.00    +0.113 C 
ATOM     23  O   UNL     1     141.292 176.302 187.081  0.00  0.00    -0.458 OA
ATOM     24  C   UNL     1     140.050 175.888 186.732  0.00  0.00    +0.332 C 
ATOM     25  O   UNL     1     139.111 176.593 186.398  0.00  0.00    -0.246 OA
ATOM     26  C   UNL     1     140.020 174.416 186.849  0.00  0.00    +0.023 C 
ATOM     27  C   UNL     1     138.882 173.746 186.615  0.00  0.00    -0.052 C 
ATOM     28  C   UNL     1     138.724 172.303 186.743  0.00  0.00    -0.054 C 
ATOM     29  C   UNL     1     139.237 171.629 187.793  0.00  0.00    -0.079 C 
ATOM     30  C   UNL     1     139.098 170.158 188.083  0.00  0.00    -0.008 C 
ATOM     31  C   UNL     1     140.258 169.335 187.489  0.00  0.00    +0.061 C 
ATOM     32  C   UNL     1     141.245 168.863 188.568  0.00  0.00    +0.003 C 
ATOM     33  C   UNL     1     142.554 168.303 187.985  0.00  0.00    +0.080 C 
ATOM     34  O   UNL     1     143.595 168.323 188.985  0.00  0.00    -0.369 OA
ATOM     35  C   UNL     1     143.618 167.176 189.857  0.00  0.00    +0.065 C 
ATOM     36  C   UNL     1     144.731 167.437 190.894  0.00  0.00    +0.000 C 
ATOM     37  C   UNL     1     144.973 166.289 191.897  0.00  0.00    +0.066 C 
ATOM     38  C   UNL     1     146.143 166.598 192.880  0.00  0.00    +0.009 C 
ATOM     39  C   UNL     1     147.544 166.783 192.233  0.00  0.00    +0.063 C 
ATOM     40  C   UNL     1     148.437 165.560 191.932  0.00  0.00    -0.000 C 
ATOM     41  C   UNL     1     148.128 164.690 190.705  0.00  0.00    +0.064 C 
ATOM     42  C   UNL     1     147.889 165.440 189.374  0.00  0.00    +0.020 C 
ATOM     43  C   UNL     1     143.899 165.919 189.018  0.00  0.00    -0.008 C 
ATOM     44  C   UNL     1     143.010 165.839 187.820  0.00  0.00    -0.083 C 
ATOM     45  C   UNL     1     142.404 166.937 187.356  0.00  0.00    -0.059 C 
ATOM     46  C   UNL     1     144.938 171.917 190.115  0.00  0.00    -0.008 C 
ATOM     47  C   UNL     1     145.755 172.754 189.185  0.00  0.00    -0.083 C 
ATOM     48  C   UNL     1     145.268 173.105 187.986  0.00  0.00    -0.059 C 
ATOM     49  H   UNL     1     149.283 167.009 189.821  0.00  0.00    +0.074 HD
ATOM     50  H   UNL     1     146.591 169.946 187.800  0.00  0.00    +0.069 HD
ATOM     51  H   UNL     1     148.212 168.508 185.601  0.00  0.00    +0.062 HD
ATOM     52  H   UNL     1     147.250 171.795 186.398  0.00  0.00    +0.058 HD
ATOM     53  H   UNL     1     146.320 172.522 183.675  0.00  0.00    +0.033 HD
ATOM     54  H   UNL     1     146.522 173.519 185.071  0.00  0.00    +0.033 HD
ATOM     55  H   UNL     1     144.111 172.162 184.012  0.00  0.00    +0.060 HD
ATOM     56  H   UNL     1     144.283 170.944 186.229  0.00  0.00    +0.032 HD
ATOM     57  H   UNL     1     142.839 171.818 185.876  0.00  0.00    +0.032 HD
ATOM     58  H   UNL     1     143.280 173.570 187.411  0.00  0.00    +0.064 HD
ATOM     59  H   UNL     1     142.960 171.123 190.263  0.00  0.00    +0.060 HD
ATOM     60  H   UNL     1     141.701 173.198 189.746  0.00  0.00    +0.032 HD
ATOM     61  H   UNL     1     143.175 174.121 189.726  0.00  0.00    +0.032 HD
ATOM     62  H   UNL     1     143.547 173.638 192.168  0.00  0.00    +0.060 HD
ATOM     63  H   UNL     1     140.810 174.627 191.273  0.00  0.00    +0.035 HD
ATOM     64  H   UNL     1     142.600 176.425 192.867  0.00  0.00    +0.060 HD
ATOM     65  H   UNL     1     141.960 178.108 191.275  0.00  0.00    +0.032 HD
ATOM     66  H   UNL     1     140.506 177.285 191.855  0.00  0.00    +0.032 HD
ATOM     67  H   UNL     1     141.694 176.064 189.415  0.00  0.00    +0.060 HD
ATOM     68  H   UNL     1     141.937 178.712 189.198  0.00  0.00    +0.036 HD
ATOM     69  H   UNL     1     140.782 178.251 186.670  0.00  0.00    +0.074 HD
ATOM     70  H   UNL     1     140.930 173.928 187.169  0.00  0.00    +0.069 HD
ATOM     71  H   UNL     1     137.993 174.294 186.301  0.00  0.00    +0.062 HD
ATOM     72  H   UNL     1     139.804 172.173 188.550  0.00  0.00    +0.058 HD
ATOM     73  H   UNL     1     139.050 170.031 189.173  0.00  0.00    +0.033 HD
ATOM     74  H   UNL     1     138.130 169.794 187.720  0.00  0.00    +0.033 HD
ATOM     75  H   UNL     1     140.795 169.919 186.732  0.00  0.00    +0.060 HD
ATOM     76  H   UNL     1     141.487 169.701 189.229  0.00  0.00    +0.032 HD
ATOM     77  H   UNL     1     140.769 168.101 189.200  0.00  0.00    +0.032 HD
ATOM     78  H   UNL     1     142.908 168.987 187.204  0.00  0.00    +0.064 HD
ATOM     79  H   UNL     1     142.650 167.098 190.368  0.00  0.00    +0.060 HD
ATOM     80  H   UNL     1     145.645 167.685 190.349  0.00  0.00    +0.032 HD
ATOM     81  H   UNL     1     144.462 168.350 191.444  0.00  0.00    +0.032 HD
ATOM     82  H   UNL     1     145.178 165.364 191.357  0.00  0.00    +0.060 HD
ATOM     83  H   UNL     1     145.885 167.558 193.352  0.00  0.00    +0.035 HD
ATOM     84  H   UNL     1     147.463 167.395 191.341  0.00  0.00    +0.060 HD
ATOM     85  H   UNL     1     148.471 164.918 192.822  0.00  0.00    +0.032 HD
ATOM     86  H   UNL     1     149.469 165.922 191.825  0.00  0.00    +0.032 HD
ATOM     87  H   UNL     1     148.969 163.998 190.575  0.00  0.00    +0.060 HD
ATOM     88  H   UNL     1     147.015 166.079 189.535  0.00  0.00    +0.036 HD
ATOM     89  H   UNL     1     143.768 165.015 189.619  0.00  0.00    +0.033 HD
ATOM     90  H   UNL     1     144.926 165.937 188.649  0.00  0.00    +0.033 HD
ATOM     91  H   UNL     1     142.883 164.883 187.322  0.00  0.00    +0.057 HD
ATOM     92  H   UNL     1     141.761 166.858 186.483  0.00  0.00    +0.059 HD
ATOM     93  H   UNL     1     145.293 170.883 190.025  0.00  0.00    +0.033 HD
ATOM     94  H   UNL     1     145.108 172.227 191.149  0.00  0.00    +0.033 HD
ATOM     95  H   UNL     1     146.736 173.088 189.508  0.00  0.00    +0.057 HD
ATOM     96  H   UNL     1     145.843 173.778 187.360  0.00  0.00    +0.059 HD
ENDROOT
BRANCH  28  97
ATOM     97  C   UNL     1     137.910 171.685 185.639  0.00  0.00    -0.040 C 
ATOM     98  H   UNL     1     136.965 171.259 185.986  0.00  0.00    +0.028 HD
ATOM     99  H   UNL     1     137.677 172.429 184.869  0.00  0.00    +0.028 HD
ATOM    100  H   UNL     1     138.468 170.866 185.171  0.00  0.00    +0.028 HD
ENDBRANCH  28  97
BRANCH  21 101
ATOM    101  C   UNL     1     139.875 178.961 188.881  0.00  0.00    -0.057 C 
ATOM    102  H   UNL     1     140.100 180.001 188.627  0.00  0.00    +0.023 HD
ATOM    103  H   UNL     1     139.440 178.954 189.887  0.00  0.00    +0.023 HD
ATOM    104  H   UNL     1     139.107 178.596 188.191  0.00  0.00    +0.023 HD
ENDBRANCH  21 101
BRANCH  42 105
ATOM    105  C   UNL     1     147.415 164.482 188.268  0.00  0.00    -0.057 C 
ATOM    106  H   UNL     1     147.999 163.555 188.288  0.00  0.00    +0.023 HD
ATOM    107  H   UNL     1     146.363 164.203 188.392  0.00  0.00    +0.023 HD
ATOM    108  H   UNL     1     147.561 164.904 187.271  0.00  0.00    +0.023 HD
ENDBRANCH  42 105
BRANCH  17 109
ATOM    109  C   UNL     1     140.947 174.613 193.364  0.00  0.00    -0.058 C 
ATOM    110  H   UNL     1     140.440 173.653 193.498  0.00  0.00    +0.023 HD
ATOM    111  H   UNL     1     140.210 175.413 193.489  0.00  0.00    +0.023 HD
ATOM    112  H   UNL     1     141.676 174.725 194.175  0.00  0.00    +0.023 HD
ENDBRANCH  17 109
BRANCH  38 113
ATOM    113  C   UNL     1     146.198 165.607 194.054  0.00  0.00    -0.058 C 
ATOM    114  H   UNL     1     145.241 165.557 194.582  0.00  0.00    +0.023 HD
ATOM    115  H   UNL     1     146.453 164.599 193.707  0.00  0.00    +0.023 HD
ATOM    116  H   UNL     1     146.969 165.895 194.775  0.00  0.00    +0.023 HD
ENDBRANCH  38 113
BRANCH   7 117
ATOM    117  C   UNL     1     146.292 169.561 183.889  0.00  0.00    -0.040 C 
ATOM    118  H   UNL     1     145.940 168.545 184.084  0.00  0.00    +0.028 HD
ATOM    119  H   UNL     1     147.026 169.504 183.082  0.00  0.00    +0.028 HD
ATOM    120  H   UNL     1     145.449 170.155 183.518  0.00  0.00    +0.028 HD
ENDBRANCH   7 117
BRANCH   1 121
ATOM    121  C   UNL     1     150.418 165.805 188.523  0.00  0.00    +0.020 C 
ATOM    122  H   UNL     1     150.466 164.802 188.966  0.00  0.00    +0.036 HD
BRANCH 121 123
ATOM    123  C   UNL     1     150.632 165.599 187.026  0.00  0.00    -0.057 C 
ATOM    124  H   UNL     1     151.688 165.642 186.753  0.00  0.00    +0.023 HD
ATOM    125  H   UNL     1     150.221 164.638 186.702  0.00  0.00    +0.023 HD
ATOM    126  H   UNL     1     150.086 166.342 186.442  0.00  0.00    +0.023 HD
ENDBRANCH 121 123
BRANCH 121 127
ATOM    127  C   UNL     1     151.587 166.628 189.161  0.00  0.00    +0.064 C 
ATOM    128  H   UNL     1     152.280 166.872 188.346  0.00  0.00    +0.060 HD
BRANCH 127 129
ATOM    129  C   UNL     1     152.382 165.955 190.330  0.00  0.00    -0.017 C 
ATOM    130  H   UNL     1     153.389 165.716 189.979  0.00  0.00    +0.032 HD
BRANCH 129 131
ATOM    131  C   UNL     1     152.551 166.978 191.467  0.00  0.00    -0.060 C 
ATOM    132  H   UNL     1     153.506 166.842 191.986  0.00  0.00    +0.023 HD
ATOM    133  H   UNL     1     151.748 166.876 192.206  0.00  0.00    +0.023 HD
ATOM    134  H   UNL     1     152.509 168.004 191.090  0.00  0.00    +0.023 HD
ENDBRANCH 129 131
BRANCH 129 135
ATOM    135  C   UNL     1     151.722 164.669 190.881  0.00  0.00    -0.046 C 
ATOM    136  H   UNL     1     150.648 164.676 190.676  0.00  0.00    +0.027 HD
ATOM    137  H   UNL     1     151.815 164.653 191.975  0.00  0.00    +0.027 HD
BRANCH 135 138
ATOM    138  C   UNL     1     152.291 163.338 190.358  0.00  0.00    -0.026 C 
ATOM    139  H   UNL     1     153.203 163.141 190.938  0.00  0.00    +0.029 HD
ATOM    140  H   UNL     1     152.611 163.449 189.315  0.00  0.00    +0.029 HD
BRANCH 138 143
ATOM    141  C   UNL     1     151.434 159.709 190.284  0.00  0.00    +0.059 C 
ATOM    142  O   UNL     1     152.146 160.936 190.485  0.00  0.00    -0.373 OA
ATOM    143  C   UNL     1     151.356 162.125 190.493  0.00  0.00    +0.061 C 
ATOM    144  C   UNL     1     150.334 162.114 189.353  0.00  0.00    -0.000 C 
ATOM    145  C   UNL     1     149.398 160.903 189.453  0.00  0.00    +0.063 C 
ATOM    146  C   UNL     1     149.925 159.858 190.435  0.00  0.00    -0.000 C 
ATOM    147  H   UNL     1     151.667 159.371 189.268  0.00  0.00    +0.059 HD
ATOM    148  H   UNL     1     150.834 162.191 191.454  0.00  0.00    +0.060 HD
ATOM    149  H   UNL     1     149.777 163.057 189.340  0.00  0.00    +0.032 HD
ATOM    150  H   UNL     1     150.876 162.036 188.401  0.00  0.00    +0.032 HD
ATOM    151  H   UNL     1     149.303 160.434 188.463  0.00  0.00    +0.060 HD
ATOM    152  H   UNL     1     149.414 158.902 190.266  0.00  0.00    +0.032 HD
ATOM    153  H   UNL     1     149.676 160.152 191.461  0.00  0.00    +0.032 HD
BRANCH 141 154
ATOM    154  C   UNL     1     151.985 158.684 191.267  0.00  0.00    -0.039 C 
ATOM    155  H   UNL     1     152.693 158.008 190.778  0.00  0.00    +0.025 HD
ATOM    156  H   UNL     1     152.494 159.182 192.098  0.00  0.00    +0.025 HD
ATOM    157  H   UNL     1     151.177 158.087 191.702  0.00  0.00    +0.025 HD
ENDBRANCH 141 154
BRANCH 145 158
ATOM    158  O   UNL     1     148.097 161.296 189.906  0.00  0.00    -0.380 OA
BRANCH 158 159
ATOM    159  C   UNL     1     147.324 160.211 190.405  0.00  0.00    +0.037 C 
ATOM    160  H   UNL     1     147.245 160.321 191.491  0.00  0.00    +0.052 HD
ATOM    161  H   UNL     1     146.316 160.211 189.982  0.00  0.00    +0.052 HD
ATOM    162  H   UNL     1     147.822 159.261 190.188  0.00  0.00    +0.052 HD
ENDBRANCH 158 159
ENDBRANCH 145 158
ENDBRANCH 138 143
ENDBRANCH 135 138
ENDBRANCH 129 135
ENDBRANCH 127 129
BRANCH 127 163
ATOM    163  O   UNL     1     151.048 167.886 189.587  0.00  0.00    -0.391 OA
ATOM    164  H   UNL     1     150.144 167.947 189.229  0.00  0.00    +0.210 HD
ENDBRANCH 127 163
ENDBRANCH 121 127
ENDBRANCH   1 121
BRANCH  41 165
ATOM    165  O   UNL     1     146.989 163.884 191.016  0.00  0.00    -0.391 OA
ATOM    166  H   UNL     1     146.909 163.212 190.318  0.00  0.00    +0.210 HD
ENDBRANCH  41 165
BRANCH  39 167
ATOM    167  O   UNL     1     148.323 167.583 193.155  0.00  0.00    -0.391 OA
ATOM    168  H   UNL     1     149.079 167.034 193.427  0.00  0.00    +0.210 HD
ENDBRANCH  39 167
BRANCH  31 169
ATOM    169  O   UNL     1     139.705 168.199 186.816  0.00  0.00    -0.391 OA
ATOM    170  H   UNL     1     138.981 168.524 186.248  0.00  0.00    +0.210 HD
ENDBRANCH  31 169
BRANCH  22 171
ATOM    171  C   UNL     1     142.918 178.142 186.910  0.00  0.00    +0.020 C 
ATOM    172  H   UNL     1     143.553 177.996 187.794  0.00  0.00    +0.036 HD
BRANCH 171 173
ATOM    173  C   UNL     1     143.380 177.165 185.807  0.00  0.00    -0.057 C 
ATOM    174  H   UNL     1     144.453 177.258 185.609  0.00  0.00    +0.023 HD
ATOM    175  H   UNL     1     143.182 176.124 186.080  0.00  0.00    +0.023 HD
ATOM    176  H   UNL     1     142.900 177.362 184.849  0.00  0.00    +0.023 HD
ENDBRANCH 171 173
BRANCH 171 177
ATOM    177  C   UNL     1     143.057 179.640 186.480  0.00  0.00    +0.064 C 
ATOM    178  H   UNL     1     143.694 179.688 185.588  0.00  0.00    +0.060 HD
BRANCH 177 179
ATOM    179  O   UNL     1     141.765 180.120 186.110  0.00  0.00    -0.391 OA
ATOM    180  H   UNL     1     141.446 180.737 186.801  0.00  0.00    +0.210 HD
ENDBRANCH 177 179
BRANCH 177 181
ATOM    181  C   UNL     1     143.606 180.661 187.529  0.00  0.00    -0.017 C 
ATOM    182  H   UNL     1     144.279 181.354 187.005  0.00  0.00    +0.032 HD
BRANCH 181 183
ATOM    183  C   UNL     1     142.530 181.501 188.216  0.00  0.00    -0.060 C 
ATOM    184  H   UNL     1     142.969 182.403 188.649  0.00  0.00    +0.023 HD
ATOM    185  H   UNL     1     142.078 180.984 189.067  0.00  0.00    +0.023 HD
ATOM    186  H   UNL     1     141.730 181.774 187.522  0.00  0.00    +0.023 HD
ENDBRANCH 181 183
BRANCH 181 187
ATOM    187  C   UNL     1     144.483 179.900 188.569  0.00  0.00    -0.046 C 
ATOM    188  H   UNL     1     145.430 179.615 188.095  0.00  0.00    +0.027 HD
ATOM    189  H   UNL     1     143.980 178.965 188.849  0.00  0.00    +0.027 HD
BRANCH 187 190
ATOM    190  C   UNL     1     144.806 180.692 189.844  0.00  0.00    -0.026 C 
ATOM    191  H   UNL     1     143.906 181.208 190.200  0.00  0.00    +0.029 HD
ATOM    192  H   UNL     1     145.118 179.982 190.621  0.00  0.00    +0.029 HD
BRANCH 190 193
ATOM    193  C   UNL     1     145.934 181.716 189.647  0.00  0.00    +0.061 C 
ATOM    194  O   UNL     1     147.185 181.068 189.900  0.00  0.00    -0.373 OA
ATOM    195  C   UNL     1     148.330 181.910 189.730  0.00  0.00    +0.059 C 
ATOM    196  C   UNL     1     148.243 183.149 190.626  0.00  0.00    -0.000 C 
ATOM    197  C   UNL     1     146.906 183.884 190.511  0.00  0.00    +0.063 C 
ATOM    198  C   UNL     1     145.749 182.890 190.611  0.00  0.00    -0.000 C 
ATOM    199  H   UNL     1     145.901 182.062 188.607  0.00  0.00    +0.060 HD
ATOM    200  H   UNL     1     149.184 181.317 190.082  0.00  0.00    +0.059 HD
ATOM    201  H   UNL     1     149.088 183.813 190.425  0.00  0.00    +0.032 HD
ATOM    202  H   UNL     1     148.339 182.813 191.667  0.00  0.00    +0.032 HD
ATOM    203  H   UNL     1     146.809 184.607 191.330  0.00  0.00    +0.060 HD
ATOM    204  H   UNL     1     144.799 183.395 190.402  0.00  0.00    +0.032 HD
ATOM    205  H   UNL     1     145.712 182.513 191.641  0.00  0.00    +0.032 HD
BRANCH 195 206
ATOM    206  C   UNL     1     148.601 182.215 188.259  0.00  0.00    -0.039 C 
ATOM    207  H   UNL     1     149.010 181.329 187.759  0.00  0.00    +0.025 HD
ATOM    208  H   UNL     1     149.319 183.034 188.157  0.00  0.00    +0.025 HD
ATOM    209  H   UNL     1     147.698 182.488 187.705  0.00  0.00    +0.025 HD
ENDBRANCH 195 206
BRANCH 197 210
ATOM    210  O   UNL     1     146.785 184.579 189.266  0.00  0.00    -0.380 OA
BRANCH 210 211
ATOM    211  C   UNL     1     147.622 185.724 189.171  0.00  0.00    +0.037 C 
ATOM    212  H   UNL     1     148.034 185.928 190.162  0.00  0.00    +0.052 HD
ATOM    213  H   UNL     1     148.451 185.533 188.484  0.00  0.00    +0.052 HD
ATOM    214  H   UNL     1     147.058 186.602 188.845  0.00  0.00    +0.052 HD
ENDBRANCH 210 211
ENDBRANCH 197 210
ENDBRANCH 190 193
ENDBRANCH 187 190
ENDBRANCH 181 187
ENDBRANCH 177 181
ENDBRANCH 171 177
ENDBRANCH  22 171
BRANCH  20 215
ATOM    215  O   UNL     1     139.718 176.268 189.745  0.00  0.00    -0.391 OA
ATOM    216  H   UNL     1     139.536 175.932 188.852  0.00  0.00    +0.210 HD
ENDBRANCH  20 215
BRANCH  18 217
ATOM    217  O   UNL     1     143.543 176.053 191.118  0.00  0.00    -0.391 OA
ATOM    218  H   UNL     1     144.194 176.576 191.623  0.00  0.00    +0.210 HD
ENDBRANCH  18 217
BRANCH  10 219
ATOM    219  O   UNL     1     144.148 174.023 184.824  0.00  0.00    -0.391 OA
ATOM    220  H   UNL     1     143.296 174.073 184.359  0.00  0.00    +0.210 HD
ENDBRANCH  10 219
BRANCH  37 221
ATOM    221  O   UNL     1     143.756 166.166 192.657  0.00  0.00    -0.379 OA
BRANCH 221 222
ATOM    222  C   UNL     1     143.298 167.399 193.195  0.00  0.00    +0.037 C 
ATOM    223  H   UNL     1     142.381 167.204 193.758  0.00  0.00    +0.052 HD
ATOM    224  H   UNL     1     144.041 167.808 193.884  0.00  0.00    +0.052 HD
ATOM    225  H   UNL     1     143.077 168.124 192.407  0.00  0.00    +0.052 HD
ENDBRANCH 221 222
ENDBRANCH  37 221
BRANCH  16 226
ATOM    226  O   UNL     1     141.948 172.289 192.245  0.00  0.00    -0.379 OA
BRANCH 226 227
ATOM    227  C   UNL     1     140.819 171.852 191.497  0.00  0.00    +0.037 C 
ATOM    228  H   UNL     1     140.094 171.417 192.190  0.00  0.00    +0.052 HD
ATOM    229  H   UNL     1     140.347 172.696 190.985  0.00  0.00    +0.052 HD
ATOM    230  H   UNL     1     141.109 171.087 190.770  0.00  0.00    +0.052 HD
ENDBRANCH 226 227
ENDBRANCH  16 226
TORSDOF 40
ENDMDL
MODEL 10
REMARK VINA RESULT:      -5.7      3.913     11.021
REMARK  Name = Swinholide A_conf3
REMARK  40 active torsions:
REMARK  status: ('A' for Active; 'I' for Inactive)
REMARK    1  A    between atoms: C_1  and  C_2
REMARK    2  A    between atoms: C_4  and  C_10
REMARK    3  A    between atoms: C_6  and  O_8
REMARK    4  A    between atoms: O_8  and  C_9
REMARK    5  A    between atoms: C_10  and  C_11
REMARK    6  A    between atoms: C_11  and  C_12
REMARK    7  A    between atoms: C_12  and  C_13
REMARK    8  A    between atoms: C_12  and  C_98
REMARK    9  A    between atoms: C_13  and  O_14
REMARK   10  A    between atoms: C_13  and  C_15
REMARK   11  A    between atoms: C_15  and  C_16
REMARK   12  A    between atoms: C_15  and  C_97
REMARK   13  A    between atoms: C_22  and  C_96
REMARK   14  A    between atoms: C_25  and  O_95
REMARK   15  A    between atoms: C_31  and  O_90
REMARK   16  A    between atoms: C_32  and  C_89
REMARK   17  A    between atoms: C_33  and  O_88
REMARK   18  A    between atoms: C_35  and  O_87
REMARK   19  A    between atoms: C_36  and  C_86
REMARK   20  A    between atoms: C_37  and  C_69
REMARK   21  A    between atoms: C_43  and  C_68
REMARK   22  A    between atoms: C_46  and  O_67
REMARK   23  A    between atoms: C_52  and  O_62
REMARK   24  A    between atoms: C_53  and  C_61
REMARK   25  A    between atoms: C_54  and  O_60
REMARK   26  A    between atoms: C_56  and  O_59
REMARK   27  A    between atoms: C_57  and  C_58
REMARK   28  A    between atoms: O_62  and  C_63
REMARK   29  A    between atoms: C_69  and  C_70
REMARK   30  A    between atoms: C_69  and  C_85
REMARK   31  A    between atoms: C_70  and  O_71
REMARK   32  A    between atoms: C_70  and  C_72
REMARK   33  A    between atoms: C_72  and  C_73
REMARK   34  A    between atoms: C_72  and  C_84
REMARK   35  A    between atoms: C_73  and  C_74
REMARK   36  A    between atoms: C_74  and  C_75
REMARK   37  A    between atoms: C_77  and  C_83
REMARK   38  A    between atoms: C_79  and  O_81
REMARK   39  A    between atoms: O_81  and  C_82
REMARK   40  A    between atoms: O_90  and  C_91
REMARK                            x       y       z     vdW  Elec       q    Type
REMARK                         _______ _______ _______ _____ _____    ______ ____
ROOT
ATOM      1  C   UNL     1     151.395 159.093 187.054  0.00  0.00    +0.113 C 
ATOM      2  O   UNL     1     151.441 160.478 186.622  0.00  0.00    -0.458 OA
ATOM      3  C   UNL     1     150.691 161.330 187.371  0.00  0.00    +0.332 C 
ATOM      4  O   UNL     1     150.095 161.047 188.402  0.00  0.00    -0.246 OA
ATOM      5  C   UNL     1     150.606 162.687 186.825  0.00  0.00    +0.023 C 
ATOM      6  C   UNL     1     151.486 163.283 186.008  0.00  0.00    -0.052 C 
ATOM      7  C   UNL     1     151.350 164.688 185.635  0.00  0.00    -0.054 C 
ATOM      8  C   UNL     1     151.053 165.609 186.575  0.00  0.00    -0.079 C 
ATOM      9  C   UNL     1     150.789 167.074 186.399  0.00  0.00    -0.008 C 
ATOM     10  C   UNL     1     149.395 167.475 185.866  0.00  0.00    +0.061 C 
ATOM     11  C   UNL     1     148.248 166.469 186.027  0.00  0.00    +0.003 C 
ATOM     12  C   UNL     1     147.523 166.356 187.378  0.00  0.00    +0.080 C 
ATOM     13  O   UNL     1     146.547 165.316 187.155  0.00  0.00    -0.369 OA
ATOM     14  C   UNL     1     145.959 164.738 188.333  0.00  0.00    +0.065 C 
ATOM     15  C   UNL     1     145.056 165.771 189.030  0.00  0.00    +0.000 C 
ATOM     16  C   UNL     1     144.139 165.214 190.137  0.00  0.00    +0.066 C 
ATOM     17  C   UNL     1     143.152 166.318 190.617  0.00  0.00    +0.009 C 
ATOM     18  C   UNL     1     143.746 167.336 191.635  0.00  0.00    +0.063 C 
ATOM     19  C   UNL     1     143.242 168.784 191.419  0.00  0.00    -0.000 C 
ATOM     20  C   UNL     1     143.692 169.370 190.061  0.00  0.00    +0.064 C 
ATOM     21  C   UNL     1     144.219 170.827 190.165  0.00  0.00    +0.020 C 
ATOM     22  C   UNL     1     145.295 171.196 189.081  0.00  0.00    +0.113 C 
ATOM     23  O   UNL     1     145.340 170.225 188.019  0.00  0.00    -0.458 OA
ATOM     24  C   UNL     1     144.477 170.401 186.989  0.00  0.00    +0.332 C 
ATOM     25  O   UNL     1     143.821 171.400 186.747  0.00  0.00    -0.246 OA
ATOM     26  C   UNL     1     144.452 169.146 186.210  0.00  0.00    +0.023 C 
ATOM     27  C   UNL     1     143.629 169.025 185.157  0.00  0.00    -0.052 C 
ATOM     28  C   UNL     1     143.487 167.824 184.346  0.00  0.00    -0.054 C 
ATOM     29  C   UNL     1     143.408 166.600 184.907  0.00  0.00    -0.079 C 
ATOM     30  C   UNL     1     143.199 165.287 184.198  0.00  0.00    -0.008 C 
ATOM     31  C   UNL     1     144.531 164.604 183.834  0.00  0.00    +0.061 C 
ATOM     32  C   UNL     1     144.834 163.403 184.743  0.00  0.00    +0.003 C 
ATOM     33  C   UNL     1     146.277 162.887 184.603  0.00  0.00    +0.080 C 
ATOM     34  O   UNL     1     146.645 162.114 185.764  0.00  0.00    -0.369 OA
ATOM     35  C   UNL     1     146.260 160.726 185.714  0.00  0.00    +0.065 C 
ATOM     36  C   UNL     1     146.660 160.111 187.071  0.00  0.00    +0.000 C 
ATOM     37  C   UNL     1     146.394 158.596 187.208  0.00  0.00    +0.066 C 
ATOM     38  C   UNL     1     146.870 158.033 188.581  0.00  0.00    +0.009 C 
ATOM     39  C   UNL     1     148.394 158.135 188.867  0.00  0.00    +0.063 C 
ATOM     40  C   UNL     1     149.363 157.047 188.355  0.00  0.00    -0.000 C 
ATOM     41  C   UNL     1     149.772 157.045 186.875  0.00  0.00    +0.064 C 
ATOM     42  C   UNL     1     150.228 158.399 186.286  0.00  0.00    +0.020 C 
ATOM     43  C   UNL     1     146.986 160.051 184.541  0.00  0.00    -0.008 C 
ATOM     44  C   UNL     1     146.853 160.835 183.277  0.00  0.00    -0.083 C 
ATOM     45  C   UNL     1     146.531 162.132 183.319  0.00  0.00    -0.059 C 
ATOM     46  C   UNL     1     147.057 164.113 189.205  0.00  0.00    -0.008 C 
ATOM     47  C   UNL     1     148.203 165.050 189.411  0.00  0.00    -0.083 C 
ATOM     48  C   UNL     1     148.396 166.078 188.572  0.00  0.00    -0.059 C 
ATOM     49  H   UNL     1     151.122 159.077 188.115  0.00  0.00    +0.074 HD
ATOM     50  H   UNL     1     149.752 163.234 187.218  0.00  0.00    +0.069 HD
ATOM     51  H   UNL     1     152.336 162.740 185.602  0.00  0.00    +0.062 HD
ATOM     52  H   UNL     1     150.967 165.281 187.611  0.00  0.00    +0.058 HD
ATOM     53  H   UNL     1     151.556 167.512 185.746  0.00  0.00    +0.033 HD
ATOM     54  H   UNL     1     150.963 167.561 187.367  0.00  0.00    +0.033 HD
ATOM     55  H   UNL     1     149.510 167.643 184.787  0.00  0.00    +0.060 HD
ATOM     56  H   UNL     1     148.556 165.473 185.685  0.00  0.00    +0.032 HD
ATOM     57  H   UNL     1     147.470 166.757 185.302  0.00  0.00    +0.032 HD
ATOM     58  H   UNL     1     146.978 167.288 187.560  0.00  0.00    +0.064 HD
ATOM     59  H   UNL     1     145.325 163.922 187.970  0.00  0.00    +0.060 HD
ATOM     60  H   UNL     1     144.433 166.222 188.246  0.00  0.00    +0.032 HD
ATOM     61  H   UNL     1     145.664 166.588 189.419  0.00  0.00    +0.032 HD
ATOM     62  H   UNL     1     144.733 164.849 190.984  0.00  0.00    +0.060 HD
ATOM     63  H   UNL     1     142.821 166.853 189.719  0.00  0.00    +0.035 HD
ATOM     64  H   UNL     1     143.448 167.027 192.645  0.00  0.00    +0.060 HD
ATOM     65  H   UNL     1     143.659 169.386 192.235  0.00  0.00    +0.032 HD
ATOM     66  H   UNL     1     142.150 168.811 191.512  0.00  0.00    +0.032 HD
ATOM     67  H   UNL     1     144.481 168.734 189.664  0.00  0.00    +0.060 HD
ATOM     68  H   UNL     1     144.692 170.943 191.146  0.00  0.00    +0.036 HD
ATOM     69  H   UNL     1     145.038 172.165 188.631  0.00  0.00    +0.074 HD
ATOM     70  H   UNL     1     145.083 168.338 186.554  0.00  0.00    +0.069 HD
ATOM     71  H   UNL     1     143.011 169.874 184.861  0.00  0.00    +0.062 HD
ATOM     72  H   UNL     1     143.476 166.505 185.992  0.00  0.00    +0.058 HD
ATOM     73  H   UNL     1     142.598 164.642 184.853  0.00  0.00    +0.033 HD
ATOM     74  H   UNL     1     142.576 165.437 183.309  0.00  0.00    +0.033 HD
ATOM     75  H   UNL     1     145.359 165.322 183.889  0.00  0.00    +0.060 HD
ATOM     76  H   UNL     1     144.663 163.685 185.786  0.00  0.00    +0.032 HD
ATOM     77  H   UNL     1     144.131 162.587 184.527  0.00  0.00    +0.032 HD
ATOM     78  H   UNL     1     146.956 163.748 184.618  0.00  0.00    +0.064 HD
ATOM     79  H   UNL     1     145.171 160.663 185.590  0.00  0.00    +0.060 HD
ATOM     80  H   UNL     1     147.713 160.344 187.247  0.00  0.00    +0.032 HD
ATOM     81  H   UNL     1     146.109 160.650 187.854  0.00  0.00    +0.032 HD
ATOM     82  H   UNL     1     146.888 158.061 186.397  0.00  0.00    +0.060 HD
ATOM     83  H   UNL     1     146.365 158.647 189.342  0.00  0.00    +0.035 HD
ATOM     84  H   UNL     1     148.763 159.111 188.570  0.00  0.00    +0.060 HD
ATOM     85  H   UNL     1     148.956 156.060 188.612  0.00  0.00    +0.032 HD
ATOM     86  H   UNL     1     150.285 157.118 188.949  0.00  0.00    +0.032 HD
ATOM     87  H   UNL     1     150.586 156.317 186.762  0.00  0.00    +0.060 HD
ATOM     88  H   UNL     1     149.372 159.076 186.375  0.00  0.00    +0.036 HD
ATOM     89  H   UNL     1     146.600 159.041 184.375  0.00  0.00    +0.033 HD
ATOM     90  H   UNL     1     148.055 159.975 184.755  0.00  0.00    +0.033 HD
ATOM     91  H   UNL     1     147.042 160.341 182.328  0.00  0.00    +0.057 HD
ATOM     92  H   UNL     1     146.439 162.685 182.389  0.00  0.00    +0.059 HD
ATOM     93  H   UNL     1     147.450 163.218 188.706  0.00  0.00    +0.033 HD
ATOM     94  H   UNL     1     146.654 163.793 190.168  0.00  0.00    +0.033 HD
ATOM     95  H   UNL     1     148.860 164.893 190.261  0.00  0.00    +0.057 HD
ATOM     96  H   UNL     1     149.184 166.791 188.786  0.00  0.00    +0.059 HD
ENDROOT
BRANCH  28  97
ATOM     97  C   UNL     1     143.391 168.101 182.869  0.00  0.00    -0.040 C 
ATOM     98  H   UNL     1     142.446 168.567 182.579  0.00  0.00    +0.028 HD
ATOM     99  H   UNL     1     144.202 168.764 182.548  0.00  0.00    +0.028 HD
ATOM    100  H   UNL     1     143.465 167.165 182.304  0.00  0.00    +0.028 HD
ENDBRANCH  28  97
BRANCH  21 101
ATOM    101  C   UNL     1     143.087 171.865 190.153  0.00  0.00    -0.057 C 
ATOM    102  H   UNL     1     142.128 171.421 189.868  0.00  0.00    +0.023 HD
ATOM    103  H   UNL     1     143.306 172.665 189.438  0.00  0.00    +0.023 HD
ATOM    104  H   UNL     1     142.971 172.330 191.138  0.00  0.00    +0.023 HD
ENDBRANCH  21 101
BRANCH  42 105
ATOM    105  C   UNL     1     150.437 158.308 184.765  0.00  0.00    -0.057 C 
ATOM    106  H   UNL     1     149.530 157.935 184.275  0.00  0.00    +0.023 HD
ATOM    107  H   UNL     1     150.663 159.285 184.324  0.00  0.00    +0.023 HD
ATOM    108  H   UNL     1     151.227 157.602 184.502  0.00  0.00    +0.023 HD
ENDBRANCH  42 105
BRANCH  17 109
ATOM    109  C   UNL     1     141.854 165.740 191.208  0.00  0.00    -0.058 C 
ATOM    110  H   UNL     1     141.047 166.478 191.192  0.00  0.00    +0.023 HD
ATOM    111  H   UNL     1     141.997 165.409 192.242  0.00  0.00    +0.023 HD
ATOM    112  H   UNL     1     141.521 164.864 190.639  0.00  0.00    +0.023 HD
ENDBRANCH  17 109
BRANCH  38 113
ATOM    113  C   UNL     1     146.348 156.610 188.842  0.00  0.00    -0.058 C 
ATOM    114  H   UNL     1     147.166 155.916 189.055  0.00  0.00    +0.023 HD
ATOM    115  H   UNL     1     145.653 156.594 189.689  0.00  0.00    +0.023 HD
ATOM    116  H   UNL     1     145.796 156.229 187.976  0.00  0.00    +0.023 HD
ENDBRANCH  38 113
BRANCH   7 117
ATOM    117  C   UNL     1     151.542 164.991 184.178  0.00  0.00    -0.040 C 
ATOM    118  H   UNL     1     152.222 164.263 183.730  0.00  0.00    +0.028 HD
ATOM    119  H   UNL     1     151.967 165.983 184.008  0.00  0.00    +0.028 HD
ATOM    120  H   UNL     1     150.588 164.951 183.641  0.00  0.00    +0.028 HD
ENDBRANCH   7 117
BRANCH   1 121
ATOM    121  C   UNL     1     152.814 158.447 187.038  0.00  0.00    +0.020 C 
ATOM    122  H   UNL     1     152.710 157.494 186.504  0.00  0.00    +0.036 HD
BRANCH 121 123
ATOM    123  C   UNL     1     153.893 159.220 186.283  0.00  0.00    -0.057 C 
ATOM    124  H   UNL     1     153.657 160.283 186.205  0.00  0.00    +0.023 HD
ATOM    125  H   UNL     1     154.866 159.108 186.772  0.00  0.00    +0.023 HD
ATOM    126  H   UNL     1     154.041 158.817 185.280  0.00  0.00    +0.023 HD
ENDBRANCH 121 123
BRANCH 121 127
ATOM    127  C   UNL     1     153.272 158.094 188.492  0.00  0.00    +0.064 C 
ATOM    128  H   UNL     1     152.988 157.049 188.665  0.00  0.00    +0.060 HD
BRANCH 127 129
ATOM    129  C   UNL     1     152.713 158.981 189.655  0.00  0.00    -0.017 C 
ATOM    130  H   UNL     1     151.693 159.283 189.408  0.00  0.00    +0.032 HD
BRANCH 129 131
ATOM    131  C   UNL     1     152.617 158.123 190.928  0.00  0.00    -0.060 C 
ATOM    132  H   UNL     1     153.393 157.351 190.948  0.00  0.00    +0.023 HD
ATOM    133  H   UNL     1     151.643 157.624 190.991  0.00  0.00    +0.023 HD
ATOM    134  H   UNL     1     152.720 158.735 191.830  0.00  0.00    +0.023 HD
ENDBRANCH 129 131
BRANCH 129 135
ATOM    135  C   UNL     1     153.556 160.246 189.942  0.00  0.00    -0.046 C 
ATOM    136  H   UNL     1     154.144 160.519 189.061  0.00  0.00    +0.027 HD
ATOM    137  H   UNL     1     154.289 160.023 190.730  0.00  0.00    +0.027 HD
BRANCH 135 138
ATOM    138  C   UNL     1     152.775 161.494 190.389  0.00  0.00    -0.026 C 
ATOM    139  H   UNL     1     152.745 161.465 191.487  0.00  0.00    +0.029 HD
ATOM    140  H   UNL     1     151.733 161.426 190.053  0.00  0.00    +0.029 HD
BRANCH 138 143
ATOM    141  C   UNL     1     152.650 165.055 189.286  0.00  0.00    +0.059 C 
ATOM    142  O   UNL     1     152.348 163.827 189.960  0.00  0.00    -0.373 OA
ATOM    143  C   UNL     1     153.379 162.839 189.954  0.00  0.00    +0.061 C 
ATOM    144  C   UNL     1     154.011 162.712 188.565  0.00  0.00    -0.000 C 
ATOM    145  C   UNL     1     154.608 164.046 188.098  0.00  0.00    +0.063 C 
ATOM    146  C   UNL     1     154.130 165.214 188.960  0.00  0.00    -0.000 C 
ATOM    147  H   UNL     1     152.070 165.056 188.356  0.00  0.00    +0.059 HD
ATOM    148  H   UNL     1     154.145 163.130 190.681  0.00  0.00    +0.060 HD
ATOM    149  H   UNL     1     154.758 161.912 188.566  0.00  0.00    +0.032 HD
ATOM    150  H   UNL     1     153.226 162.432 187.851  0.00  0.00    +0.032 HD
ATOM    151  H   UNL     1     154.307 164.234 187.058  0.00  0.00    +0.060 HD
ATOM    152  H   UNL     1     154.321 166.159 188.437  0.00  0.00    +0.032 HD
ATOM    153  H   UNL     1     154.717 165.260 189.884  0.00  0.00    +0.032 HD
BRANCH 141 154
ATOM    154  C   UNL     1     152.155 166.200 190.160  0.00  0.00    -0.039 C 
ATOM    155  H   UNL     1     151.137 166.495 189.888  0.00  0.00    +0.025 HD
ATOM    156  H   UNL     1     152.164 165.910 191.216  0.00  0.00    +0.025 HD
ATOM    157  H   UNL     1     152.808 167.074 190.065  0.00  0.00    +0.025 HD
ENDBRANCH 141 154
BRANCH 145 158
ATOM    158  O   UNL     1     156.038 164.021 188.169  0.00  0.00    -0.380 OA
BRANCH 158 159
ATOM    159  C   UNL     1     156.564 164.836 189.210  0.00  0.00    +0.037 C 
ATOM    160  H   UNL     1     155.782 164.967 189.965  0.00  0.00    +0.052 HD
ATOM    161  H   UNL     1     157.430 164.368 189.685  0.00  0.00    +0.052 HD
ATOM    162  H   UNL     1     156.836 165.820 188.818  0.00  0.00    +0.052 HD
ENDBRANCH 158 159
ENDBRANCH 145 158
ENDBRANCH 138 143
ENDBRANCH 135 138
ENDBRANCH 129 135
ENDBRANCH 127 129
BRANCH 127 163
ATOM    163  O   UNL     1     154.706 158.103 188.507  0.00  0.00    -0.391 OA
ATOM    164  H   UNL     1     155.000 157.190 188.342  0.00  0.00    +0.210 HD
ENDBRANCH 127 163
ENDBRANCH 121 127
ENDBRANCH   1 121
BRANCH  41 165
ATOM    165  O   UNL     1     148.671 156.535 186.118  0.00  0.00    -0.391 OA
ATOM    166  H   UNL     1     148.817 155.581 185.999  0.00  0.00    +0.210 HD
ENDBRANCH  41 165
BRANCH  39 167
ATOM    167  O   UNL     1     148.548 158.108 190.307  0.00  0.00    -0.391 OA
ATOM    168  H   UNL     1     147.650 158.094 190.681  0.00  0.00    +0.210 HD
ENDBRANCH  39 167
BRANCH  31 169
ATOM    169  O   UNL     1     144.455 164.168 182.473  0.00  0.00    -0.391 OA
ATOM    170  H   UNL     1     145.345 163.860 182.219  0.00  0.00    +0.210 HD
ENDBRANCH  31 169
BRANCH  22 171
ATOM    171  C   UNL     1     146.741 171.377 189.683  0.00  0.00    +0.020 C 
ATOM    172  H   UNL     1     147.432 171.346 188.830  0.00  0.00    +0.036 HD
BRANCH 171 173
ATOM    173  C   UNL     1     146.802 172.784 190.314  0.00  0.00    -0.057 C 
ATOM    174  H   UNL     1     145.811 173.244 190.372  0.00  0.00    +0.023 HD
ATOM    175  H   UNL     1     147.214 172.756 191.328  0.00  0.00    +0.023 HD
ATOM    176  H   UNL     1     147.400 173.478 189.725  0.00  0.00    +0.023 HD
ENDBRANCH 171 173
BRANCH 171 177
ATOM    177  C   UNL     1     147.184 170.253 190.679  0.00  0.00    +0.064 C 
ATOM    178  H   UNL     1     146.457 170.211 191.500  0.00  0.00    +0.060 HD
BRANCH 177 179
ATOM    179  O   UNL     1     147.130 169.003 189.994  0.00  0.00    -0.391 OA
ATOM    180  H   UNL     1     147.937 168.905 189.447  0.00  0.00    +0.210 HD
ENDBRANCH 177 179
BRANCH 177 181
ATOM    181  C   UNL     1     148.616 170.338 191.299  0.00  0.00    -0.017 C 
ATOM    182  H   UNL     1     149.241 170.941 190.626  0.00  0.00    +0.032 HD
BRANCH 181 183
ATOM    183  C   UNL     1     148.670 170.990 192.679  0.00  0.00    -0.060 C 
ATOM    184  H   UNL     1     148.622 170.229 193.463  0.00  0.00    +0.023 HD
ATOM    185  H   UNL     1     147.805 171.631 192.872  0.00  0.00    +0.023 HD
ATOM    186  H   UNL     1     149.573 171.593 192.803  0.00  0.00    +0.023 HD
ENDBRANCH 181 183
BRANCH 181 187
ATOM    187  C   UNL     1     149.246 168.911 191.320  0.00  0.00    -0.046 C 
ATOM    188  H   UNL     1     149.635 168.680 190.320  0.00  0.00    +0.027 HD
ATOM    189  H   UNL     1     148.460 168.173 191.528  0.00  0.00    +0.027 HD
BRANCH 187 190
ATOM    190  C   UNL     1     150.385 168.723 192.332  0.00  0.00    -0.026 C 
ATOM    191  H   UNL     1     151.345 168.668 191.806  0.00  0.00    +0.029 HD
ATOM    192  H   UNL     1     150.409 169.601 192.990  0.00  0.00    +0.029 HD
BRANCH 190 193
ATOM    193  C   UNL     1     150.212 167.471 193.206  0.00  0.00    +0.061 C 
ATOM    194  O   UNL     1     151.498 166.876 193.408  0.00  0.00    -0.373 OA
ATOM    195  C   UNL     1     151.482 165.703 194.228  0.00  0.00    +0.059 C 
ATOM    196  C   UNL     1     150.546 164.637 193.651  0.00  0.00    -0.000 C 
ATOM    197  C   UNL     1     149.156 165.176 193.307  0.00  0.00    +0.063 C 
ATOM    198  C   UNL     1     149.278 166.475 192.512  0.00  0.00    -0.000 C 
ATOM    199  H   UNL     1     149.794 167.784 194.169  0.00  0.00    +0.060 HD
ATOM    200  H   UNL     1     152.501 165.298 194.180  0.00  0.00    +0.059 HD
ATOM    201  H   UNL     1     150.492 163.782 194.331  0.00  0.00    +0.032 HD
ATOM    202  H   UNL     1     150.993 164.275 192.714  0.00  0.00    +0.032 HD
ATOM    203  H   UNL     1     148.618 164.445 192.689  0.00  0.00    +0.060 HD
ATOM    204  H   UNL     1     148.289 166.928 192.375  0.00  0.00    +0.032 HD
ATOM    205  H   UNL     1     149.678 166.232 191.519  0.00  0.00    +0.032 HD
BRANCH 195 206
ATOM    206  C   UNL     1     151.225 166.037 195.696  0.00  0.00    -0.039 C 
ATOM    207  H   UNL     1     150.431 165.395 196.094  0.00  0.00    +0.025 HD
ATOM    208  H   UNL     1     150.918 167.081 195.810  0.00  0.00    +0.025 HD
ATOM    209  H   UNL     1     152.100 165.872 196.331  0.00  0.00    +0.025 HD
ENDBRANCH 195 206
BRANCH 197 210
ATOM    210  O   UNL     1     148.383 165.446 194.480  0.00  0.00    -0.380 OA
BRANCH 210 211
ATOM    211  C   UNL     1     147.039 165.813 194.202  0.00  0.00    +0.037 C 
ATOM    212  H   UNL     1     146.948 165.987 193.127  0.00  0.00    +0.052 HD
ATOM    213  H   UNL     1     146.358 165.004 194.480  0.00  0.00    +0.052 HD
ATOM    214  H   UNL     1     146.762 166.733 194.724  0.00  0.00    +0.052 HD
ENDBRANCH 210 211
ENDBRANCH 197 210
ENDBRANCH 190 193
ENDBRANCH 187 190
ENDBRANCH 181 187
ENDBRANCH 177 181
ENDBRANCH 171 177
ENDBRANCH  22 171
BRANCH  20 215
ATOM    215  O   UNL     1     142.615 169.267 189.128  0.00  0.00    -0.391 OA
ATOM    216  H   UNL     1     141.995 170.000 189.271  0.00  0.00    +0.210 HD
ENDBRANCH  20 215
BRANCH  18 217
ATOM    217  O   UNL     1     145.176 167.359 191.650  0.00  0.00    -0.391 OA
ATOM    218  H   UNL     1     145.453 168.106 191.086  0.00  0.00    +0.210 HD
ENDBRANCH  18 217
BRANCH  10 219
ATOM    219  O   UNL     1     149.044 168.740 186.431  0.00  0.00    -0.391 OA
ATOM    220  H   UNL     1     148.546 169.244 185.764  0.00  0.00    +0.210 HD
ENDBRANCH  10 219
BRANCH  37 221
ATOM    221  O   UNL     1     144.966 158.438 187.117  0.00  0.00    -0.379 OA
BRANCH 221 222
ATOM    222  C   UNL     1     144.239 159.427 187.834  0.00  0.00    +0.037 C 
ATOM    223  H   UNL     1     144.824 159.707 188.715  0.00  0.00    +0.052 HD
ATOM    224  H   UNL     1     144.106 160.318 187.215  0.00  0.00    +0.052 HD
ATOM    225  H   UNL     1     143.267 159.051 188.166  0.00  0.00    +0.052 HD
ENDBRANCH 221 222
ENDBRANCH  37 221
BRANCH  16 226
ATOM    226  O   UNL     1     143.384 164.140 189.550  0.00  0.00    -0.379 OA
BRANCH 226 227
ATOM    227  C   UNL     1     142.776 164.489 188.312  0.00  0.00    +0.037 C 
ATOM    228  H   UNL     1     142.305 163.595 187.895  0.00  0.00    +0.052 HD
ATOM    229  H   UNL     1     142.003 165.249 188.463  0.00  0.00    +0.052 HD
ATOM    230  H   UNL     1     143.524 164.852 187.601  0.00  0.00    +0.052 HD
ENDBRANCH 226 227
ENDBRANCH  16 226
TORSDOF 40
ENDMDL
