MODEL 1
REMARK VINA RESULT:      -4.9      0.000      0.000
REMARK  Name = Swinholide A_conf1
REMARK  40 active torsions:
REMARK  status: ('A' for Active; 'I' for Inactive)
REMARK    1  A    between atoms: C_1  and  C_2
REMARK    2  A    between atoms: C_4  and  C_10
REMARK    3  A    between atoms: C_6  and  O_8
REMARK    4  A    between atoms: O_8  and  C_9
REMARK    5  A    between atoms: C_10  and  C_11
REMARK    6  A    between atoms: C_11  and  C_12
REMARK    7  A    between atoms: C_12  and  C_13
REMARK    8  A    between atoms: C_12  and  C_98
REMARK    9  A    between atoms: C_13  and  O_14
REMARK   10  A    between atoms: C_13  and  C_15
REMARK   11  A    between atoms: C_15  and  C_16
REMARK   12  A    between atoms: C_15  and  C_97
REMARK   13  A    between atoms: C_22  and  C_96
REMARK   14  A    between atoms: C_25  and  O_95
REMARK   15  A    between atoms: C_31  and  O_90
REMARK   16  A    between atoms: C_32  and  C_89
REMARK   17  A    between atoms: C_33  and  O_88
REMARK   18  A    between atoms: C_35  and  O_87
REMARK   19  A    between atoms: C_36  and  C_86
REMARK   20  A    between atoms: C_37  and  C_69
REMARK   21  A    between atoms: C_43  and  C_68
REMARK   22  A    between atoms: C_46  and  O_67
REMARK   23  A    between atoms: C_52  and  O_62
REMARK   24  A    between atoms: C_53  and  C_61
REMARK   25  A    between atoms: C_54  and  O_60
REMARK   26  A    between atoms: C_56  and  O_59
REMARK   27  A    between atoms: C_57  and  C_58
REMARK   28  A    between atoms: O_62  and  C_63
REMARK   29  A    between atoms: C_69  and  C_70
REMARK   30  A    between atoms: C_69  and  C_85
REMARK   31  A    between atoms: C_70  and  O_71
REMARK   32  A    between atoms: C_70  and  C_72
REMARK   33  A    between atoms: C_72  and  C_73
REMARK   34  A    between atoms: C_72  and  C_84
REMARK   35  A    between atoms: C_73  and  C_74
REMARK   36  A    between atoms: C_74  and  C_75
REMARK   37  A    between atoms: C_77  and  C_83
REMARK   38  A    between atoms: C_79  and  O_81
REMARK   39  A    between atoms: O_81  and  C_82
REMARK   40  A    between atoms: O_90  and  C_91
REMARK                            x       y       z     vdW  Elec       q    Type
REMARK                         _______ _______ _______ _____ _____    ______ ____
ROOT
ATOM      1  C   UNL     1     146.775 167.918 184.143  0.00  0.00    +0.113 C 
ATOM      2  O   UNL     1     146.562 166.488 183.983  0.00  0.00    -0.458 OA
ATOM      3  C   UNL     1     146.677 166.006 182.715  0.00  0.00    +0.332 C 
ATOM      4  O   UNL     1     146.896 166.668 181.707  0.00  0.00    -0.246 OA
ATOM      5  C   UNL     1     146.503 164.548 182.637  0.00  0.00    +0.023 C 
ATOM      6  C   UNL     1     146.716 163.700 183.655  0.00  0.00    -0.052 C 
ATOM      7  C   UNL     1     146.677 162.245 183.545  0.00  0.00    -0.054 C 
ATOM      8  C   UNL     1     147.253 161.602 182.508  0.00  0.00    -0.079 C 
ATOM      9  C   UNL     1     147.472 160.114 182.399  0.00  0.00    -0.008 C 
ATOM     10  C   UNL     1     148.734 159.707 181.613  0.00  0.00    +0.061 C 
ATOM     11  C   UNL     1     150.048 160.441 181.915  0.00  0.00    +0.003 C 
ATOM     12  C   UNL     1     150.725 160.210 183.279  0.00  0.00    +0.080 C 
ATOM     13  O   UNL     1     152.087 160.663 183.076  0.00  0.00    -0.369 OA
ATOM     14  C   UNL     1     152.803 161.107 184.241  0.00  0.00    +0.065 C 
ATOM     15  C   UNL     1     153.117 159.925 185.182  0.00  0.00    +0.000 C 
ATOM     16  C   UNL     1     154.025 160.304 186.372  0.00  0.00    +0.066 C 
ATOM     17  C   UNL     1     154.227 159.070 187.305  0.00  0.00    +0.009 C 
ATOM     18  C   UNL     1     153.783 159.342 188.766  0.00  0.00    +0.063 C 
ATOM     19  C   UNL     1     152.263 159.575 188.907  0.00  0.00    -0.000 C 
ATOM     20  C   UNL     1     151.831 159.614 190.388  0.00  0.00    +0.064 C 
ATOM     21  C   UNL     1     150.290 159.655 190.630  0.00  0.00    +0.020 C 
ATOM     22  C   UNL     1     149.575 160.866 189.953  0.00  0.00    +0.113 C 
ATOM     23  O   UNL     1     150.158 162.073 190.511  0.00  0.00    -0.458 OA
ATOM     24  C   UNL     1     150.509 163.043 189.625  0.00  0.00    +0.332 C 
ATOM     25  O   UNL     1     150.277 163.042 188.428  0.00  0.00    -0.246 OA
ATOM     26  C   UNL     1     151.192 164.136 190.352  0.00  0.00    +0.023 C 
ATOM     27  C   UNL     1     151.659 165.188 189.663  0.00  0.00    -0.052 C 
ATOM     28  C   UNL     1     152.326 166.355 190.228  0.00  0.00    -0.054 C 
ATOM     29  C   UNL     1     151.774 167.060 191.237  0.00  0.00    -0.079 C 
ATOM     30  C   UNL     1     152.316 168.302 191.888  0.00  0.00    -0.008 C 
ATOM     31  C   UNL     1     151.598 169.614 191.489  0.00  0.00    +0.061 C 
ATOM     32  C   UNL     1     150.264 169.821 192.238  0.00  0.00    +0.003 C 
ATOM     33  C   UNL     1     149.673 171.237 192.056  0.00  0.00    +0.080 C 
ATOM     34  O   UNL     1     148.980 171.367 190.804  0.00  0.00    -0.369 OA
ATOM     35  C   UNL     1     147.543 171.208 190.835  0.00  0.00    +0.065 C 
ATOM     36  C   UNL     1     147.066 171.492 189.399  0.00  0.00    +0.000 C 
ATOM     37  C   UNL     1     145.567 171.331 189.052  0.00  0.00    +0.066 C 
ATOM     38  C   UNL     1     145.074 169.863 189.235  0.00  0.00    +0.009 C 
ATOM     39  C   UNL     1     144.258 169.318 188.029  0.00  0.00    +0.063 C 
ATOM     40  C   UNL     1     144.910 169.568 186.660  0.00  0.00    -0.000 C 
ATOM     41  C   UNL     1     144.638 168.433 185.654  0.00  0.00    +0.064 C 
ATOM     42  C   UNL     1     145.410 168.673 184.323  0.00  0.00    +0.020 C 
ATOM     43  C   UNL     1     146.902 172.157 191.857  0.00  0.00    -0.008 C 
ATOM     44  C   UNL     1     147.582 172.060 193.183  0.00  0.00    -0.083 C 
ATOM     45  C   UNL     1     148.847 171.639 193.255  0.00  0.00    -0.059 C 
ATOM     46  C   UNL     1     152.036 162.278 184.878  0.00  0.00    -0.008 C 
ATOM     47  C   UNL     1     150.617 161.895 185.140  0.00  0.00    -0.083 C 
ATOM     48  C   UNL     1     150.040 160.925 184.419  0.00  0.00    -0.059 C 
ATOM     49  H   UNL     1     147.181 168.314 183.200  0.00  0.00    +0.074 HD
ATOM     50  H   UNL     1     146.268 164.189 181.640  0.00  0.00    +0.069 HD
ATOM     51  H   UNL     1     146.985 164.070 184.642  0.00  0.00    +0.062 HD
ATOM     52  H   UNL     1     147.675 162.188 181.692  0.00  0.00    +0.058 HD
ATOM     53  H   UNL     1     147.499 159.633 183.383  0.00  0.00    +0.033 HD
ATOM     54  H   UNL     1     146.603 159.677 181.888  0.00  0.00    +0.033 HD
ATOM     55  H   UNL     1     148.511 159.879 180.552  0.00  0.00    +0.060 HD
ATOM     56  H   UNL     1     149.935 161.519 181.742  0.00  0.00    +0.032 HD
ATOM     57  H   UNL     1     150.767 160.117 181.148  0.00  0.00    +0.032 HD
ATOM     58  H   UNL     1     150.776 159.138 183.500  0.00  0.00    +0.064 HD
ATOM     59  H   UNL     1     153.754 161.502 183.862  0.00  0.00    +0.060 HD
ATOM     60  H   UNL     1     153.612 159.148 184.582  0.00  0.00    +0.032 HD
ATOM     61  H   UNL     1     152.190 159.473 185.556  0.00  0.00    +0.032 HD
ATOM     62  H   UNL     1     153.544 161.118 186.923  0.00  0.00    +0.060 HD
ATOM     63  H   UNL     1     153.590 158.248 186.948  0.00  0.00    +0.035 HD
ATOM     64  H   UNL     1     154.054 158.473 189.377  0.00  0.00    +0.060 HD
ATOM     65  H   UNL     1     152.009 160.535 188.444  0.00  0.00    +0.032 HD
ATOM     66  H   UNL     1     151.723 158.780 188.379  0.00  0.00    +0.032 HD
ATOM     67  H   UNL     1     152.224 158.721 190.890  0.00  0.00    +0.060 HD
ATOM     68  H   UNL     1     150.171 159.766 191.716  0.00  0.00    +0.036 HD
ATOM     69  H   UNL     1     149.786 160.796 188.880  0.00  0.00    +0.074 HD
ATOM     70  H   UNL     1     151.295 164.046 191.425  0.00  0.00    +0.069 HD
ATOM     71  H   UNL     1     151.550 165.204 188.578  0.00  0.00    +0.062 HD
ATOM     72  H   UNL     1     150.834 166.715 191.664  0.00  0.00    +0.058 HD
ATOM     73  H   UNL     1     152.263 168.173 192.978  0.00  0.00    +0.033 HD
ATOM     74  H   UNL     1     153.390 168.403 191.692  0.00  0.00    +0.033 HD
ATOM     75  H   UNL     1     151.425 169.653 190.408  0.00  0.00    +0.060 HD
ATOM     76  H   UNL     1     150.457 169.653 193.306  0.00  0.00    +0.032 HD
ATOM     77  H   UNL     1     149.542 169.065 191.909  0.00  0.00    +0.032 HD
ATOM     78  H   UNL     1     150.488 171.969 192.008  0.00  0.00    +0.064 HD
ATOM     79  H   UNL     1     147.334 170.166 191.099  0.00  0.00    +0.060 HD
ATOM     80  H   UNL     1     147.643 170.846 188.720  0.00  0.00    +0.032 HD
ATOM     81  H   UNL     1     147.385 172.509 189.136  0.00  0.00    +0.032 HD
ATOM     82  H   UNL     1     145.486 171.597 187.994  0.00  0.00    +0.060 HD
ATOM     83  H   UNL     1     145.960 169.221 189.281  0.00  0.00    +0.035 HD
ATOM     84  H   UNL     1     144.151 168.236 188.186  0.00  0.00    +0.060 HD
ATOM     85  H   UNL     1     144.508 170.501 186.240  0.00  0.00    +0.032 HD
ATOM     86  H   UNL     1     145.981 169.707 186.780  0.00  0.00    +0.032 HD
ATOM     87  H   UNL     1     144.912 167.462 186.076  0.00  0.00    +0.060 HD
ATOM     88  H   UNL     1     145.638 169.746 184.260  0.00  0.00    +0.036 HD
ATOM     89  H   UNL     1     145.842 171.919 191.991  0.00  0.00    +0.033 HD
ATOM     90  H   UNL     1     146.973 173.198 191.522  0.00  0.00    +0.033 HD
ATOM     91  H   UNL     1     147.045 172.379 194.071  0.00  0.00    +0.057 HD
ATOM     92  H   UNL     1     149.340 171.609 194.225  0.00  0.00    +0.059 HD
ATOM     93  H   UNL     1     152.026 163.133 184.189  0.00  0.00    +0.033 HD
ATOM     94  H   UNL     1     152.514 162.615 185.800  0.00  0.00    +0.033 HD
ATOM     95  H   UNL     1     150.071 162.402 185.931  0.00  0.00    +0.057 HD
ATOM     96  H   UNL     1     149.029 160.624 184.671  0.00  0.00    +0.059 HD
ENDROOT
BRANCH  28  97
ATOM     97  C   UNL     1     153.596 166.729 189.507  0.00  0.00    -0.040 C 
ATOM     98  H   UNL     1     154.172 167.461 190.085  0.00  0.00    +0.028 HD
ATOM     99  H   UNL     1     153.358 167.174 188.534  0.00  0.00    +0.028 HD
ATOM    100  H   UNL     1     154.261 165.880 189.333  0.00  0.00    +0.028 HD
ENDBRANCH  28  97
BRANCH  21 101
ATOM    101  C   UNL     1     149.668 158.314 190.226  0.00  0.00    -0.057 C 
ATOM    102  H   UNL     1     149.357 158.312 189.176  0.00  0.00    +0.023 HD
ATOM    103  H   UNL     1     148.789 158.084 190.837  0.00  0.00    +0.023 HD
ATOM    104  H   UNL     1     150.375 157.490 190.373  0.00  0.00    +0.023 HD
ENDBRANCH  21 101
BRANCH  42 105
ATOM    105  C   UNL     1     144.512 168.384 183.096  0.00  0.00    -0.057 C 
ATOM    106  H   UNL     1     144.881 168.904 182.205  0.00  0.00    +0.023 HD
ATOM    107  H   UNL     1     144.463 167.311 182.876  0.00  0.00    +0.023 HD
ATOM    108  H   UNL     1     143.490 168.744 183.262  0.00  0.00    +0.023 HD
ENDBRANCH  42 105
BRANCH  17 109
ATOM    109  C   UNL     1     155.664 158.528 187.287  0.00  0.00    -0.058 C 
ATOM    110  H   UNL     1     155.847 157.819 188.100  0.00  0.00    +0.023 HD
ATOM    111  H   UNL     1     155.866 158.008 186.344  0.00  0.00    +0.023 HD
ATOM    112  H   UNL     1     156.390 159.345 187.369  0.00  0.00    +0.023 HD
ENDBRANCH  17 109
BRANCH  38 113
ATOM    113  C   UNL     1     144.281 169.645 190.536  0.00  0.00    -0.058 C 
ATOM    114  H   UNL     1     144.929 169.635 191.420  0.00  0.00    +0.023 HD
ATOM    115  H   UNL     1     143.730 168.700 190.513  0.00  0.00    +0.023 HD
ATOM    116  H   UNL     1     143.550 170.449 190.682  0.00  0.00    +0.023 HD
ENDBRANCH  38 113
BRANCH   7 117
ATOM    117  C   UNL     1     146.050 161.558 184.725  0.00  0.00    -0.040 C 
ATOM    118  H   UNL     1     146.738 160.823 185.156  0.00  0.00    +0.028 HD
ATOM    119  H   UNL     1     145.136 161.044 184.420  0.00  0.00    +0.028 HD
ATOM    120  H   UNL     1     145.797 162.253 185.530  0.00  0.00    +0.028 HD
ENDBRANCH   7 117
BRANCH   1 121
ATOM    121  C   UNL     1     147.957 168.147 185.156  0.00  0.00    +0.020 C 
ATOM    122  H   UNL     1     148.860 168.050 184.533  0.00  0.00    +0.036 HD
BRANCH 121 123
ATOM    123  C   UNL     1     147.902 169.600 185.663  0.00  0.00    -0.057 C 
ATOM    124  H   UNL     1     148.888 169.944 185.981  0.00  0.00    +0.023 HD
ATOM    125  H   UNL     1     147.215 169.721 186.503  0.00  0.00    +0.023 HD
ATOM    126  H   UNL     1     147.596 170.299 184.877  0.00  0.00    +0.023 HD
ENDBRANCH 121 123
BRANCH 121 127
ATOM    127  C   UNL     1     148.143 167.084 186.293  0.00  0.00    +0.064 C 
ATOM    128  H   UNL     1     147.851 166.113 185.904  0.00  0.00    +0.060 HD
BRANCH 127 129
ATOM    129  C   UNL     1     147.393 167.283 187.653  0.00  0.00    -0.017 C 
ATOM    130  H   UNL     1     147.012 168.313 187.678  0.00  0.00    +0.032 HD
BRANCH 129 131
ATOM    131  C   UNL     1     146.192 166.374 187.907  0.00  0.00    -0.060 C 
ATOM    132  H   UNL     1     146.119 166.107 188.965  0.00  0.00    +0.023 HD
ATOM    133  H   UNL     1     145.258 166.829 187.569  0.00  0.00    +0.023 HD
ATOM    134  H   UNL     1     146.305 165.423 187.368  0.00  0.00    +0.023 HD
ENDBRANCH 129 131
BRANCH 129 135
ATOM    135  C   UNL     1     148.369 167.120 188.856  0.00  0.00    -0.046 C 
ATOM    136  H   UNL     1     148.380 168.042 189.449  0.00  0.00    +0.027 HD
ATOM    137  H   UNL     1     149.386 167.009 188.473  0.00  0.00    +0.027 HD
BRANCH 135 138
ATOM    138  C   UNL     1     148.074 165.918 189.754  0.00  0.00    -0.026 C 
ATOM    139  H   UNL     1     148.922 165.229 189.725  0.00  0.00    +0.029 HD
ATOM    140  H   UNL     1     147.222 165.360 189.356  0.00  0.00    +0.029 HD
BRANCH 138 143
ATOM    141  C   UNL     1     148.337 165.721 193.472  0.00  0.00    +0.059 C 
ATOM    142  O   UNL     1     148.375 165.347 192.086  0.00  0.00    -0.373 OA
ATOM    143  C   UNL     1     147.784 166.312 191.212  0.00  0.00    +0.061 C 
ATOM    144  C   UNL     1     146.282 166.395 191.489  0.00  0.00    -0.000 C 
ATOM    145  C   UNL     1     145.936 166.165 192.966  0.00  0.00    +0.063 C 
ATOM    146  C   UNL     1     147.117 166.566 193.839  0.00  0.00    -0.000 C 
ATOM    147  H   UNL     1     148.277 164.776 194.027  0.00  0.00    +0.059 HD
ATOM    148  H   UNL     1     148.252 167.281 191.418  0.00  0.00    +0.060 HD
ATOM    149  H   UNL     1     145.907 167.362 191.144  0.00  0.00    +0.032 HD
ATOM    150  H   UNL     1     145.738 165.640 190.909  0.00  0.00    +0.032 HD
ATOM    151  H   UNL     1     145.708 165.101 193.111  0.00  0.00    +0.060 HD
ATOM    152  H   UNL     1     147.315 167.638 193.698  0.00  0.00    +0.032 HD
ATOM    153  H   UNL     1     146.897 166.452 194.906  0.00  0.00    +0.032 HD
BRANCH 141 154
ATOM    154  C   UNL     1     149.639 166.411 193.865  0.00  0.00    -0.039 C 
ATOM    155  H   UNL     1     149.717 167.402 193.409  0.00  0.00    +0.025 HD
ATOM    156  H   UNL     1     149.709 166.524 194.953  0.00  0.00    +0.025 HD
ATOM    157  H   UNL     1     150.501 165.834 193.519  0.00  0.00    +0.025 HD
ENDBRANCH 141 154
BRANCH 145 158
ATOM    158  O   UNL     1     144.769 166.941 193.255  0.00  0.00    -0.380 OA
BRANCH 158 159
ATOM    159  C   UNL     1     143.630 166.566 192.490  0.00  0.00    +0.037 C 
ATOM    160  H   UNL     1     143.166 167.477 192.103  0.00  0.00    +0.052 HD
ATOM    161  H   UNL     1     142.895 166.053 193.118  0.00  0.00    +0.052 HD
ATOM    162  H   UNL     1     143.912 165.932 191.644  0.00  0.00    +0.052 HD
ENDBRANCH 158 159
ENDBRANCH 145 158
ENDBRANCH 138 143
ENDBRANCH 135 138
ENDBRANCH 129 135
ENDBRANCH 127 129
BRANCH 127 163
ATOM    163  O   UNL     1     149.525 166.946 186.649  0.00  0.00    -0.391 OA
ATOM    164  H   UNL     1     149.619 166.216 187.285  0.00  0.00    +0.210 HD
ENDBRANCH 127 163
ENDBRANCH 121 127
ENDBRANCH   1 121
BRANCH  41 165
ATOM    165  O   UNL     1     143.228 168.392 185.412  0.00  0.00    -0.391 OA
ATOM    166  H   UNL     1     142.910 169.298 185.220  0.00  0.00    +0.210 HD
ENDBRANCH  41 165
BRANCH  39 167
ATOM    167  O   UNL     1     142.932 169.842 187.980  0.00  0.00    -0.391 OA
ATOM    168  H   UNL     1     142.670 169.916 187.042  0.00  0.00    +0.210 HD
ENDBRANCH  39 167
BRANCH  31 169
ATOM    169  O   UNL     1     152.484 170.691 191.826  0.00  0.00    -0.391 OA
ATOM    170  H   UNL     1     153.391 170.345 191.773  0.00  0.00    +0.210 HD
ENDBRANCH  31 169
BRANCH  22 171
ATOM    171  C   UNL     1     148.017 160.895 190.142  0.00  0.00    +0.020 C 
ATOM    172  H   UNL     1     147.731 159.914 190.536  0.00  0.00    +0.036 HD
BRANCH 171 173
ATOM    173  C   UNL     1     147.582 161.965 191.147  0.00  0.00    -0.057 C 
ATOM    174  H   UNL     1     147.480 162.938 190.665  0.00  0.00    +0.023 HD
ATOM    175  H   UNL     1     148.303 162.069 191.964  0.00  0.00    +0.023 HD
ATOM    176  H   UNL     1     146.624 161.718 191.612  0.00  0.00    +0.023 HD
ENDBRANCH 171 173
BRANCH 171 177
ATOM    177  C   UNL     1     147.290 161.059 188.781  0.00  0.00    +0.064 C 
ATOM    178  H   UNL     1     148.036 161.055 187.979  0.00  0.00    +0.060 HD
BRANCH 177 179
ATOM    179  O   UNL     1     146.451 159.917 188.597  0.00  0.00    -0.391 OA
ATOM    180  H   UNL     1     146.412 159.754 187.628  0.00  0.00    +0.210 HD
ENDBRANCH 177 179
BRANCH 177 181
ATOM    181  C   UNL     1     146.434 162.342 188.581  0.00  0.00    -0.017 C 
ATOM    182  H   UNL     1     146.508 162.941 189.499  0.00  0.00    +0.032 HD
BRANCH 181 183
ATOM    183  C   UNL     1     147.042 163.184 187.445  0.00  0.00    -0.060 C 
ATOM    184  H   UNL     1     147.055 162.632 186.499  0.00  0.00    +0.023 HD
ATOM    185  H   UNL     1     146.484 164.112 187.288  0.00  0.00    +0.023 HD
ATOM    186  H   UNL     1     148.069 163.470 187.676  0.00  0.00    +0.023 HD
ENDBRANCH 181 183
BRANCH 181 187
ATOM    187  C   UNL     1     144.940 162.066 188.294  0.00  0.00    -0.046 C 
ATOM    188  H   UNL     1     144.448 161.684 189.195  0.00  0.00    +0.027 HD
ATOM    189  H   UNL     1     144.852 161.283 187.531  0.00  0.00    +0.027 HD
BRANCH 187 190
ATOM    190  C   UNL     1     144.184 163.328 187.845  0.00  0.00    -0.026 C 
ATOM    191  H   UNL     1     143.701 163.139 186.883  0.00  0.00    +0.029 HD
ATOM    192  H   UNL     1     144.904 164.138 187.681  0.00  0.00    +0.029 HD
BRANCH 190 193
ATOM    193  C   UNL     1     143.131 163.793 188.868  0.00  0.00    +0.061 C 
ATOM    194  O   UNL     1     141.900 163.073 188.755  0.00  0.00    -0.373 OA
ATOM    195  C   UNL     1     141.145 163.352 187.573  0.00  0.00    +0.059 C 
ATOM    196  C   UNL     1     140.798 164.836 187.481  0.00  0.00    -0.000 C 
ATOM    197  C   UNL     1     142.060 165.696 187.569  0.00  0.00    +0.063 C 
ATOM    198  C   UNL     1     142.869 165.298 188.804  0.00  0.00    -0.000 C 
ATOM    199  H   UNL     1     143.523 163.567 189.866  0.00  0.00    +0.060 HD
ATOM    200  H   UNL     1     141.719 163.039 186.693  0.00  0.00    +0.059 HD
ATOM    201  H   UNL     1     140.122 165.120 188.298  0.00  0.00    +0.032 HD
ATOM    202  H   UNL     1     140.257 165.037 186.550  0.00  0.00    +0.032 HD
ATOM    203  H   UNL     1     142.677 165.555 186.673  0.00  0.00    +0.060 HD
ATOM    204  H   UNL     1     142.304 165.601 189.697  0.00  0.00    +0.032 HD
ATOM    205  H   UNL     1     143.807 165.867 188.840  0.00  0.00    +0.032 HD
BRANCH 195 206
ATOM    206  C   UNL     1     139.879 162.502 187.630  0.00  0.00    -0.039 C 
ATOM    207  H   UNL     1     139.071 163.056 188.120  0.00  0.00    +0.025 HD
ATOM    208  H   UNL     1     140.052 161.574 188.184  0.00  0.00    +0.025 HD
ATOM    209  H   UNL     1     139.528 162.254 186.623  0.00  0.00    +0.025 HD
ENDBRANCH 195 206
BRANCH 197 210
ATOM    210  O   UNL     1     141.741 167.087 187.700  0.00  0.00    -0.380 OA
BRANCH 210 211
ATOM    211  C   UNL     1     140.431 167.420 187.256  0.00  0.00    +0.037 C 
ATOM    212  H   UNL     1     139.868 167.797 188.115  0.00  0.00    +0.052 HD
ATOM    213  H   UNL     1     139.913 166.538 186.870  0.00  0.00    +0.052 HD
ATOM    214  H   UNL     1     140.468 168.203 186.493  0.00  0.00    +0.052 HD
ENDBRANCH 210 211
ENDBRANCH 197 210
ENDBRANCH 190 193
ENDBRANCH 187 190
ENDBRANCH 181 187
ENDBRANCH 177 181
ENDBRANCH 171 177
ENDBRANCH  22 171
BRANCH  20 215
ATOM    215  O   UNL     1     152.488 160.727 191.012  0.00  0.00    -0.391 OA
ATOM    216  H   UNL     1     151.876 161.094 191.675  0.00  0.00    +0.210 HD
ENDBRANCH  20 215
BRANCH  18 217
ATOM    217  O   UNL     1     154.502 160.460 189.291  0.00  0.00    -0.391 OA
ATOM    218  H   UNL     1     153.917 160.879 189.955  0.00  0.00    +0.210 HD
ENDBRANCH  18 217
BRANCH  10 219
ATOM    219  O   UNL     1     148.922 158.297 181.761  0.00  0.00    -0.391 OA
ATOM    220  H   UNL     1     149.390 157.982 180.966  0.00  0.00    +0.210 HD
ENDBRANCH  10 219
BRANCH  37 221
ATOM    221  O   UNL     1     144.711 172.226 189.763  0.00  0.00    -0.379 OA
BRANCH 221 222
ATOM    222  C   UNL     1     143.981 173.123 188.935  0.00  0.00    +0.037 C 
ATOM    223  H   UNL     1     143.489 172.536 188.154  0.00  0.00    +0.052 HD
ATOM    224  H   UNL     1     143.210 173.645 189.504  0.00  0.00    +0.052 HD
ATOM    225  H   UNL     1     144.652 173.843 188.457  0.00  0.00    +0.052 HD
ENDBRANCH 221 222
ENDBRANCH  37 221
BRANCH  16 226
ATOM    226  O   UNL     1     155.265 160.762 185.810  0.00  0.00    -0.379 OA
BRANCH 226 227
ATOM    227  C   UNL     1     155.659 162.034 186.309  0.00  0.00    +0.037 C 
ATOM    228  H   UNL     1     156.363 161.941 187.143  0.00  0.00    +0.052 HD
ATOM    229  H   UNL     1     154.773 162.595 186.627  0.00  0.00    +0.052 HD
ATOM    230  H   UNL     1     156.151 162.585 185.502  0.00  0.00    +0.052 HD
ENDBRANCH 226 227
ENDBRANCH  16 226
TORSDOF 40
ENDMDL
MODEL 2
REMARK VINA RESULT:      -4.8      1.555      2.041
REMARK  Name = Swinholide A_conf1
REMARK  40 active torsions:
REMARK  status: ('A' for Active; 'I' for Inactive)
REMARK    1  A    between atoms: C_1  and  C_2
REMARK    2  A    between atoms: C_4  and  C_10
REMARK    3  A    between atoms: C_6  and  O_8
REMARK    4  A    between atoms: O_8  and  C_9
REMARK    5  A    between atoms: C_10  and  C_11
REMARK    6  A    between atoms: C_11  and  C_12
REMARK    7  A    between atoms: C_12  and  C_13
REMARK    8  A    between atoms: C_12  and  C_98
REMARK    9  A    between atoms: C_13  and  O_14
REMARK   10  A    between atoms: C_13  and  C_15
REMARK   11  A    between atoms: C_15  and  C_16
REMARK   12  A    between atoms: C_15  and  C_97
REMARK   13  A    between atoms: C_22  and  C_96
REMARK   14  A    between atoms: C_25  and  O_95
REMARK   15  A    between atoms: C_31  and  O_90
REMARK   16  A    between atoms: C_32  and  C_89
REMARK   17  A    between atoms: C_33  and  O_88
REMARK   18  A    between atoms: C_35  and  O_87
REMARK   19  A    between atoms: C_36  and  C_86
REMARK   20  A    between atoms: C_37  and  C_69
REMARK   21  A    between atoms: C_43  and  C_68
REMARK   22  A    between atoms: C_46  and  O_67
REMARK   23  A    between atoms: C_52  and  O_62
REMARK   24  A    between atoms: C_53  and  C_61
REMARK   25  A    between atoms: C_54  and  O_60
REMARK   26  A    between atoms: C_56  and  O_59
REMARK   27  A    between atoms: C_57  and  C_58
REMARK   28  A    between atoms: O_62  and  C_63
REMARK   29  A    between atoms: C_69  and  C_70
REMARK   30  A    between atoms: C_69  and  C_85
REMARK   31  A    between atoms: C_70  and  O_71
REMARK   32  A    between atoms: C_70  and  C_72
REMARK   33  A    between atoms: C_72  and  C_73
REMARK   34  A    between atoms: C_72  and  C_84
REMARK   35  A    between atoms: C_73  and  C_74
REMARK   36  A    between atoms: C_74  and  C_75
REMARK   37  A    between atoms: C_77  and  C_83
REMARK   38  A    between atoms: C_79  and  O_81
REMARK   39  A    between atoms: O_81  and  C_82
REMARK   40  A    between atoms: O_90  and  C_91
REMARK                            x       y       z     vdW  Elec       q    Type
REMARK                         _______ _______ _______ _____ _____    ______ ____
ROOT
ATOM      1  C   UNL     1     146.441 169.192 183.408  0.00  0.00    +0.113 C 
ATOM      2  O   UNL     1     146.220 167.769 183.212  0.00  0.00    -0.458 OA
ATOM      3  C   UNL     1     146.578 167.271 181.996  0.00  0.00    +0.332 C 
ATOM      4  O   UNL     1     147.022 167.917 181.053  0.00  0.00    -0.246 OA
ATOM      5  C   UNL     1     146.376 165.818 181.888  0.00  0.00    +0.023 C 
ATOM      6  C   UNL     1     146.347 164.975 182.929  0.00  0.00    -0.052 C 
ATOM      7  C   UNL     1     146.284 163.520 182.818  0.00  0.00    -0.054 C 
ATOM      8  C   UNL     1     147.040 162.850 181.923  0.00  0.00    -0.079 C 
ATOM      9  C   UNL     1     147.229 161.354 181.867  0.00  0.00    -0.008 C 
ATOM     10  C   UNL     1     148.611 160.901 181.359  0.00  0.00    +0.061 C 
ATOM     11  C   UNL     1     149.858 161.596 181.925  0.00  0.00    +0.003 C 
ATOM     12  C   UNL     1     150.232 161.357 183.400  0.00  0.00    +0.080 C 
ATOM     13  O   UNL     1     151.620 161.765 183.482  0.00  0.00    -0.369 OA
ATOM     14  C   UNL     1     152.093 162.197 184.768  0.00  0.00    +0.065 C 
ATOM     15  C   UNL     1     152.167 161.014 185.758  0.00  0.00    +0.000 C 
ATOM     16  C   UNL     1     152.822 161.376 187.108  0.00  0.00    +0.066 C 
ATOM     17  C   UNL     1     152.787 160.145 188.066  0.00  0.00    +0.009 C 
ATOM     18  C   UNL     1     152.059 160.444 189.403  0.00  0.00    +0.063 C 
ATOM     19  C   UNL     1     150.551 160.726 189.226  0.00  0.00    -0.000 C 
ATOM     20  C   UNL     1     149.825 160.793 190.585  0.00  0.00    +0.064 C 
ATOM     21  C   UNL     1     148.269 160.884 190.504  0.00  0.00    +0.020 C 
ATOM     22  C   UNL     1     147.749 162.111 189.690  0.00  0.00    +0.113 C 
ATOM     23  O   UNL     1     148.243 163.304 190.354  0.00  0.00    -0.458 OA
ATOM     24  C   UNL     1     148.800 164.254 189.556  0.00  0.00    +0.332 C 
ATOM     25  O   UNL     1     148.821 164.249 188.337  0.00  0.00    -0.246 OA
ATOM     26  C   UNL     1     149.354 165.332 190.406  0.00  0.00    +0.023 C 
ATOM     27  C   UNL     1     149.988 166.362 189.826  0.00  0.00    -0.052 C 
ATOM     28  C   UNL     1     150.561 167.513 190.513  0.00  0.00    -0.054 C 
ATOM     29  C   UNL     1     149.835 168.244 191.385  0.00  0.00    -0.079 C 
ATOM     30  C   UNL     1     150.272 169.475 192.131  0.00  0.00    -0.008 C 
ATOM     31  C   UNL     1     149.694 170.804 191.589  0.00  0.00    +0.061 C 
ATOM     32  C   UNL     1     148.243 171.060 192.045  0.00  0.00    +0.003 C 
ATOM     33  C   UNL     1     147.748 172.493 191.741  0.00  0.00    +0.080 C 
ATOM     34  O   UNL     1     147.333 172.633 190.372  0.00  0.00    -0.369 OA
ATOM     35  C   UNL     1     145.917 172.518 190.106  0.00  0.00    +0.065 C 
ATOM     36  C   UNL     1     145.757 172.805 188.602  0.00  0.00    +0.000 C 
ATOM     37  C   UNL     1     144.357 172.687 187.953  0.00  0.00    +0.066 C 
ATOM     38  C   UNL     1     143.789 171.237 188.033  0.00  0.00    +0.009 C 
ATOM     39  C   UNL     1     143.222 170.707 186.686  0.00  0.00    +0.063 C 
ATOM     40  C   UNL     1     144.152 170.924 185.481  0.00  0.00    -0.000 C 
ATOM     41  C   UNL     1     144.056 169.788 184.443  0.00  0.00    +0.064 C 
ATOM     42  C   UNL     1     145.094 169.992 183.300  0.00  0.00    +0.020 C 
ATOM     43  C   UNL     1     145.110 173.497 190.971  0.00  0.00    -0.008 C 
ATOM     44  C   UNL     1     145.498 173.391 192.408  0.00  0.00    -0.083 C 
ATOM     45  C   UNL     1     146.705 172.931 192.742  0.00  0.00    -0.059 C 
ATOM     46  C   UNL     1     151.250 163.398 185.230  0.00  0.00    -0.008 C 
ATOM     47  C   UNL     1     149.796 163.062 185.194  0.00  0.00    -0.083 C 
ATOM     48  C   UNL     1     149.349 162.104 184.371  0.00  0.00    -0.059 C 
ATOM     49  H   UNL     1     147.046 169.567 182.568  0.00  0.00    +0.074 HD
ATOM     50  H   UNL     1     146.341 165.458 180.864  0.00  0.00    +0.069 HD
ATOM     51  H   UNL     1     146.418 165.345 183.950  0.00  0.00    +0.062 HD
ATOM     52  H   UNL     1     147.641 163.414 181.212  0.00  0.00    +0.058 HD
ATOM     53  H   UNL     1     147.036 160.882 182.836  0.00  0.00    +0.033 HD
ATOM     54  H   UNL     1     146.470 160.940 181.188  0.00  0.00    +0.033 HD
ATOM     55  H   UNL     1     148.619 161.070 180.275  0.00  0.00    +0.060 HD
ATOM     56  H   UNL     1     149.818 162.675 181.729  0.00  0.00    +0.032 HD
ATOM     57  H   UNL     1     150.709 161.242 181.324  0.00  0.00    +0.032 HD
ATOM     58  H   UNL     1     150.200 160.286 183.630  0.00  0.00    +0.064 HD
ATOM     59  H   UNL     1     153.114 162.558 184.593  0.00  0.00    +0.060 HD
ATOM     60  H   UNL     1     152.750 160.217 185.275  0.00  0.00    +0.032 HD
ATOM     61  H   UNL     1     151.169 160.595 185.933  0.00  0.00    +0.032 HD
ATOM     62  H   UNL     1     152.264 162.210 187.546  0.00  0.00    +0.060 HD
ATOM     63  H   UNL     1     152.210 159.340 187.587  0.00  0.00    +0.035 HD
ATOM     64  H   UNL     1     152.170 159.572 190.060  0.00  0.00    +0.060 HD
ATOM     65  H   UNL     1     150.430 161.690 188.717  0.00  0.00    +0.032 HD
ATOM     66  H   UNL     1     150.106 159.944 188.600  0.00  0.00    +0.032 HD
ATOM     67  H   UNL     1     150.076 159.892 191.160  0.00  0.00    +0.060 HD
ATOM     68  H   UNL     1     147.932 161.009 191.541  0.00  0.00    +0.036 HD
ATOM     69  H   UNL     1     148.174 162.024 188.684  0.00  0.00    +0.074 HD
ATOM     70  H   UNL     1     149.230 165.248 191.477  0.00  0.00    +0.069 HD
ATOM     71  H   UNL     1     150.106 166.372 188.742  0.00  0.00    +0.062 HD
ATOM     72  H   UNL     1     148.817 167.933 191.609  0.00  0.00    +0.058 HD
ATOM     73  H   UNL     1     149.991 169.358 193.187  0.00  0.00    +0.033 HD
ATOM     74  H   UNL     1     151.366 169.540 192.161  0.00  0.00    +0.033 HD
ATOM     75  H   UNL     1     149.751 170.839 190.495  0.00  0.00    +0.060 HD
ATOM     76  H   UNL     1     148.205 170.896 193.130  0.00  0.00    +0.032 HD
ATOM     77  H   UNL     1     147.580 170.324 191.575  0.00  0.00    +0.032 HD
ATOM     78  H   UNL     1     148.579 173.198 191.860  0.00  0.00    +0.064 HD
ATOM     79  H   UNL     1     145.624 171.486 190.323  0.00  0.00    +0.060 HD
ATOM     80  H   UNL     1     146.439 172.134 188.058  0.00  0.00    +0.032 HD
ATOM     81  H   UNL     1     146.156 173.808 188.407  0.00  0.00    +0.032 HD
ATOM     82  H   UNL     1     144.505 172.946 186.900  0.00  0.00    +0.060 HD
ATOM     83  H   UNL     1     144.625 170.568 188.263  0.00  0.00    +0.035 HD
ATOM     84  H   UNL     1     143.051 169.631 186.820  0.00  0.00    +0.060 HD
ATOM     85  H   UNL     1     143.876 171.865 184.985  0.00  0.00    +0.032 HD
ATOM     86  H   UNL     1     145.178 171.030 185.819  0.00  0.00    +0.032 HD
ATOM     87  H   UNL     1     144.205 168.813 184.915  0.00  0.00    +0.060 HD
ATOM     88  H   UNL     1     145.365 171.057 183.283  0.00  0.00    +0.036 HD
ATOM     89  H   UNL     1     144.038 173.293 190.883  0.00  0.00    +0.033 HD
ATOM     90  H   UNL     1     145.283 174.532 190.655  0.00  0.00    +0.033 HD
ATOM     91  H   UNL     1     144.799 173.735 193.166  0.00  0.00    +0.057 HD
ATOM     92  H   UNL     1     146.987 172.895 193.793  0.00  0.00    +0.059 HD
ATOM     93  H   UNL     1     151.411 164.245 184.552  0.00  0.00    +0.033 HD
ATOM     94  H   UNL     1     151.538 163.728 186.230  0.00  0.00    +0.033 HD
ATOM     95  H   UNL     1     149.115 163.593 185.853  0.00  0.00    +0.057 HD
ATOM     96  H   UNL     1     148.299 161.837 184.410  0.00  0.00    +0.059 HD
ENDROOT
BRANCH  28  97
ATOM     97  C   UNL     1     151.964 167.840 190.070  0.00  0.00    -0.040 C 
ATOM     98  H   UNL     1     152.621 167.995 190.934  0.00  0.00    +0.028 HD
ATOM     99  H   UNL     1     151.964 168.759 189.472  0.00  0.00    +0.028 HD
ATOM    100  H   UNL     1     152.424 167.051 189.470  0.00  0.00    +0.028 HD
ENDBRANCH  28  97
BRANCH  21 101
ATOM    101  C   UNL     1     147.700 159.559 189.983  0.00  0.00    -0.057 C 
ATOM    102  H   UNL     1     146.615 159.502 190.124  0.00  0.00    +0.023 HD
ATOM    103  H   UNL     1     148.152 158.704 190.496  0.00  0.00    +0.023 HD
ATOM    104  H   UNL     1     147.911 159.431 188.916  0.00  0.00    +0.023 HD
ENDBRANCH  21 101
BRANCH  42 105
ATOM    105  C   UNL     1     144.460 169.719 181.915  0.00  0.00    -0.057 C 
ATOM    106  H   UNL     1     145.014 168.945 181.373  0.00  0.00    +0.023 HD
ATOM    107  H   UNL     1     143.415 169.400 182.005  0.00  0.00    +0.023 HD
ATOM    108  H   UNL     1     144.488 170.616 181.285  0.00  0.00    +0.023 HD
ENDBRANCH  42 105
BRANCH  17 109
ATOM    109  C   UNL     1     154.178 159.558 188.348  0.00  0.00    -0.058 C 
ATOM    110  H   UNL     1     154.199 158.973 189.272  0.00  0.00    +0.023 HD
ATOM    111  H   UNL     1     154.486 158.895 187.531  0.00  0.00    +0.023 HD
ATOM    112  H   UNL     1     154.928 160.352 188.422  0.00  0.00    +0.023 HD
ENDBRANCH  17 109
BRANCH  38 113
ATOM    113  C   UNL     1     142.738 171.056 189.142  0.00  0.00    -0.058 C 
ATOM    114  H   UNL     1     142.370 172.014 189.525  0.00  0.00    +0.023 HD
ATOM    115  H   UNL     1     143.143 170.490 189.986  0.00  0.00    +0.023 HD
ATOM    116  H   UNL     1     141.869 170.505 188.764  0.00  0.00    +0.023 HD
ENDBRANCH  38 113
BRANCH   7 117
ATOM    117  C   UNL     1     145.404 162.864 183.844  0.00  0.00    -0.040 C 
ATOM    118  H   UNL     1     145.733 161.837 184.037  0.00  0.00    +0.028 HD
ATOM    119  H   UNL     1     144.370 162.840 183.495  0.00  0.00    +0.028 HD
ATOM    120  H   UNL     1     145.426 163.381 184.807  0.00  0.00    +0.028 HD
ENDBRANCH   7 117
BRANCH   1 121
ATOM    121  C   UNL     1     147.395 169.393 184.644  0.00  0.00    +0.020 C 
ATOM    122  H   UNL     1     148.405 169.362 184.204  0.00  0.00    +0.036 HD
BRANCH 121 123
ATOM    123  C   UNL     1     147.184 170.811 185.207  0.00  0.00    -0.057 C 
ATOM    124  H   UNL     1     146.302 171.282 184.769  0.00  0.00    +0.023 HD
ATOM    125  H   UNL     1     148.040 171.462 185.024  0.00  0.00    +0.023 HD
ATOM    126  H   UNL     1     146.995 170.802 186.286  0.00  0.00    +0.023 HD
ENDBRANCH 121 123
BRANCH 121 127
ATOM    127  C   UNL     1     147.401 168.269 185.735  0.00  0.00    +0.064 C 
ATOM    128  H   UNL     1     147.351 167.307 185.235  0.00  0.00    +0.060 HD
BRANCH 127 129
ATOM    129  C   UNL     1     146.293 168.275 186.842  0.00  0.00    -0.017 C 
ATOM    130  H   UNL     1     145.823 169.267 186.840  0.00  0.00    +0.032 HD
BRANCH 129 131
ATOM    131  C   UNL     1     145.162 167.262 186.676  0.00  0.00    -0.060 C 
ATOM    132  H   UNL     1     144.195 167.710 186.923  0.00  0.00    +0.023 HD
ATOM    133  H   UNL     1     145.134 166.844 185.667  0.00  0.00    +0.023 HD
ATOM    134  H   UNL     1     145.288 166.422 187.373  0.00  0.00    +0.023 HD
ENDBRANCH 129 131
BRANCH 129 135
ATOM    135  C   UNL     1     146.915 168.059 188.253  0.00  0.00    -0.046 C 
ATOM    136  H   UNL     1     148.002 168.183 188.200  0.00  0.00    +0.027 HD
ATOM    137  H   UNL     1     146.756 167.020 188.554  0.00  0.00    +0.027 HD
BRANCH 135 138
ATOM    138  C   UNL     1     146.333 168.956 189.346  0.00  0.00    -0.026 C 
ATOM    139  H   UNL     1     145.583 169.619 188.908  0.00  0.00    +0.029 HD
ATOM    140  H   UNL     1     147.114 169.609 189.743  0.00  0.00    +0.029 HD
BRANCH 138 143
ATOM    141  C   UNL     1     146.029 166.202 191.848  0.00  0.00    +0.059 C 
ATOM    142  O   UNL     1     146.408 166.931 190.670  0.00  0.00    -0.373 OA
ATOM    143  C   UNL     1     145.701 168.163 190.503  0.00  0.00    +0.061 C 
ATOM    144  C   UNL     1     144.222 167.870 190.248  0.00  0.00    -0.000 C 
ATOM    145  C   UNL     1     143.725 166.625 190.994  0.00  0.00    +0.063 C 
ATOM    146  C   UNL     1     144.567 166.404 192.243  0.00  0.00    -0.000 C 
ATOM    147  H   UNL     1     146.171 165.144 191.593  0.00  0.00    +0.059 HD
ATOM    148  H   UNL     1     145.809 168.739 191.429  0.00  0.00    +0.060 HD
ATOM    149  H   UNL     1     143.631 168.750 190.516  0.00  0.00    +0.032 HD
ATOM    150  H   UNL     1     144.038 167.702 189.180  0.00  0.00    +0.032 HD
ATOM    151  H   UNL     1     143.813 165.758 190.325  0.00  0.00    +0.060 HD
ATOM    152  H   UNL     1     144.447 167.270 192.909  0.00  0.00    +0.032 HD
ATOM    153  H   UNL     1     144.219 165.543 192.826  0.00  0.00    +0.032 HD
BRANCH 141 154
ATOM    154  C   UNL     1     146.974 166.536 192.998  0.00  0.00    -0.039 C 
ATOM    155  H   UNL     1     146.787 165.897 193.865  0.00  0.00    +0.025 HD
ATOM    156  H   UNL     1     148.019 166.413 192.694  0.00  0.00    +0.025 HD
ATOM    157  H   UNL     1     146.828 167.568 193.328  0.00  0.00    +0.025 HD
ENDBRANCH 141 154
BRANCH 145 158
ATOM    158  O   UNL     1     142.346 166.839 191.308  0.00  0.00    -0.380 OA
BRANCH 158 159
ATOM    159  C   UNL     1     141.919 166.168 192.487  0.00  0.00    +0.037 C 
ATOM    160  H   UNL     1     142.364 166.676 193.348  0.00  0.00    +0.052 HD
ATOM    161  H   UNL     1     142.268 165.131 192.490  0.00  0.00    +0.052 HD
ATOM    162  H   UNL     1     140.830 166.199 192.590  0.00  0.00    +0.052 HD
ENDBRANCH 158 159
ENDBRANCH 145 158
ENDBRANCH 138 143
ENDBRANCH 135 138
ENDBRANCH 129 135
ENDBRANCH 127 129
BRANCH 127 163
ATOM    163  O   UNL     1     148.642 168.255 186.454  0.00  0.00    -0.391 OA
ATOM    164  H   UNL     1     148.830 167.347 186.747  0.00  0.00    +0.210 HD
ENDBRANCH 127 163
ENDBRANCH 121 127
ENDBRANCH   1 121
BRANCH  41 165
ATOM    165  O   UNL     1     142.726 169.790 183.915  0.00  0.00    -0.391 OA
ATOM    166  H   UNL     1     142.441 168.866 183.761  0.00  0.00    +0.210 HD
ENDBRANCH  41 165
BRANCH  39 167
ATOM    167  O   UNL     1     141.953 171.272 186.362  0.00  0.00    -0.391 OA
ATOM    168  H   UNL     1     141.685 170.933 185.486  0.00  0.00    +0.210 HD
ENDBRANCH  39 167
BRANCH  31 169
ATOM    169  O   UNL     1     150.527 171.856 192.098  0.00  0.00    -0.391 OA
ATOM    170  H   UNL     1     150.800 172.401 191.340  0.00  0.00    +0.210 HD
ENDBRANCH  31 169
BRANCH  22 171
ATOM    171  C   UNL     1     146.187 162.190 189.553  0.00  0.00    +0.020 C 
ATOM    172  H   UNL     1     145.775 162.023 190.554  0.00  0.00    +0.036 HD
BRANCH 171 173
ATOM    173  C   UNL     1     145.725 163.566 189.064  0.00  0.00    -0.057 C 
ATOM    174  H   UNL     1     146.570 164.163 188.719  0.00  0.00    +0.023 HD
ATOM    175  H   UNL     1     145.218 164.127 189.855  0.00  0.00    +0.023 HD
ATOM    176  H   UNL     1     145.012 163.484 188.239  0.00  0.00    +0.023 HD
ENDBRANCH 171 173
BRANCH 171 177
ATOM    177  C   UNL     1     145.645 161.050 188.651  0.00  0.00    +0.064 C 
ATOM    178  H   UNL     1     146.388 160.247 188.612  0.00  0.00    +0.060 HD
BRANCH 177 179
ATOM    179  O   UNL     1     144.472 160.524 189.275  0.00  0.00    -0.391 OA
ATOM    180  H   UNL     1     144.215 159.729 188.756  0.00  0.00    +0.210 HD
ENDBRANCH 177 179
BRANCH 177 181
ATOM    181  C   UNL     1     145.305 161.410 187.177  0.00  0.00    -0.017 C 
ATOM    182  H   UNL     1     145.532 162.474 187.030  0.00  0.00    +0.032 HD
BRANCH 181 183
ATOM    183  C   UNL     1     146.232 160.619 186.236  0.00  0.00    -0.060 C 
ATOM    184  H   UNL     1     147.094 160.210 186.773  0.00  0.00    +0.023 HD
ATOM    185  H   UNL     1     145.706 159.789 185.755  0.00  0.00    +0.023 HD
ATOM    186  H   UNL     1     146.613 161.256 185.436  0.00  0.00    +0.023 HD
ENDBRANCH 181 183
BRANCH 181 187
ATOM    187  C   UNL     1     143.828 161.166 186.791  0.00  0.00    -0.046 C 
ATOM    188  H   UNL     1     143.299 160.680 187.618  0.00  0.00    +0.027 HD
ATOM    189  H   UNL     1     143.780 160.476 185.939  0.00  0.00    +0.027 HD
BRANCH 187 190
ATOM    190  C   UNL     1     143.082 162.469 186.458  0.00  0.00    -0.026 C 
ATOM    191  H   UNL     1     142.244 162.248 185.792  0.00  0.00    +0.029 HD
ATOM    192  H   UNL     1     143.754 163.135 185.904  0.00  0.00    +0.029 HD
BRANCH 190 193
ATOM    193  C   UNL     1     142.567 163.203 187.709  0.00  0.00    +0.061 C 
ATOM    194  O   UNL     1     141.261 162.771 188.102  0.00  0.00    -0.373 OA
ATOM    195  C   UNL     1     140.207 163.155 187.215  0.00  0.00    +0.059 C 
ATOM    196  C   UNL     1     140.143 164.674 187.066  0.00  0.00    -0.000 C 
ATOM    197  C   UNL     1     141.495 165.235 186.622  0.00  0.00    +0.063 C 
ATOM    198  C   UNL     1     142.594 164.725 187.554  0.00  0.00    -0.000 C 
ATOM    199  H   UNL     1     143.234 162.943 188.539  0.00  0.00    +0.060 HD
ATOM    200  H   UNL     1     140.363 162.682 186.239  0.00  0.00    +0.059 HD
ATOM    201  H   UNL     1     139.865 165.139 188.020  0.00  0.00    +0.032 HD
ATOM    202  H   UNL     1     139.358 164.947 186.351  0.00  0.00    +0.032 HD
ATOM    203  H   UNL     1     141.717 164.919 185.596  0.00  0.00    +0.060 HD
ATOM    204  H   UNL     1     142.449 165.187 188.541  0.00  0.00    +0.032 HD
ATOM    205  H   UNL     1     143.575 165.072 187.207  0.00  0.00    +0.032 HD
BRANCH 195 206
ATOM    206  C   UNL     1     138.905 162.612 187.794  0.00  0.00    -0.039 C 
ATOM    207  H   UNL     1     138.045 163.083 187.305  0.00  0.00    +0.025 HD
ATOM    208  H   UNL     1     138.842 162.801 188.870  0.00  0.00    +0.025 HD
ATOM    209  H   UNL     1     138.817 161.535 187.618  0.00  0.00    +0.025 HD
ENDBRANCH 195 206
BRANCH 197 210
ATOM    210  O   UNL     1     141.516 166.667 186.683  0.00  0.00    -0.380 OA
BRANCH 210 211
ATOM    211  C   UNL     1     141.223 167.191 187.973  0.00  0.00    +0.037 C 
ATOM    212  H   UNL     1     141.282 168.282 187.915  0.00  0.00    +0.052 HD
ATOM    213  H   UNL     1     141.956 166.850 188.709  0.00  0.00    +0.052 HD
ATOM    214  H   UNL     1     140.213 166.912 188.284  0.00  0.00    +0.052 HD
ENDBRANCH 210 211
ENDBRANCH 197 210
ENDBRANCH 190 193
ENDBRANCH 187 190
ENDBRANCH 181 187
ENDBRANCH 177 181
ENDBRANCH 171 177
ENDBRANCH  22 171
BRANCH  20 215
ATOM    215  O   UNL     1     150.374 161.890 191.329  0.00  0.00    -0.391 OA
ATOM    216  H   UNL     1     149.750 162.635 191.257  0.00  0.00    +0.210 HD
ENDBRANCH  20 215
BRANCH  18 217
ATOM    217  O   UNL     1     152.691 161.544 190.062  0.00  0.00    -0.391 OA
ATOM    218  H   UNL     1     153.456 161.798 189.506  0.00  0.00    +0.210 HD
ENDBRANCH  18 217
BRANCH  10 219
ATOM    219  O   UNL     1     148.719 159.487 181.547  0.00  0.00    -0.391 OA
ATOM    220  H   UNL     1     147.870 159.178 181.913  0.00  0.00    +0.210 HD
ENDBRANCH  10 219
BRANCH  37 221
ATOM    221  O   UNL     1     143.402 173.615 188.468  0.00  0.00    -0.379 OA
BRANCH 221 222
ATOM    222  C   UNL     1     142.895 174.532 187.507  0.00  0.00    +0.037 C 
ATOM    223  H   UNL     1     143.310 174.261 186.532  0.00  0.00    +0.052 HD
ATOM    224  H   UNL     1     141.807 174.472 187.441  0.00  0.00    +0.052 HD
ATOM    225  H   UNL     1     143.205 175.554 187.744  0.00  0.00    +0.052 HD
ENDBRANCH 221 222
ENDBRANCH  37 221
BRANCH  16 226
ATOM    226  O   UNL     1     154.165 161.789 186.814  0.00  0.00    -0.379 OA
BRANCH 226 227
ATOM    227  C   UNL     1     154.487 163.057 187.374  0.00  0.00    +0.037 C 
ATOM    228  H   UNL     1     153.996 163.208 188.340  0.00  0.00    +0.052 HD
ATOM    229  H   UNL     1     154.196 163.850 186.677  0.00  0.00    +0.052 HD
ATOM    230  H   UNL     1     155.570 163.104 187.525  0.00  0.00    +0.052 HD
ENDBRANCH 226 227
ENDBRANCH  16 226
TORSDOF 40
ENDMDL
MODEL 3
REMARK VINA RESULT:      -4.8      3.713     11.298
REMARK  Name = Swinholide A_conf1
REMARK  40 active torsions:
REMARK  status: ('A' for Active; 'I' for Inactive)
REMARK    1  A    between atoms: C_1  and  C_2
REMARK    2  A    between atoms: C_4  and  C_10
REMARK    3  A    between atoms: C_6  and  O_8
REMARK    4  A    between atoms: O_8  and  C_9
REMARK    5  A    between atoms: C_10  and  C_11
REMARK    6  A    between atoms: C_11  and  C_12
REMARK    7  A    between atoms: C_12  and  C_13
REMARK    8  A    between atoms: C_12  and  C_98
REMARK    9  A    between atoms: C_13  and  O_14
REMARK   10  A    between atoms: C_13  and  C_15
REMARK   11  A    between atoms: C_15  and  C_16
REMARK   12  A    between atoms: C_15  and  C_97
REMARK   13  A    between atoms: C_22  and  C_96
REMARK   14  A    between atoms: C_25  and  O_95
REMARK   15  A    between atoms: C_31  and  O_90
REMARK   16  A    between atoms: C_32  and  C_89
REMARK   17  A    between atoms: C_33  and  O_88
REMARK   18  A    between atoms: C_35  and  O_87
REMARK   19  A    between atoms: C_36  and  C_86
REMARK   20  A    between atoms: C_37  and  C_69
REMARK   21  A    between atoms: C_43  and  C_68
REMARK   22  A    between atoms: C_46  and  O_67
REMARK   23  A    between atoms: C_52  and  O_62
REMARK   24  A    between atoms: C_53  and  C_61
REMARK   25  A    between atoms: C_54  and  O_60
REMARK   26  A    between atoms: C_56  and  O_59
REMARK   27  A    between atoms: C_57  and  C_58
REMARK   28  A    between atoms: O_62  and  C_63
REMARK   29  A    between atoms: C_69  and  C_70
REMARK   30  A    between atoms: C_69  and  C_85
REMARK   31  A    between atoms: C_70  and  O_71
REMARK   32  A    between atoms: C_70  and  C_72
REMARK   33  A    between atoms: C_72  and  C_73
REMARK   34  A    between atoms: C_72  and  C_84
REMARK   35  A    between atoms: C_73  and  C_74
REMARK   36  A    between atoms: C_74  and  C_75
REMARK   37  A    between atoms: C_77  and  C_83
REMARK   38  A    between atoms: C_79  and  O_81
REMARK   39  A    between atoms: O_81  and  C_82
REMARK   40  A    between atoms: O_90  and  C_91
REMARK                            x       y       z     vdW  Elec       q    Type
REMARK                         _______ _______ _______ _____ _____    ______ ____
ROOT
ATOM      1  C   UNL     1     143.500 165.208 188.825  0.00  0.00    +0.113 C 
ATOM      2  O   UNL     1     142.988 165.498 187.495  0.00  0.00    -0.458 OA
ATOM      3  C   UNL     1     141.719 165.077 187.240  0.00  0.00    +0.332 C 
ATOM      4  O   UNL     1     140.999 164.446 188.005  0.00  0.00    -0.246 OA
ATOM      5  C   UNL     1     141.249 165.450 185.897  0.00  0.00    +0.023 C 
ATOM      6  C   UNL     1     141.726 166.481 185.183  0.00  0.00    -0.052 C 
ATOM      7  C   UNL     1     141.170 166.937 183.913  0.00  0.00    -0.054 C 
ATOM      8  C   UNL     1     139.839 167.048 183.726  0.00  0.00    -0.079 C 
ATOM      9  C   UNL     1     139.160 167.712 182.554  0.00  0.00    -0.008 C 
ATOM     10  C   UNL     1     137.816 168.386 182.889  0.00  0.00    +0.061 C 
ATOM     11  C   UNL     1     137.734 169.262 184.146  0.00  0.00    +0.003 C 
ATOM     12  C   UNL     1     138.500 170.598 184.166  0.00  0.00    +0.080 C 
ATOM     13  O   UNL     1     137.883 171.342 185.246  0.00  0.00    -0.369 OA
ATOM     14  C   UNL     1     138.688 172.346 185.885  0.00  0.00    +0.065 C 
ATOM     15  C   UNL     1     138.947 173.536 184.937  0.00  0.00    +0.000 C 
ATOM     16  C   UNL     1     139.668 174.722 185.613  0.00  0.00    +0.066 C 
ATOM     17  C   UNL     1     139.952 175.843 184.566  0.00  0.00    +0.009 C 
ATOM     18  C   UNL     1     141.457 176.200 184.461  0.00  0.00    +0.063 C 
ATOM     19  C   UNL     1     142.319 175.046 183.902  0.00  0.00    -0.000 C 
ATOM     20  C   UNL     1     143.759 175.511 183.600  0.00  0.00    +0.064 C 
ATOM     21  C   UNL     1     144.651 174.470 182.856  0.00  0.00    +0.020 C 
ATOM     22  C   UNL     1     144.799 173.110 183.609  0.00  0.00    +0.113 C 
ATOM     23  O   UNL     1     145.409 173.399 184.895  0.00  0.00    -0.458 OA
ATOM     24  C   UNL     1     144.834 172.818 185.982  0.00  0.00    +0.332 C 
ATOM     25  O   UNL     1     143.935 171.994 185.967  0.00  0.00    -0.246 OA
ATOM     26  C   UNL     1     145.503 173.316 187.205  0.00  0.00    +0.023 C 
ATOM     27  C   UNL     1     145.069 172.899 188.404  0.00  0.00    -0.052 C 
ATOM     28  C   UNL     1     145.634 173.269 189.696  0.00  0.00    -0.054 C 
ATOM     29  C   UNL     1     146.952 173.137 189.950  0.00  0.00    -0.079 C 
ATOM     30  C   UNL     1     147.668 173.432 191.239  0.00  0.00    -0.008 C 
ATOM     31  C   UNL     1     148.084 172.184 192.055  0.00  0.00    +0.061 C 
ATOM     32  C   UNL     1     149.363 171.511 191.515  0.00  0.00    +0.003 C 
ATOM     33  C   UNL     1     149.938 170.437 192.466  0.00  0.00    +0.080 C 
ATOM     34  O   UNL     1     149.239 169.187 192.342  0.00  0.00    -0.369 OA
ATOM     35  C   UNL     1     149.842 168.185 191.493  0.00  0.00    +0.065 C 
ATOM     36  C   UNL     1     148.946 166.940 191.625  0.00  0.00    +0.000 C 
ATOM     37  C   UNL     1     149.260 165.686 190.776  0.00  0.00    +0.066 C 
ATOM     38  C   UNL     1     149.145 165.964 189.245  0.00  0.00    +0.009 C 
ATOM     39  C   UNL     1     148.315 164.901 188.472  0.00  0.00    +0.063 C 
ATOM     40  C   UNL     1     146.967 164.554 189.126  0.00  0.00    -0.000 C 
ATOM     41  C   UNL     1     145.871 164.229 188.092  0.00  0.00    +0.064 C 
ATOM     42  C   UNL     1     144.499 163.997 188.791  0.00  0.00    +0.020 C 
ATOM     43  C   UNL     1     151.291 167.902 191.915  0.00  0.00    -0.008 C 
ATOM     44  C   UNL     1     152.069 169.168 192.055  0.00  0.00    -0.083 C 
ATOM     45  C   UNL     1     151.436 170.316 192.306  0.00  0.00    -0.059 C 
ATOM     46  C   UNL     1     139.944 171.676 186.469  0.00  0.00    -0.008 C 
ATOM     47  C   UNL     1     140.659 170.895 185.416  0.00  0.00    -0.083 C 
ATOM     48  C   UNL     1     139.989 170.433 184.352  0.00  0.00    -0.059 C 
ATOM     49  H   UNL     1     142.665 164.853 189.447  0.00  0.00    +0.074 HD
ATOM     50  H   UNL     1     140.400 164.867 185.554  0.00  0.00    +0.069 HD
ATOM     51  H   UNL     1     142.555 167.080 185.554  0.00  0.00    +0.062 HD
ATOM     52  H   UNL     1     139.165 166.704 184.509  0.00  0.00    +0.058 HD
ATOM     53  H   UNL     1     139.812 168.447 182.068  0.00  0.00    +0.033 HD
ATOM     54  H   UNL     1     138.971 166.945 181.789  0.00  0.00    +0.033 HD
ATOM     55  H   UNL     1     137.083 167.578 183.016  0.00  0.00    +0.060 HD
ATOM     56  H   UNL     1     137.995 168.679 185.039  0.00  0.00    +0.032 HD
ATOM     57  H   UNL     1     136.670 169.508 184.284  0.00  0.00    +0.032 HD
ATOM     58  H   UNL     1     138.309 171.158 183.243  0.00  0.00    +0.064 HD
ATOM     59  H   UNL     1     138.085 172.707 186.727  0.00  0.00    +0.060 HD
ATOM     60  H   UNL     1     137.972 173.873 184.558  0.00  0.00    +0.032 HD
ATOM     61  H   UNL     1     139.517 173.211 184.058  0.00  0.00    +0.032 HD
ATOM     62  H   UNL     1     140.609 174.354 186.036  0.00  0.00    +0.060 HD
ATOM     63  H   UNL     1     139.662 175.478 183.570  0.00  0.00    +0.035 HD
ATOM     64  H   UNL     1     141.562 177.062 183.790  0.00  0.00    +0.060 HD
ATOM     65  H   UNL     1     142.360 174.244 184.648  0.00  0.00    +0.032 HD
ATOM     66  H   UNL     1     141.852 174.652 182.992  0.00  0.00    +0.032 HD
ATOM     67  H   UNL     1     143.711 176.414 182.977  0.00  0.00    +0.060 HD
ATOM     68  H   UNL     1     145.647 174.928 182.803  0.00  0.00    +0.036 HD
ATOM     69  H   UNL     1     143.787 172.713 183.742  0.00  0.00    +0.074 HD
ATOM     70  H   UNL     1     146.324 174.009 187.087  0.00  0.00    +0.069 HD
ATOM     71  H   UNL     1     144.215 172.221 188.455  0.00  0.00    +0.062 HD
ATOM     72  H   UNL     1     147.608 172.792 189.153  0.00  0.00    +0.058 HD
ATOM     73  H   UNL     1     148.560 174.033 191.010  0.00  0.00    +0.033 HD
ATOM     74  H   UNL     1     147.067 174.095 191.872  0.00  0.00    +0.033 HD
ATOM     75  H   UNL     1     147.269 171.453 192.094  0.00  0.00    +0.060 HD
ATOM     76  H   UNL     1     150.115 172.298 191.375  0.00  0.00    +0.032 HD
ATOM     77  H   UNL     1     149.155 171.073 190.531  0.00  0.00    +0.032 HD
ATOM     78  H   UNL     1     149.782 170.748 193.505  0.00  0.00    +0.064 HD
ATOM     79  H   UNL     1     149.810 168.561 190.466  0.00  0.00    +0.060 HD
ATOM     80  H   UNL     1     147.912 167.247 191.406  0.00  0.00    +0.032 HD
ATOM     81  H   UNL     1     148.921 166.655 192.685  0.00  0.00    +0.032 HD
ATOM     82  H   UNL     1     148.499 164.951 191.055  0.00  0.00    +0.060 HD
ATOM     83  H   UNL     1     148.582 166.896 189.122  0.00  0.00    +0.035 HD
ATOM     84  H   UNL     1     148.135 165.311 187.470  0.00  0.00    +0.060 HD
ATOM     85  H   UNL     1     147.101 163.675 189.771  0.00  0.00    +0.032 HD
ATOM     86  H   UNL     1     146.644 165.372 189.763  0.00  0.00    +0.032 HD
ATOM     87  H   UNL     1     145.783 165.028 187.351  0.00  0.00    +0.060 HD
ATOM     88  H   UNL     1     144.701 163.733 189.839  0.00  0.00    +0.036 HD
ATOM     89  H   UNL     1     151.789 167.267 191.175  0.00  0.00    +0.033 HD
ATOM     90  H   UNL     1     151.324 167.382 192.879  0.00  0.00    +0.033 HD
ATOM     91  H   UNL     1     153.152 169.127 191.992  0.00  0.00    +0.057 HD
ATOM     92  H   UNL     1     152.019 171.224 192.443  0.00  0.00    +0.059 HD
ATOM     93  H   UNL     1     139.655 170.975 187.262  0.00  0.00    +0.033 HD
ATOM     94  H   UNL     1     140.616 172.409 186.919  0.00  0.00    +0.033 HD
ATOM     95  H   UNL     1     141.727 170.724 185.521  0.00  0.00    +0.057 HD
ATOM     96  H   UNL     1     140.544 169.924 183.573  0.00  0.00    +0.059 HD
ENDROOT
BRANCH  28  97
ATOM     97  C   UNL     1     144.598 173.692 190.706  0.00  0.00    -0.040 C 
ATOM     98  H   UNL     1     144.498 174.783 190.730  0.00  0.00    +0.028 HD
ATOM     99  H   UNL     1     144.889 173.353 191.707  0.00  0.00    +0.028 HD
ATOM    100  H   UNL     1     143.601 173.295 190.496  0.00  0.00    +0.028 HD
ENDBRANCH  28  97
BRANCH  21 101
ATOM    101  C   UNL     1     144.144 174.285 181.421  0.00  0.00    -0.057 C 
ATOM    102  H   UNL     1     143.115 174.643 181.306  0.00  0.00    +0.023 HD
ATOM    103  H   UNL     1     144.169 173.232 181.124  0.00  0.00    +0.023 HD
ATOM    104  H   UNL     1     144.774 174.827 180.707  0.00  0.00    +0.023 HD
ENDBRANCH  21 101
BRANCH  42 105
ATOM    105  C   UNL     1     143.772 162.765 188.201  0.00  0.00    -0.057 C 
ATOM    106  H   UNL     1     142.755 162.680 188.597  0.00  0.00    +0.023 HD
ATOM    107  H   UNL     1     143.715 162.815 187.108  0.00  0.00    +0.023 HD
ATOM    108  H   UNL     1     144.287 161.836 188.473  0.00  0.00    +0.023 HD
ENDBRANCH  42 105
BRANCH  17 109
ATOM    109  C   UNL     1     139.128 177.116 184.806  0.00  0.00    -0.058 C 
ATOM    110  H   UNL     1     138.473 177.349 183.961  0.00  0.00    +0.023 HD
ATOM    111  H   UNL     1     138.493 177.001 185.692  0.00  0.00    +0.023 HD
ATOM    112  H   UNL     1     139.782 177.976 184.986  0.00  0.00    +0.023 HD
ENDBRANCH  17 109
BRANCH  38 113
ATOM    113  C   UNL     1     150.507 166.157 188.558  0.00  0.00    -0.058 C 
ATOM    114  H   UNL     1     150.877 165.230 188.103  0.00  0.00    +0.023 HD
ATOM    115  H   UNL     1     151.264 166.509 189.264  0.00  0.00    +0.023 HD
ATOM    116  H   UNL     1     150.433 166.901 187.756  0.00  0.00    +0.023 HD
ENDBRANCH  38 113
BRANCH   7 117
ATOM    117  C   UNL     1     142.205 167.364 182.910  0.00  0.00    -0.040 C 
ATOM    118  H   UNL     1     143.044 166.658 182.894  0.00  0.00    +0.028 HD
ATOM    119  H   UNL     1     142.589 168.355 183.161  0.00  0.00    +0.028 HD
ATOM    120  H   UNL     1     141.812 167.399 181.891  0.00  0.00    +0.028 HD
ENDBRANCH   7 117
BRANCH   1 121
ATOM    121  C   UNL     1     143.904 166.561 189.520  0.00  0.00    +0.020 C 
ATOM    122  H   UNL     1     142.967 167.141 189.533  0.00  0.00    +0.036 HD
BRANCH 121 123
ATOM    123  C   UNL     1     144.285 166.272 190.984  0.00  0.00    -0.057 C 
ATOM    124  H   UNL     1     144.546 167.191 191.513  0.00  0.00    +0.023 HD
ATOM    125  H   UNL     1     145.129 165.585 191.066  0.00  0.00    +0.023 HD
ATOM    126  H   UNL     1     143.451 165.845 191.550  0.00  0.00    +0.023 HD
ENDBRANCH 121 123
BRANCH 121 127
ATOM    127  C   UNL     1     144.928 167.477 188.767  0.00  0.00    +0.064 C 
ATOM    128  H   UNL     1     145.619 166.841 188.221  0.00  0.00    +0.060 HD
BRANCH 127 129
ATOM    129  C   UNL     1     145.786 168.498 189.587  0.00  0.00    -0.017 C 
ATOM    130  H   UNL     1     145.921 168.087 190.597  0.00  0.00    +0.032 HD
BRANCH 129 131
ATOM    131  C   UNL     1     147.187 168.792 189.053  0.00  0.00    -0.060 C 
ATOM    132  H   UNL     1     147.431 169.853 189.159  0.00  0.00    +0.023 HD
ATOM    133  H   UNL     1     147.947 168.181 189.544  0.00  0.00    +0.023 HD
ATOM    134  H   UNL     1     147.244 168.580 187.977  0.00  0.00    +0.023 HD
ENDBRANCH 129 131
BRANCH 129 135
ATOM    135  C   UNL     1     145.043 169.859 189.735  0.00  0.00    -0.046 C 
ATOM    136  H   UNL     1     144.422 170.037 188.850  0.00  0.00    +0.027 HD
ATOM    137  H   UNL     1     145.780 170.665 189.739  0.00  0.00    +0.027 HD
BRANCH 135 138
ATOM    138  C   UNL     1     144.203 169.987 191.005  0.00  0.00    -0.026 C 
ATOM    139  H   UNL     1     144.484 170.902 191.534  0.00  0.00    +0.029 HD
ATOM    140  H   UNL     1     144.434 169.165 191.687  0.00  0.00    +0.029 HD
BRANCH 138 143
ATOM    141  C   UNL     1     141.098 169.863 188.936  0.00  0.00    +0.059 C 
ATOM    142  O   UNL     1     142.471 170.044 189.315  0.00  0.00    -0.373 OA
ATOM    143  C   UNL     1     142.690 170.003 190.728  0.00  0.00    +0.061 C 
ATOM    144  C   UNL     1     142.005 171.204 191.383  0.00  0.00    -0.000 C 
ATOM    145  C   UNL     1     140.711 171.612 190.669  0.00  0.00    +0.063 C 
ATOM    146  C   UNL     1     140.107 170.404 189.966  0.00  0.00    -0.000 C 
ATOM    147  H   UNL     1     140.975 170.435 188.008  0.00  0.00    +0.059 HD
ATOM    148  H   UNL     1     142.250 169.074 191.107  0.00  0.00    +0.060 HD
ATOM    149  H   UNL     1     141.819 170.978 192.436  0.00  0.00    +0.032 HD
ATOM    150  H   UNL     1     142.667 172.078 191.378  0.00  0.00    +0.032 HD
ATOM    151  H   UNL     1     140.947 172.394 189.935  0.00  0.00    +0.060 HD
ATOM    152  H   UNL     1     139.856 169.644 190.719  0.00  0.00    +0.032 HD
ATOM    153  H   UNL     1     139.159 170.646 189.474  0.00  0.00    +0.032 HD
BRANCH 141 154
ATOM    154  C   UNL     1     140.832 168.395 188.617  0.00  0.00    -0.039 C 
ATOM    155  H   UNL     1     139.764 168.205 188.480  0.00  0.00    +0.025 HD
ATOM    156  H   UNL     1     141.359 168.090 187.707  0.00  0.00    +0.025 HD
ATOM    157  H   UNL     1     141.164 167.756 189.440  0.00  0.00    +0.025 HD
ENDBRANCH 141 154
BRANCH 145 158
ATOM    158  O   UNL     1     139.829 172.150 191.661  0.00  0.00    -0.380 OA
BRANCH 158 159
ATOM    159  C   UNL     1     140.442 173.116 192.505  0.00  0.00    +0.037 C 
ATOM    160  H   UNL     1     140.821 173.926 191.876  0.00  0.00    +0.052 HD
ATOM    161  H   UNL     1     141.291 172.678 193.039  0.00  0.00    +0.052 HD
ATOM    162  H   UNL     1     139.724 173.534 193.217  0.00  0.00    +0.052 HD
ENDBRANCH 158 159
ENDBRANCH 145 158
ENDBRANCH 138 143
ENDBRANCH 135 138
ENDBRANCH 129 135
ENDBRANCH 127 129
BRANCH 127 163
ATOM    163  O   UNL     1     144.273 168.266 187.764  0.00  0.00    -0.391 OA
ATOM    164  H   UNL     1     144.361 169.207 187.991  0.00  0.00    +0.210 HD
ENDBRANCH 127 163
ENDBRANCH 121 127
ENDBRANCH   1 121
BRANCH  41 165
ATOM    165  O   UNL     1     146.274 163.053 187.383  0.00  0.00    -0.391 OA
ATOM    166  H   UNL     1     146.711 162.437 188.006  0.00  0.00    +0.210 HD
ENDBRANCH  41 165
BRANCH  39 167
ATOM    167  O   UNL     1     149.029 163.681 188.278  0.00  0.00    -0.391 OA
ATOM    168  H   UNL     1     149.984 163.878 188.320  0.00  0.00    +0.210 HD
ENDBRANCH  39 167
BRANCH  31 169
ATOM    169  O   UNL     1     148.332 172.629 193.396  0.00  0.00    -0.391 OA
ATOM    170  H   UNL     1     148.547 173.577 193.351  0.00  0.00    +0.210 HD
ENDBRANCH  31 169
BRANCH  22 171
ATOM    171  C   UNL     1     145.651 172.031 182.851  0.00  0.00    +0.020 C 
ATOM    172  H   UNL     1     145.704 172.352 181.806  0.00  0.00    +0.036 HD
BRANCH 171 173
ATOM    173  C   UNL     1     147.076 171.937 183.401  0.00  0.00    -0.057 C 
ATOM    174  H   UNL     1     147.258 172.705 184.154  0.00  0.00    +0.023 HD
ATOM    175  H   UNL     1     147.823 172.057 182.611  0.00  0.00    +0.023 HD
ATOM    176  H   UNL     1     147.269 170.963 183.861  0.00  0.00    +0.023 HD
ENDBRANCH 171 173
BRANCH 171 177
ATOM    177  C   UNL     1     144.941 170.651 182.859  0.00  0.00    +0.064 C 
ATOM    178  H   UNL     1     145.439 170.001 183.586  0.00  0.00    +0.060 HD
BRANCH 177 179
ATOM    179  O   UNL     1     143.600 170.856 183.308  0.00  0.00    -0.391 OA
ATOM    180  H   UNL     1     143.277 169.982 183.624  0.00  0.00    +0.210 HD
ENDBRANCH 177 179
BRANCH 177 181
ATOM    181  C   UNL     1     144.901 169.865 181.517  0.00  0.00    -0.017 C 
ATOM    182  H   UNL     1     143.965 169.290 181.492  0.00  0.00    +0.032 HD
BRANCH 181 183
ATOM    183  C   UNL     1     144.847 170.863 180.347  0.00  0.00    -0.060 C 
ATOM    184  H   UNL     1     144.924 171.898 180.698  0.00  0.00    +0.023 HD
ATOM    185  H   UNL     1     145.653 170.688 179.629  0.00  0.00    +0.023 HD
ATOM    186  H   UNL     1     143.909 170.771 179.797  0.00  0.00    +0.023 HD
ENDBRANCH 181 183
BRANCH 181 187
ATOM    187  C   UNL     1     146.082 168.886 181.324  0.00  0.00    -0.046 C 
ATOM    188  H   UNL     1     146.902 169.148 182.000  0.00  0.00    +0.027 HD
ATOM    189  H   UNL     1     146.473 168.981 180.303  0.00  0.00    +0.027 HD
BRANCH 187 190
ATOM    190  C   UNL     1     145.690 167.425 181.605  0.00  0.00    -0.026 C 
ATOM    191  H   UNL     1     145.610 166.883 180.659  0.00  0.00    +0.029 HD
ATOM    192  H   UNL     1     144.694 167.404 182.063  0.00  0.00    +0.029 HD
BRANCH 190 193
ATOM    193  C   UNL     1     146.685 166.704 182.531  0.00  0.00    +0.061 C 
ATOM    194  O   UNL     1     146.172 165.466 183.031  0.00  0.00    -0.373 OA
ATOM    195  C   UNL     1     145.102 165.592 183.972  0.00  0.00    +0.059 C 
ATOM    196  C   UNL     1     145.534 166.414 185.185  0.00  0.00    -0.000 C 
ATOM    197  C   UNL     1     146.079 167.776 184.754  0.00  0.00    +0.063 C 
ATOM    198  C   UNL     1     147.159 167.584 183.688  0.00  0.00    -0.000 C 
ATOM    199  H   UNL     1     147.564 166.446 181.929  0.00  0.00    +0.060 HD
ATOM    200  H   UNL     1     144.241 166.060 183.482  0.00  0.00    +0.059 HD
ATOM    201  H   UNL     1     146.315 165.884 185.746  0.00  0.00    +0.032 HD
ATOM    202  H   UNL     1     144.690 166.535 185.874  0.00  0.00    +0.032 HD
ATOM    203  H   UNL     1     145.272 168.393 184.342  0.00  0.00    +0.060 HD
ATOM    204  H   UNL     1     148.030 167.111 184.163  0.00  0.00    +0.032 HD
ATOM    205  H   UNL     1     147.512 168.559 183.328  0.00  0.00    +0.032 HD
BRANCH 195 206
ATOM    206  C   UNL     1     144.694 164.183 184.389  0.00  0.00    -0.039 C 
ATOM    207  H   UNL     1     145.466 163.736 185.024  0.00  0.00    +0.025 HD
ATOM    208  H   UNL     1     144.544 163.541 183.515  0.00  0.00    +0.025 HD
ATOM    209  H   UNL     1     143.771 164.201 184.979  0.00  0.00    +0.025 HD
ENDBRANCH 195 206
BRANCH 197 210
ATOM    210  O   UNL     1     146.684 168.472 185.851  0.00  0.00    -0.380 OA
BRANCH 210 211
ATOM    211  C   UNL     1     147.957 169.029 185.545  0.00  0.00    +0.037 C 
ATOM    212  H   UNL     1     148.243 168.689 184.545  0.00  0.00    +0.052 HD
ATOM    213  H   UNL     1     148.716 168.683 186.252  0.00  0.00    +0.052 HD
ATOM    214  H   UNL     1     147.911 170.122 185.542  0.00  0.00    +0.052 HD
ENDBRANCH 210 211
ENDBRANCH 197 210
ENDBRANCH 190 193
ENDBRANCH 187 190
ENDBRANCH 181 187
ENDBRANCH 177 181
ENDBRANCH 171 177
ENDBRANCH  22 171
BRANCH  20 215
ATOM    215  O   UNL     1     144.360 175.927 184.835  0.00  0.00    -0.391 OA
ATOM    216  H   UNL     1     143.686 176.419 185.338  0.00  0.00    +0.210 HD
ENDBRANCH  20 215
BRANCH  18 217
ATOM    217  O   UNL     1     141.949 176.606 185.739  0.00  0.00    -0.391 OA
ATOM    218  H   UNL     1     141.163 176.772 186.299  0.00  0.00    +0.210 HD
ENDBRANCH  18 217
BRANCH  10 219
ATOM    219  O   UNL     1     137.391 169.136 181.747  0.00  0.00    -0.391 OA
ATOM    220  H   UNL     1     137.351 170.073 182.014  0.00  0.00    +0.210 HD
ENDBRANCH  10 219
BRANCH  37 221
ATOM    221  O   UNL     1     150.525 165.092 191.070  0.00  0.00    -0.379 OA
BRANCH 221 222
ATOM    222  C   UNL     1     150.455 163.941 191.902  0.00  0.00    +0.037 C 
ATOM    223  H   UNL     1     150.228 163.080 191.268  0.00  0.00    +0.052 HD
ATOM    224  H   UNL     1     151.410 163.754 192.398  0.00  0.00    +0.052 HD
ATOM    225  H   UNL     1     149.658 164.046 192.644  0.00  0.00    +0.052 HD
ENDBRANCH 221 222
ENDBRANCH  37 221
BRANCH  16 226
ATOM    226  O   UNL     1     138.806 175.177 186.668  0.00  0.00    -0.379 OA
BRANCH 226 227
ATOM    227  C   UNL     1     139.468 175.260 187.924  0.00  0.00    +0.037 C 
ATOM    228  H   UNL     1     140.504 175.597 187.814  0.00  0.00    +0.052 HD
ATOM    229  H   UNL     1     139.441 174.283 188.419  0.00  0.00    +0.052 HD
ATOM    230  H   UNL     1     138.935 175.984 188.549  0.00  0.00    +0.052 HD
ENDBRANCH 226 227
ENDBRANCH  16 226
TORSDOF 40
ENDMDL
MODEL 4
REMARK VINA RESULT:      -4.8      2.171      8.831
REMARK  Name = Swinholide A_conf1
REMARK  40 active torsions:
REMARK  status: ('A' for Active; 'I' for Inactive)
REMARK    1  A    between atoms: C_1  and  C_2
REMARK    2  A    between atoms: C_4  and  C_10
REMARK    3  A    between atoms: C_6  and  O_8
REMARK    4  A    between atoms: O_8  and  C_9
REMARK    5  A    between atoms: C_10  and  C_11
REMARK    6  A    between atoms: C_11  and  C_12
REMARK    7  A    between atoms: C_12  and  C_13
REMARK    8  A    between atoms: C_12  and  C_98
REMARK    9  A    between atoms: C_13  and  O_14
REMARK   10  A    between atoms: C_13  and  C_15
REMARK   11  A    between atoms: C_15  and  C_16
REMARK   12  A    between atoms: C_15  and  C_97
REMARK   13  A    between atoms: C_22  and  C_96
REMARK   14  A    between atoms: C_25  and  O_95
REMARK   15  A    between atoms: C_31  and  O_90
REMARK   16  A    between atoms: C_32  and  C_89
REMARK   17  A    between atoms: C_33  and  O_88
REMARK   18  A    between atoms: C_35  and  O_87
REMARK   19  A    between atoms: C_36  and  C_86
REMARK   20  A    between atoms: C_37  and  C_69
REMARK   21  A    between atoms: C_43  and  C_68
REMARK   22  A    between atoms: C_46  and  O_67
REMARK   23  A    between atoms: C_52  and  O_62
REMARK   24  A    between atoms: C_53  and  C_61
REMARK   25  A    between atoms: C_54  and  O_60
REMARK   26  A    between atoms: C_56  and  O_59
REMARK   27  A    between atoms: C_57  and  C_58
REMARK   28  A    between atoms: O_62  and  C_63
REMARK   29  A    between atoms: C_69  and  C_70
REMARK   30  A    between atoms: C_69  and  C_85
REMARK   31  A    between atoms: C_70  and  O_71
REMARK   32  A    between atoms: C_70  and  C_72
REMARK   33  A    between atoms: C_72  and  C_73
REMARK   34  A    between atoms: C_72  and  C_84
REMARK   35  A    between atoms: C_73  and  C_74
REMARK   36  A    between atoms: C_74  and  C_75
REMARK   37  A    between atoms: C_77  and  C_83
REMARK   38  A    between atoms: C_79  and  O_81
REMARK   39  A    between atoms: O_81  and  C_82
REMARK   40  A    between atoms: O_90  and  C_91
REMARK                            x       y       z     vdW  Elec       q    Type
REMARK                         _______ _______ _______ _____ _____    ______ ____
ROOT
ATOM      1  C   UNL     1     149.676 167.830 192.009  0.00  0.00    +0.113 C 
ATOM      2  O   UNL     1     150.885 167.647 191.221  0.00  0.00    -0.458 OA
ATOM      3  C   UNL     1     152.028 167.422 191.926  0.00  0.00    +0.332 C 
ATOM      4  O   UNL     1     152.133 167.405 193.147  0.00  0.00    -0.246 OA
ATOM      5  C   UNL     1     153.198 167.194 191.064  0.00  0.00    +0.023 C 
ATOM      6  C   UNL     1     153.138 166.744 189.802  0.00  0.00    -0.052 C 
ATOM      7  C   UNL     1     154.298 166.387 188.993  0.00  0.00    -0.054 C 
ATOM      8  C   UNL     1     155.321 165.671 189.506  0.00  0.00    -0.079 C 
ATOM      9  C   UNL     1     156.453 165.056 188.721  0.00  0.00    -0.008 C 
ATOM     10  C   UNL     1     157.001 163.742 189.311  0.00  0.00    +0.061 C 
ATOM     11  C   UNL     1     155.997 162.673 189.766  0.00  0.00    +0.003 C 
ATOM     12  C   UNL     1     155.164 161.941 188.697  0.00  0.00    +0.080 C 
ATOM     13  O   UNL     1     154.680 160.757 189.379  0.00  0.00    -0.369 OA
ATOM     14  C   UNL     1     153.464 160.174 188.882  0.00  0.00    +0.065 C 
ATOM     15  C   UNL     1     153.681 159.538 187.493  0.00  0.00    +0.000 C 
ATOM     16  C   UNL     1     152.458 158.752 186.973  0.00  0.00    +0.066 C 
ATOM     17  C   UNL     1     152.741 158.210 185.538  0.00  0.00    +0.009 C 
ATOM     18  C   UNL     1     151.699 158.692 184.496  0.00  0.00    +0.063 C 
ATOM     19  C   UNL     1     151.743 160.217 184.251  0.00  0.00    -0.000 C 
ATOM     20  C   UNL     1     150.858 160.623 183.055  0.00  0.00    +0.064 C 
ATOM     21  C   UNL     1     150.985 162.114 182.610  0.00  0.00    +0.020 C 
ATOM     22  C   UNL     1     150.659 163.141 183.740  0.00  0.00    +0.113 C 
ATOM     23  O   UNL     1     149.288 162.901 184.153  0.00  0.00    -0.458 OA
ATOM     24  C   UNL     1     149.060 162.840 185.492  0.00  0.00    +0.332 C 
ATOM     25  O   UNL     1     149.869 163.078 186.372  0.00  0.00    -0.246 OA
ATOM     26  C   UNL     1     147.645 162.471 185.723  0.00  0.00    +0.023 C 
ATOM     27  C   UNL     1     147.206 162.316 186.981  0.00  0.00    -0.052 C 
ATOM     28  C   UNL     1     145.843 161.986 187.380  0.00  0.00    -0.054 C 
ATOM     29  C   UNL     1     144.788 162.696 186.930  0.00  0.00    -0.079 C 
ATOM     30  C   UNL     1     143.339 162.504 187.285  0.00  0.00    -0.008 C 
ATOM     31  C   UNL     1     142.762 163.558 188.261  0.00  0.00    +0.061 C 
ATOM     32  C   UNL     1     142.401 164.888 187.566  0.00  0.00    +0.003 C 
ATOM     33  C   UNL     1     141.582 165.844 188.461  0.00  0.00    +0.080 C 
ATOM     34  O   UNL     1     142.423 166.563 189.380  0.00  0.00    -0.369 OA
ATOM     35  C   UNL     1     142.812 167.901 188.996  0.00  0.00    +0.065 C 
ATOM     36  C   UNL     1     143.611 168.456 190.189  0.00  0.00    +0.000 C 
ATOM     37  C   UNL     1     144.255 169.859 190.084  0.00  0.00    +0.066 C 
ATOM     38  C   UNL     1     145.331 169.931 188.957  0.00  0.00    +0.009 C 
ATOM     39  C   UNL     1     146.669 170.584 189.405  0.00  0.00    +0.063 C 
ATOM     40  C   UNL     1     147.223 170.041 190.733  0.00  0.00    -0.000 C 
ATOM     41  C   UNL     1     148.763 170.007 190.767  0.00  0.00    +0.064 C 
ATOM     42  C   UNL     1     149.276 169.347 192.081  0.00  0.00    +0.020 C 
ATOM     43  C   UNL     1     141.585 168.763 188.669  0.00  0.00    -0.008 C 
ATOM     44  C   UNL     1     140.676 168.066 187.712  0.00  0.00    -0.083 C 
ATOM     45  C   UNL     1     140.687 166.734 187.630  0.00  0.00    -0.059 C 
ATOM     46  C   UNL     1     152.342 161.223 188.965  0.00  0.00    -0.008 C 
ATOM     47  C   UNL     1     152.747 162.481 188.270  0.00  0.00    -0.083 C 
ATOM     48  C   UNL     1     154.044 162.781 188.129  0.00  0.00    -0.059 C 
ATOM     49  H   UNL     1     149.899 167.559 193.052  0.00  0.00    +0.074 HD
ATOM     50  H   UNL     1     154.147 167.334 191.572  0.00  0.00    +0.069 HD
ATOM     51  H   UNL     1     152.179 166.574 189.316  0.00  0.00    +0.062 HD
ATOM     52  H   UNL     1     155.319 165.435 190.568  0.00  0.00    +0.058 HD
ATOM     53  H   UNL     1     156.179 164.887 187.674  0.00  0.00    +0.033 HD
ATOM     54  H   UNL     1     157.280 165.780 188.690  0.00  0.00    +0.033 HD
ATOM     55  H   UNL     1     157.594 164.016 190.193  0.00  0.00    +0.060 HD
ATOM     56  H   UNL     1     155.328 163.078 190.536  0.00  0.00    +0.032 HD
ATOM     57  H   UNL     1     156.581 161.903 190.291  0.00  0.00    +0.032 HD
ATOM     58  H   UNL     1     155.810 161.598 187.882  0.00  0.00    +0.064 HD
ATOM     59  H   UNL     1     153.219 159.372 189.589  0.00  0.00    +0.060 HD
ATOM     60  H   UNL     1     154.541 158.858 187.573  0.00  0.00    +0.032 HD
ATOM     61  H   UNL     1     153.967 160.302 186.760  0.00  0.00    +0.032 HD
ATOM     62  H   UNL     1     151.598 159.430 186.956  0.00  0.00    +0.060 HD
ATOM     63  H   UNL     1     153.709 158.604 185.196  0.00  0.00    +0.035 HD
ATOM     64  H   UNL     1     151.901 158.186 183.544  0.00  0.00    +0.060 HD
ATOM     65  H   UNL     1     151.374 160.728 185.148  0.00  0.00    +0.032 HD
ATOM     66  H   UNL     1     152.779 160.526 184.075  0.00  0.00    +0.032 HD
ATOM     67  H   UNL     1     151.124 159.996 182.194  0.00  0.00    +0.060 HD
ATOM     68  H   UNL     1     150.235 162.245 181.819  0.00  0.00    +0.036 HD
ATOM     69  H   UNL     1     151.352 162.933 184.563  0.00  0.00    +0.074 HD
ATOM     70  H   UNL     1     147.009 162.333 184.859  0.00  0.00    +0.069 HD
ATOM     71  H   UNL     1     147.907 162.440 187.808  0.00  0.00    +0.062 HD
ATOM     72  H   UNL     1     144.963 163.501 186.218  0.00  0.00    +0.058 HD
ATOM     73  H   UNL     1     142.752 162.506 186.356  0.00  0.00    +0.033 HD
ATOM     74  H   UNL     1     143.172 161.501 187.694  0.00  0.00    +0.033 HD
ATOM     75  H   UNL     1     143.456 163.749 189.087  0.00  0.00    +0.060 HD
ATOM     76  H   UNL     1     141.808 164.643 186.675  0.00  0.00    +0.032 HD
ATOM     77  H   UNL     1     143.320 165.381 187.226  0.00  0.00    +0.032 HD
ATOM     78  H   UNL     1     140.904 165.261 189.094  0.00  0.00    +0.064 HD
ATOM     79  H   UNL     1     143.462 167.815 188.118  0.00  0.00    +0.060 HD
ATOM     80  H   UNL     1     144.408 167.734 190.424  0.00  0.00    +0.032 HD
ATOM     81  H   UNL     1     142.958 168.430 191.070  0.00  0.00    +0.032 HD
ATOM     82  H   UNL     1     144.747 170.023 191.047  0.00  0.00    +0.060 HD
ATOM     83  H   UNL     1     145.601 168.903 188.692  0.00  0.00    +0.035 HD
ATOM     84  H   UNL     1     147.396 170.389 188.606  0.00  0.00    +0.060 HD
ATOM     85  H   UNL     1     146.877 170.688 191.552  0.00  0.00    +0.032 HD
ATOM     86  H   UNL     1     146.826 169.048 190.921  0.00  0.00    +0.032 HD
ATOM     87  H   UNL     1     149.162 169.474 189.899  0.00  0.00    +0.060 HD
ATOM     88  H   UNL     1     148.470 169.420 192.825  0.00  0.00    +0.036 HD
ATOM     89  H   UNL     1     141.892 169.717 188.227  0.00  0.00    +0.033 HD
ATOM     90  H   UNL     1     141.009 168.983 189.575  0.00  0.00    +0.033 HD
ATOM     91  H   UNL     1     139.982 168.658 187.123  0.00  0.00    +0.057 HD
ATOM     92  H   UNL     1     139.992 166.238 186.955  0.00  0.00    +0.059 HD
ATOM     93  H   UNL     1     152.146 161.474 190.016  0.00  0.00    +0.033 HD
ATOM     94  H   UNL     1     151.407 160.843 188.547  0.00  0.00    +0.033 HD
ATOM     95  H   UNL     1     151.977 163.133 187.870  0.00  0.00    +0.057 HD
ATOM     96  H   UNL     1     154.312 163.668 187.566  0.00  0.00    +0.059 HD
ENDROOT
BRANCH  28  97
ATOM     97  C   UNL     1     145.767 160.875 188.396  0.00  0.00    -0.040 C 
ATOM     98  H   UNL     1     144.943 160.189 188.164  0.00  0.00    +0.028 HD
ATOM     99  H   UNL     1     145.594 161.292 189.394  0.00  0.00    +0.028 HD
ATOM    100  H   UNL     1     146.673 160.266 188.440  0.00  0.00    +0.028 HD
ENDBRANCH  28  97
BRANCH  21 101
ATOM    101  C   UNL     1     152.366 162.353 181.990  0.00  0.00    -0.057 C 
ATOM    102  H   UNL     1     152.291 162.803 180.995  0.00  0.00    +0.023 HD
ATOM    103  H   UNL     1     152.926 161.417 181.894  0.00  0.00    +0.023 HD
ATOM    104  H   UNL     1     152.971 163.016 182.618  0.00  0.00    +0.023 HD
ENDBRANCH  21 101
BRANCH  42 105
ATOM    105  C   UNL     1     150.454 170.148 192.686  0.00  0.00    -0.057 C 
ATOM    106  H   UNL     1     151.414 169.679 192.446  0.00  0.00    +0.023 HD
ATOM    107  H   UNL     1     150.471 171.180 192.319  0.00  0.00    +0.023 HD
ATOM    108  H   UNL     1     150.390 170.177 193.780  0.00  0.00    +0.023 HD
ENDBRANCH  42 105
BRANCH  17 109
ATOM    109  C   UNL     1     152.865 156.680 185.484  0.00  0.00    -0.058 C 
ATOM    110  H   UNL     1     152.411 156.199 186.356  0.00  0.00    +0.023 HD
ATOM    111  H   UNL     1     152.363 156.286 184.593  0.00  0.00    +0.023 HD
ATOM    112  H   UNL     1     153.915 156.375 185.427  0.00  0.00    +0.023 HD
ENDBRANCH  17 109
BRANCH  38 113
ATOM    113  C   UNL     1     144.826 170.618 187.676  0.00  0.00    -0.058 C 
ATOM    114  H   UNL     1     145.428 171.494 187.410  0.00  0.00    +0.023 HD
ATOM    115  H   UNL     1     143.787 170.942 187.782  0.00  0.00    +0.023 HD
ATOM    116  H   UNL     1     144.870 169.927 186.825  0.00  0.00    +0.023 HD
ENDBRANCH  38 113
BRANCH   7 117
ATOM    117  C   UNL     1     154.185 166.788 187.549  0.00  0.00    -0.040 C 
ATOM    118  H   UNL     1     154.852 166.182 186.925  0.00  0.00    +0.028 HD
ATOM    119  H   UNL     1     154.454 167.839 187.427  0.00  0.00    +0.028 HD
ATOM    120  H   UNL     1     153.177 166.646 187.151  0.00  0.00    +0.028 HD
ENDBRANCH   7 117
BRANCH   1 121
ATOM    121  C   UNL     1     148.622 166.742 191.583  0.00  0.00    +0.020 C 
ATOM    122  H   UNL     1     148.080 167.213 190.747  0.00  0.00    +0.036 HD
BRANCH 121 123
ATOM    123  C   UNL     1     149.370 165.522 191.015  0.00  0.00    -0.057 C 
ATOM    124  H   UNL     1     149.309 165.495 189.925  0.00  0.00    +0.023 HD
ATOM    125  H   UNL     1     148.976 164.579 191.398  0.00  0.00    +0.023 HD
ATOM    126  H   UNL     1     150.440 165.553 191.240  0.00  0.00    +0.023 HD
ENDBRANCH 121 123
BRANCH 121 127
ATOM    127  C   UNL     1     147.508 166.378 192.623  0.00  0.00    +0.064 C 
ATOM    128  H   UNL     1     147.899 165.614 193.290  0.00  0.00    +0.060 HD
BRANCH 127 129
ATOM    129  C   UNL     1     146.118 165.875 192.108  0.00  0.00    -0.017 C 
ATOM    130  H   UNL     1     146.165 164.781 192.029  0.00  0.00    +0.032 HD
BRANCH 129 131
ATOM    131  C   UNL     1     144.911 166.191 192.989  0.00  0.00    -0.060 C 
ATOM    132  H   UNL     1     144.794 167.270 193.122  0.00  0.00    +0.023 HD
ATOM    133  H   UNL     1     143.990 165.760 192.589  0.00  0.00    +0.023 HD
ATOM    134  H   UNL     1     145.050 165.781 193.999  0.00  0.00    +0.023 HD
ENDBRANCH 129 131
BRANCH 129 135
ATOM    135  C   UNL     1     145.818 166.430 190.683  0.00  0.00    -0.046 C 
ATOM    136  H   UNL     1     146.492 167.265 190.464  0.00  0.00    +0.027 HD
ATOM    137  H   UNL     1     144.813 166.859 190.676  0.00  0.00    +0.027 HD
BRANCH 135 138
ATOM    138  C   UNL     1     145.890 165.386 189.569  0.00  0.00    -0.026 C 
ATOM    139  H   UNL     1     144.878 165.060 189.313  0.00  0.00    +0.029 HD
ATOM    140  H   UNL     1     146.409 164.495 189.929  0.00  0.00    +0.029 HD
BRANCH 138 143
ATOM    141  C   UNL     1     148.211 167.521 187.571  0.00  0.00    +0.059 C 
ATOM    142  O   UNL     1     147.355 167.069 188.632  0.00  0.00    -0.373 OA
ATOM    143  C   UNL     1     146.594 165.904 188.303  0.00  0.00    +0.061 C 
ATOM    144  C   UNL     1     145.595 166.245 187.197  0.00  0.00    -0.000 C 
ATOM    145  C   UNL     1     146.130 167.295 186.215  0.00  0.00    +0.063 C 
ATOM    146  C   UNL     1     147.651 167.235 186.177  0.00  0.00    -0.000 C 
ATOM    147  H   UNL     1     148.280 168.608 187.696  0.00  0.00    +0.059 HD
ATOM    148  H   UNL     1     147.292 165.138 187.947  0.00  0.00    +0.060 HD
ATOM    149  H   UNL     1     145.311 165.328 186.675  0.00  0.00    +0.032 HD
ATOM    150  H   UNL     1     144.667 166.645 187.623  0.00  0.00    +0.032 HD
ATOM    151  H   UNL     1     145.803 168.288 186.551  0.00  0.00    +0.060 HD
ATOM    152  H   UNL     1     147.958 166.244 185.817  0.00  0.00    +0.032 HD
ATOM    153  H   UNL     1     148.072 167.946 185.458  0.00  0.00    +0.032 HD
BRANCH 141 154
ATOM    154  C   UNL     1     149.611 166.941 187.743  0.00  0.00    -0.039 C 
ATOM    155  H   UNL     1     150.065 166.704 186.777  0.00  0.00    +0.025 HD
ATOM    156  H   UNL     1     150.263 167.645 188.271  0.00  0.00    +0.025 HD
ATOM    157  H   UNL     1     149.575 166.008 188.313  0.00  0.00    +0.025 HD
ENDBRANCH 141 154
BRANCH 145 158
ATOM    158  O   UNL     1     145.551 167.016 184.936  0.00  0.00    -0.380 OA
BRANCH 158 159
ATOM    159  C   UNL     1     145.794 165.693 184.476  0.00  0.00    +0.037 C 
ATOM    160  H   UNL     1     146.846 165.621 184.186  0.00  0.00    +0.052 HD
ATOM    161  H   UNL     1     145.186 165.473 183.594  0.00  0.00    +0.052 HD
ATOM    162  H   UNL     1     145.599 164.957 185.262  0.00  0.00    +0.052 HD
ENDBRANCH 158 159
ENDBRANCH 145 158
ENDBRANCH 138 143
ENDBRANCH 135 138
ENDBRANCH 129 135
ENDBRANCH 127 129
BRANCH 127 163
ATOM    163  O   UNL     1     147.207 167.496 193.469  0.00  0.00    -0.391 OA
ATOM    164  H   UNL     1     148.022 167.794 193.907  0.00  0.00    +0.210 HD
ENDBRANCH 127 163
ENDBRANCH 121 127
ENDBRANCH   1 121
BRANCH  41 165
ATOM    165  O   UNL     1     149.233 171.356 190.671  0.00  0.00    -0.391 OA
ATOM    166  H   UNL     1     149.889 171.518 191.379  0.00  0.00    +0.210 HD
ENDBRANCH  41 165
BRANCH  39 167
ATOM    167  O   UNL     1     146.579 172.003 189.521  0.00  0.00    -0.391 OA
ATOM    168  H   UNL     1     145.658 172.230 189.755  0.00  0.00    +0.210 HD
ENDBRANCH  39 167
BRANCH  31 169
ATOM    169  O   UNL     1     141.567 162.994 188.820  0.00  0.00    -0.391 OA
ATOM    170  H   UNL     1     141.818 162.552 189.650  0.00  0.00    +0.210 HD
ENDBRANCH  31 169
BRANCH  22 171
ATOM    171  C   UNL     1     150.833 164.646 183.327  0.00  0.00    +0.020 C 
ATOM    172  H   UNL     1     151.142 164.648 182.277  0.00  0.00    +0.036 HD
BRANCH 171 173
ATOM    173  C   UNL     1     149.521 165.426 183.446  0.00  0.00    -0.057 C 
ATOM    174  H   UNL     1     148.809 165.115 182.680  0.00  0.00    +0.023 HD
ATOM    175  H   UNL     1     149.680 166.503 183.339  0.00  0.00    +0.023 HD
ATOM    176  H   UNL     1     149.050 165.280 184.422  0.00  0.00    +0.023 HD
ENDBRANCH 171 173
BRANCH 171 177
ATOM    177  C   UNL     1     151.976 165.319 184.132  0.00  0.00    +0.064 C 
ATOM    178  H   UNL     1     151.893 166.406 184.021  0.00  0.00    +0.060 HD
BRANCH 177 179
ATOM    179  O   UNL     1     151.776 165.008 185.512  0.00  0.00    -0.391 OA
ATOM    180  H   UNL     1     152.637 164.672 185.848  0.00  0.00    +0.210 HD
ENDBRANCH 177 179
BRANCH 177 181
ATOM    181  C   UNL     1     153.434 164.945 183.744  0.00  0.00    -0.017 C 
ATOM    182  H   UNL     1     153.387 164.212 182.927  0.00  0.00    +0.032 HD
BRANCH 181 183
ATOM    183  C   UNL     1     154.146 166.191 183.188  0.00  0.00    -0.060 C 
ATOM    184  H   UNL     1     153.961 166.314 182.116  0.00  0.00    +0.023 HD
ATOM    185  H   UNL     1     153.819 167.103 183.695  0.00  0.00    +0.023 HD
ATOM    186  H   UNL     1     155.226 166.122 183.331  0.00  0.00    +0.023 HD
ENDBRANCH 181 183
BRANCH 181 187
ATOM    187  C   UNL     1     154.259 164.337 184.902  0.00  0.00    -0.046 C 
ATOM    188  H   UNL     1     153.756 164.518 185.857  0.00  0.00    +0.027 HD
ATOM    189  H   UNL     1     155.234 164.836 184.959  0.00  0.00    +0.027 HD
BRANCH 187 190
ATOM    190  C   UNL     1     154.452 162.818 184.754  0.00  0.00    -0.026 C 
ATOM    191  H   UNL     1     153.618 162.400 184.185  0.00  0.00    +0.029 HD
ATOM    192  H   UNL     1     154.419 162.354 185.746  0.00  0.00    +0.029 HD
BRANCH 190 193
ATOM    193  C   UNL     1     155.780 162.445 184.070  0.00  0.00    +0.061 C 
ATOM    194  O   UNL     1     155.656 161.307 183.212  0.00  0.00    -0.373 OA
ATOM    195  C   UNL     1     155.441 160.064 183.887  0.00  0.00    +0.059 C 
ATOM    196  C   UNL     1     156.580 159.764 184.858  0.00  0.00    -0.000 C 
ATOM    197  C   UNL     1     156.778 160.919 185.840  0.00  0.00    +0.063 C 
ATOM    198  C   UNL     1     156.919 162.232 185.068  0.00  0.00    -0.000 C 
ATOM    199  H   UNL     1     156.061 163.283 183.422  0.00  0.00    +0.060 HD
ATOM    200  H   UNL     1     154.484 160.102 184.420  0.00  0.00    +0.059 HD
ATOM    201  H   UNL     1     157.517 159.604 184.309  0.00  0.00    +0.032 HD
ATOM    202  H   UNL     1     156.377 158.830 185.395  0.00  0.00    +0.032 HD
ATOM    203  H   UNL     1     155.919 160.990 186.518  0.00  0.00    +0.060 HD
ATOM    204  H   UNL     1     157.873 162.208 184.522  0.00  0.00    +0.032 HD
ATOM    205  H   UNL     1     156.999 163.074 185.767  0.00  0.00    +0.032 HD
BRANCH 195 206
ATOM    206  C   UNL     1     155.338 158.980 182.820  0.00  0.00    -0.039 C 
ATOM    207  H   UNL     1     154.490 159.179 182.156  0.00  0.00    +0.025 HD
ATOM    208  H   UNL     1     155.204 157.992 183.272  0.00  0.00    +0.025 HD
ATOM    209  H   UNL     1     156.234 158.963 182.190  0.00  0.00    +0.025 HD
ENDBRANCH 195 206
BRANCH 197 210
ATOM    210  O   UNL     1     157.972 160.752 186.616  0.00  0.00    -0.380 OA
BRANCH 210 211
ATOM    211  C   UNL     1     157.894 159.699 187.569  0.00  0.00    +0.037 C 
ATOM    212  H   UNL     1     158.616 159.908 188.364  0.00  0.00    +0.052 HD
ATOM    213  H   UNL     1     158.157 158.740 187.115  0.00  0.00    +0.052 HD
ATOM    214  H   UNL     1     156.894 159.649 188.011  0.00  0.00    +0.052 HD
ENDBRANCH 210 211
ENDBRANCH 197 210
ENDBRANCH 190 193
ENDBRANCH 187 190
ENDBRANCH 181 187
ENDBRANCH 177 181
ENDBRANCH 171 177
ENDBRANCH  22 171
BRANCH  20 215
ATOM    215  O   UNL     1     149.500 160.286 183.372  0.00  0.00    -0.391 OA
ATOM    216  H   UNL     1     149.093 159.919 182.566  0.00  0.00    +0.210 HD
ENDBRANCH  20 215
BRANCH  18 217
ATOM    217  O   UNL     1     150.387 158.298 184.905  0.00  0.00    -0.391 OA
ATOM    218  H   UNL     1     149.946 157.936 184.109  0.00  0.00    +0.210 HD
ENDBRANCH  18 217
BRANCH  10 219
ATOM    219  O   UNL     1     157.918 163.175 188.371  0.00  0.00    -0.391 OA
ATOM    220  H   UNL     1     157.569 162.301 188.115  0.00  0.00    +0.210 HD
ENDBRANCH  10 219
BRANCH  37 221
ATOM    221  O   UNL     1     143.310 170.918 189.925  0.00  0.00    -0.379 OA
BRANCH 221 222
ATOM    222  C   UNL     1     143.276 171.841 191.006  0.00  0.00    +0.037 C 
ATOM    223  H   UNL     1     143.449 171.284 191.930  0.00  0.00    +0.052 HD
ATOM    224  H   UNL     1     144.064 172.591 190.908  0.00  0.00    +0.052 HD
ATOM    225  H   UNL     1     142.297 172.327 191.070  0.00  0.00    +0.052 HD
ENDBRANCH 221 222
ENDBRANCH  37 221
BRANCH  16 226
ATOM    226  O   UNL     1     152.224 157.691 187.912  0.00  0.00    -0.379 OA
BRANCH 226 227
ATOM    227  C   UNL     1     150.882 157.657 188.382  0.00  0.00    +0.037 C 
ATOM    228  H   UNL     1     150.186 157.344 187.597  0.00  0.00    +0.052 HD
ATOM    229  H   UNL     1     150.600 158.646 188.761  0.00  0.00    +0.052 HD
ATOM    230  H   UNL     1     150.821 156.938 189.205  0.00  0.00    +0.052 HD
ENDBRANCH 226 227
ENDBRANCH  16 226
TORSDOF 40
ENDMDL
MODEL 5
REMARK VINA RESULT:      -4.7      2.814      9.014
REMARK  Name = Swinholide A_conf1
REMARK  40 active torsions:
REMARK  status: ('A' for Active; 'I' for Inactive)
REMARK    1  A    between atoms: C_1  and  C_2
REMARK    2  A    between atoms: C_4  and  C_10
REMARK    3  A    between atoms: C_6  and  O_8
REMARK    4  A    between atoms: O_8  and  C_9
REMARK    5  A    between atoms: C_10  and  C_11
REMARK    6  A    between atoms: C_11  and  C_12
REMARK    7  A    between atoms: C_12  and  C_13
REMARK    8  A    between atoms: C_12  and  C_98
REMARK    9  A    between atoms: C_13  and  O_14
REMARK   10  A    between atoms: C_13  and  C_15
REMARK   11  A    between atoms: C_15  and  C_16
REMARK   12  A    between atoms: C_15  and  C_97
REMARK   13  A    between atoms: C_22  and  C_96
REMARK   14  A    between atoms: C_25  and  O_95
REMARK   15  A    between atoms: C_31  and  O_90
REMARK   16  A    between atoms: C_32  and  C_89
REMARK   17  A    between atoms: C_33  and  O_88
REMARK   18  A    between atoms: C_35  and  O_87
REMARK   19  A    between atoms: C_36  and  C_86
REMARK   20  A    between atoms: C_37  and  C_69
REMARK   21  A    between atoms: C_43  and  C_68
REMARK   22  A    between atoms: C_46  and  O_67
REMARK   23  A    between atoms: C_52  and  O_62
REMARK   24  A    between atoms: C_53  and  C_61
REMARK   25  A    between atoms: C_54  and  O_60
REMARK   26  A    between atoms: C_56  and  O_59
REMARK   27  A    between atoms: C_57  and  C_58
REMARK   28  A    between atoms: O_62  and  C_63
REMARK   29  A    between atoms: C_69  and  C_70
REMARK   30  A    between atoms: C_69  and  C_85
REMARK   31  A    between atoms: C_70  and  O_71
REMARK   32  A    between atoms: C_70  and  C_72
REMARK   33  A    between atoms: C_72  and  C_73
REMARK   34  A    between atoms: C_72  and  C_84
REMARK   35  A    between atoms: C_73  and  C_74
REMARK   36  A    between atoms: C_74  and  C_75
REMARK   37  A    between atoms: C_77  and  C_83
REMARK   38  A    between atoms: C_79  and  O_81
REMARK   39  A    between atoms: O_81  and  C_82
REMARK   40  A    between atoms: O_90  and  C_91
REMARK                            x       y       z     vdW  Elec       q    Type
REMARK                         _______ _______ _______ _____ _____    ______ ____
ROOT
ATOM      1  C   UNL     1     149.560 167.817 191.975  0.00  0.00    +0.113 C 
ATOM      2  O   UNL     1     150.770 167.637 191.189  0.00  0.00    -0.458 OA
ATOM      3  C   UNL     1     151.912 167.412 191.895  0.00  0.00    +0.332 C 
ATOM      4  O   UNL     1     152.014 167.393 193.117  0.00  0.00    -0.246 OA
ATOM      5  C   UNL     1     153.084 167.186 191.036  0.00  0.00    +0.023 C 
ATOM      6  C   UNL     1     153.027 166.739 189.773  0.00  0.00    -0.052 C 
ATOM      7  C   UNL     1     154.190 166.384 188.965  0.00  0.00    -0.054 C 
ATOM      8  C   UNL     1     155.212 165.670 189.479  0.00  0.00    -0.079 C 
ATOM      9  C   UNL     1     156.347 165.057 188.697  0.00  0.00    -0.008 C 
ATOM     10  C   UNL     1     156.895 163.743 189.285  0.00  0.00    +0.061 C 
ATOM     11  C   UNL     1     155.892 162.672 189.736  0.00  0.00    +0.003 C 
ATOM     12  C   UNL     1     155.062 161.940 188.665  0.00  0.00    +0.080 C 
ATOM     13  O   UNL     1     154.578 160.754 189.344  0.00  0.00    -0.369 OA
ATOM     14  C   UNL     1     153.364 160.171 188.844  0.00  0.00    +0.065 C 
ATOM     15  C   UNL     1     153.584 159.537 187.454  0.00  0.00    +0.000 C 
ATOM     16  C   UNL     1     152.364 158.751 186.931  0.00  0.00    +0.066 C 
ATOM     17  C   UNL     1     152.650 158.210 185.495  0.00  0.00    +0.009 C 
ATOM     18  C   UNL     1     151.609 158.693 184.452  0.00  0.00    +0.063 C 
ATOM     19  C   UNL     1     151.652 160.218 184.210  0.00  0.00    -0.000 C 
ATOM     20  C   UNL     1     150.769 160.625 183.012  0.00  0.00    +0.064 C 
ATOM     21  C   UNL     1     150.895 162.116 182.570  0.00  0.00    +0.020 C 
ATOM     22  C   UNL     1     150.566 163.141 183.701  0.00  0.00    +0.113 C 
ATOM     23  O   UNL     1     149.193 162.900 184.110  0.00  0.00    -0.458 OA
ATOM     24  C   UNL     1     148.963 162.836 185.449  0.00  0.00    +0.332 C 
ATOM     25  O   UNL     1     149.770 163.074 186.331  0.00  0.00    -0.246 OA
ATOM     26  C   UNL     1     147.548 162.464 185.677  0.00  0.00    +0.023 C 
ATOM     27  C   UNL     1     147.107 162.308 186.934  0.00  0.00    -0.052 C 
ATOM     28  C   UNL     1     145.744 161.975 187.329  0.00  0.00    -0.054 C 
ATOM     29  C   UNL     1     144.689 162.684 186.878  0.00  0.00    -0.079 C 
ATOM     30  C   UNL     1     143.239 162.490 187.230  0.00  0.00    -0.008 C 
ATOM     31  C   UNL     1     142.659 163.541 188.206  0.00  0.00    +0.061 C 
ATOM     32  C   UNL     1     142.297 164.871 187.512  0.00  0.00    +0.003 C 
ATOM     33  C   UNL     1     141.475 165.826 188.408  0.00  0.00    +0.080 C 
ATOM     34  O   UNL     1     142.313 166.544 189.329  0.00  0.00    -0.369 OA
ATOM     35  C   UNL     1     142.702 167.883 188.947  0.00  0.00    +0.065 C 
ATOM     36  C   UNL     1     143.497 168.437 190.143  0.00  0.00    +0.000 C 
ATOM     37  C   UNL     1     144.139 169.841 190.041  0.00  0.00    +0.066 C 
ATOM     38  C   UNL     1     145.218 169.917 188.917  0.00  0.00    +0.009 C 
ATOM     39  C   UNL     1     146.554 170.570 189.369  0.00  0.00    +0.063 C 
ATOM     40  C   UNL     1     147.106 170.027 190.697  0.00  0.00    -0.000 C 
ATOM     41  C   UNL     1     148.646 169.995 190.734  0.00  0.00    +0.064 C 
ATOM     42  C   UNL     1     149.157 169.333 192.048  0.00  0.00    +0.020 C 
ATOM     43  C   UNL     1     141.473 168.744 188.620  0.00  0.00    -0.008 C 
ATOM     44  C   UNL     1     140.567 168.047 187.660  0.00  0.00    -0.083 C 
ATOM     45  C   UNL     1     140.581 166.715 187.576  0.00  0.00    -0.059 C 
ATOM     46  C   UNL     1     152.240 161.218 188.926  0.00  0.00    -0.008 C 
ATOM     47  C   UNL     1     152.645 162.477 188.234  0.00  0.00    -0.083 C 
ATOM     48  C   UNL     1     153.942 162.779 188.096  0.00  0.00    -0.059 C 
ATOM     49  H   UNL     1     149.781 167.545 193.018  0.00  0.00    +0.074 HD
ATOM     50  H   UNL     1     154.032 167.328 191.546  0.00  0.00    +0.069 HD
ATOM     51  H   UNL     1     152.070 166.568 189.285  0.00  0.00    +0.062 HD
ATOM     52  H   UNL     1     155.208 165.431 190.542  0.00  0.00    +0.058 HD
ATOM     53  H   UNL     1     156.075 164.889 187.648  0.00  0.00    +0.033 HD
ATOM     54  H   UNL     1     157.172 165.782 188.668  0.00  0.00    +0.033 HD
ATOM     55  H   UNL     1     157.486 164.017 190.169  0.00  0.00    +0.060 HD
ATOM     56  H   UNL     1     155.220 163.075 190.506  0.00  0.00    +0.032 HD
ATOM     57  H   UNL     1     156.476 161.902 190.262  0.00  0.00    +0.032 HD
ATOM     58  H   UNL     1     155.710 161.599 187.851  0.00  0.00    +0.064 HD
ATOM     59  H   UNL     1     153.118 159.367 189.549  0.00  0.00    +0.060 HD
ATOM     60  H   UNL     1     154.445 158.858 187.535  0.00  0.00    +0.032 HD
ATOM     61  H   UNL     1     153.871 160.303 186.723  0.00  0.00    +0.032 HD
ATOM     62  H   UNL     1     151.503 159.427 186.913  0.00  0.00    +0.060 HD
ATOM     63  H   UNL     1     153.619 158.606 185.155  0.00  0.00    +0.035 HD
ATOM     64  H   UNL     1     151.815 158.189 183.500  0.00  0.00    +0.060 HD
ATOM     65  H   UNL     1     151.281 160.728 185.106  0.00  0.00    +0.032 HD
ATOM     66  H   UNL     1     152.688 160.529 184.036  0.00  0.00    +0.032 HD
ATOM     67  H   UNL     1     151.037 159.999 182.151  0.00  0.00    +0.060 HD
ATOM     68  H   UNL     1     150.147 162.248 181.777  0.00  0.00    +0.036 HD
ATOM     69  H   UNL     1     151.257 162.933 184.525  0.00  0.00    +0.074 HD
ATOM     70  H   UNL     1     146.914 162.327 184.811  0.00  0.00    +0.069 HD
ATOM     71  H   UNL     1     147.806 162.431 187.762  0.00  0.00    +0.062 HD
ATOM     72  H   UNL     1     144.863 163.490 186.168  0.00  0.00    +0.058 HD
ATOM     73  H   UNL     1     142.654 162.492 186.300  0.00  0.00    +0.033 HD
ATOM     74  H   UNL     1     143.072 161.486 187.637  0.00  0.00    +0.033 HD
ATOM     75  H   UNL     1     143.351 163.731 189.034  0.00  0.00    +0.060 HD
ATOM     76  H   UNL     1     141.706 164.627 186.620  0.00  0.00    +0.032 HD
ATOM     77  H   UNL     1     143.216 165.366 187.175  0.00  0.00    +0.032 HD
ATOM     78  H   UNL     1     140.797 165.240 189.038  0.00  0.00    +0.064 HD
ATOM     79  H   UNL     1     143.353 167.799 188.071  0.00  0.00    +0.060 HD
ATOM     80  H   UNL     1     144.294 167.716 190.378  0.00  0.00    +0.032 HD
ATOM     81  H   UNL     1     142.842 168.409 191.023  0.00  0.00    +0.032 HD
ATOM     82  H   UNL     1     144.629 170.004 191.006  0.00  0.00    +0.060 HD
ATOM     83  H   UNL     1     145.489 168.889 188.651  0.00  0.00    +0.035 HD
ATOM     84  H   UNL     1     147.283 170.378 188.571  0.00  0.00    +0.060 HD
ATOM     85  H   UNL     1     146.757 170.671 191.517  0.00  0.00    +0.032 HD
ATOM     86  H   UNL     1     146.710 169.033 190.883  0.00  0.00    +0.032 HD
ATOM     87  H   UNL     1     149.047 169.463 189.866  0.00  0.00    +0.060 HD
ATOM     88  H   UNL     1     148.350 169.404 192.791  0.00  0.00    +0.036 HD
ATOM     89  H   UNL     1     141.780 169.699 188.179  0.00  0.00    +0.033 HD
ATOM     90  H   UNL     1     140.896 168.962 189.525  0.00  0.00    +0.033 HD
ATOM     91  H   UNL     1     139.874 168.639 187.070  0.00  0.00    +0.057 HD
ATOM     92  H   UNL     1     139.888 166.219 186.899  0.00  0.00    +0.059 HD
ATOM     93  H   UNL     1     152.042 161.467 189.977  0.00  0.00    +0.033 HD
ATOM     94  H   UNL     1     151.307 160.838 188.506  0.00  0.00    +0.033 HD
ATOM     95  H   UNL     1     151.874 163.130 187.833  0.00  0.00    +0.057 HD
ATOM     96  H   UNL     1     154.210 163.667 187.535  0.00  0.00    +0.059 HD
ENDROOT
BRANCH  28  97
ATOM     97  C   UNL     1     145.667 160.862 188.343  0.00  0.00    -0.040 C 
ATOM     98  H   UNL     1     145.918 161.229 189.345  0.00  0.00    +0.028 HD
ATOM     99  H   UNL     1     146.375 160.067 188.083  0.00  0.00    +0.028 HD
ATOM    100  H   UNL     1     144.673 160.413 188.419  0.00  0.00    +0.028 HD
ENDBRANCH  28  97
BRANCH  21 101
ATOM    101  C   UNL     1     152.277 162.358 181.953  0.00  0.00    -0.057 C 
ATOM    102  H   UNL     1     152.242 162.334 180.859  0.00  0.00    +0.023 HD
ATOM    103  H   UNL     1     152.997 161.603 182.284  0.00  0.00    +0.023 HD
ATOM    104  H   UNL     1     152.681 163.330 182.258  0.00  0.00    +0.023 HD
ENDBRANCH  21 101
BRANCH  42 105
ATOM    105  C   UNL     1     150.332 170.135 192.657  0.00  0.00    -0.057 C 
ATOM    106  H   UNL     1     150.419 169.951 193.733  0.00  0.00    +0.023 HD
ATOM    107  H   UNL     1     151.286 169.876 192.183  0.00  0.00    +0.023 HD
ATOM    108  H   UNL     1     150.176 171.213 192.540  0.00  0.00    +0.023 HD
ENDBRANCH  42 105
BRANCH  17 109
ATOM    109  C   UNL     1     152.776 156.681 185.439  0.00  0.00    -0.058 C 
ATOM    110  H   UNL     1     153.010 156.250 186.418  0.00  0.00    +0.023 HD
ATOM    111  H   UNL     1     151.837 156.231 185.098  0.00  0.00    +0.023 HD
ATOM    112  H   UNL     1     153.556 156.379 184.732  0.00  0.00    +0.023 HD
ENDBRANCH  17 109
BRANCH  38 113
ATOM    113  C   UNL     1     144.714 170.604 187.636  0.00  0.00    -0.058 C 
ATOM    114  H   UNL     1     144.021 169.971 187.070  0.00  0.00    +0.023 HD
ATOM    115  H   UNL     1     145.543 170.870 186.975  0.00  0.00    +0.023 HD
ATOM    116  H   UNL     1     144.178 171.529 187.880  0.00  0.00    +0.023 HD
ENDBRANCH  38 113
BRANCH   7 117
ATOM    117  C   UNL     1     154.079 166.788 187.522  0.00  0.00    -0.040 C 
ATOM    118  H   UNL     1     154.631 166.091 186.881  0.00  0.00    +0.028 HD
ATOM    119  H   UNL     1     154.486 167.791 187.378  0.00  0.00    +0.028 HD
ATOM    120  H   UNL     1     153.047 166.785 187.163  0.00  0.00    +0.028 HD
ENDBRANCH   7 117
BRANCH   1 121
ATOM    121  C   UNL     1     148.507 166.728 191.545  0.00  0.00    +0.020 C 
ATOM    122  H   UNL     1     147.965 167.201 190.711  0.00  0.00    +0.036 HD
BRANCH 121 123
ATOM    123  C   UNL     1     149.258 165.511 190.973  0.00  0.00    -0.057 C 
ATOM    124  H   UNL     1     149.127 165.441 189.891  0.00  0.00    +0.023 HD
ATOM    125  H   UNL     1     148.923 164.572 191.415  0.00  0.00    +0.023 HD
ATOM    126  H   UNL     1     150.339 165.586 191.124  0.00  0.00    +0.023 HD
ENDBRANCH 121 123
BRANCH 121 127
ATOM    127  C   UNL     1     147.394 166.358 192.584  0.00  0.00    +0.064 C 
ATOM    128  H   UNL     1     147.762 165.545 193.204  0.00  0.00    +0.060 HD
BRANCH 127 129
ATOM    129  C   UNL     1     145.976 165.942 192.067  0.00  0.00    -0.017 C 
ATOM    130  H   UNL     1     145.948 164.845 192.010  0.00  0.00    +0.032 HD
BRANCH 129 131
ATOM    131  C   UNL     1     144.788 166.358 192.932  0.00  0.00    -0.060 C 
ATOM    132  H   UNL     1     144.648 165.664 193.766  0.00  0.00    +0.023 HD
ATOM    133  H   UNL     1     144.895 167.378 193.308  0.00  0.00    +0.023 HD
ATOM    134  H   UNL     1     143.855 166.321 192.354  0.00  0.00    +0.023 HD
ENDBRANCH 129 131
BRANCH 129 135
ATOM    135  C   UNL     1     145.725 166.487 190.630  0.00  0.00    -0.046 C 
ATOM    136  H   UNL     1     146.430 167.299 190.415  0.00  0.00    +0.027 HD
ATOM    137  H   UNL     1     144.734 166.947 190.595  0.00  0.00    +0.027 HD
BRANCH 135 138
ATOM    138  C   UNL     1     145.788 165.428 189.529  0.00  0.00    -0.026 C 
ATOM    139  H   UNL     1     144.775 165.098 189.286  0.00  0.00    +0.029 HD
ATOM    140  H   UNL     1     146.310 164.541 189.899  0.00  0.00    +0.029 HD
BRANCH 138 143
ATOM    141  C   UNL     1     148.084 167.544 187.483  0.00  0.00    +0.059 C 
ATOM    142  O   UNL     1     147.236 167.106 188.555  0.00  0.00    -0.373 OA
ATOM    143  C   UNL     1     146.484 165.927 188.252  0.00  0.00    +0.061 C 
ATOM    144  C   UNL     1     145.478 166.238 187.143  0.00  0.00    -0.000 C 
ATOM    145  C   UNL     1     146.001 167.273 186.139  0.00  0.00    +0.063 C 
ATOM    146  C   UNL     1     147.522 167.227 186.097  0.00  0.00    -0.000 C 
ATOM    147  H   UNL     1     148.143 168.634 187.586  0.00  0.00    +0.059 HD
ATOM    148  H   UNL     1     147.188 165.161 187.908  0.00  0.00    +0.060 HD
ATOM    149  H   UNL     1     145.201 165.308 186.639  0.00  0.00    +0.032 HD
ATOM    150  H   UNL     1     144.548 166.638 187.564  0.00  0.00    +0.032 HD
ATOM    151  H   UNL     1     145.666 168.270 186.456  0.00  0.00    +0.060 HD
ATOM    152  H   UNL     1     147.837 166.231 185.754  0.00  0.00    +0.032 HD
ATOM    153  H   UNL     1     147.935 167.927 185.362  0.00  0.00    +0.032 HD
BRANCH 141 154
ATOM    154  C   UNL     1     149.490 166.980 187.662  0.00  0.00    -0.039 C 
ATOM    155  H   UNL     1     149.851 166.513 186.742  0.00  0.00    +0.025 HD
ATOM    156  H   UNL     1     150.193 167.769 187.950  0.00  0.00    +0.025 HD
ATOM    157  H   UNL     1     149.499 166.207 188.435  0.00  0.00    +0.025 HD
ENDBRANCH 141 154
BRANCH 145 158
ATOM    158  O   UNL     1     145.420 166.965 184.868  0.00  0.00    -0.380 OA
BRANCH 158 159
ATOM    159  C   UNL     1     145.621 165.617 184.461  0.00  0.00    +0.037 C 
ATOM    160  H   UNL     1     145.292 164.964 185.274  0.00  0.00    +0.052 HD
ATOM    161  H   UNL     1     146.683 165.423 184.280  0.00  0.00    +0.052 HD
ATOM    162  H   UNL     1     145.037 165.381 183.566  0.00  0.00    +0.052 HD
ENDBRANCH 158 159
ENDBRANCH 145 158
ENDBRANCH 138 143
ENDBRANCH 135 138
ENDBRANCH 129 135
ENDBRANCH 127 129
BRANCH 127 163
ATOM    163  O   UNL     1     147.154 167.442 193.491  0.00  0.00    -0.391 OA
ATOM    164  H   UNL     1     146.405 167.969 193.168  0.00  0.00    +0.210 HD
ENDBRANCH 127 163
ENDBRANCH 121 127
ENDBRANCH   1 121
BRANCH  41 165
ATOM    165  O   UNL     1     149.114 171.344 190.641  0.00  0.00    -0.391 OA
ATOM    166  H   UNL     1     149.547 171.591 191.483  0.00  0.00    +0.210 HD
ENDBRANCH  41 165
BRANCH  39 167
ATOM    167  O   UNL     1     146.461 171.989 189.486  0.00  0.00    -0.391 OA
ATOM    168  H   UNL     1     145.761 172.298 188.880  0.00  0.00    +0.210 HD
ENDBRANCH  39 167
BRANCH  31 169
ATOM    169  O   UNL     1     141.463 162.975 188.762  0.00  0.00    -0.391 OA
ATOM    170  H   UNL     1     141.677 162.680 189.664  0.00  0.00    +0.210 HD
ENDBRANCH  31 169
BRANCH  22 171
ATOM    171  C   UNL     1     150.738 164.647 183.290  0.00  0.00    +0.020 C 
ATOM    172  H   UNL     1     150.991 164.654 182.225  0.00  0.00    +0.036 HD
BRANCH 171 173
ATOM    173  C   UNL     1     149.445 165.444 183.485  0.00  0.00    -0.057 C 
ATOM    174  H   UNL     1     149.112 165.405 184.523  0.00  0.00    +0.023 HD
ATOM    175  H   UNL     1     148.635 165.060 182.857  0.00  0.00    +0.023 HD
ATOM    176  H   UNL     1     149.573 166.495 183.212  0.00  0.00    +0.023 HD
ENDBRANCH 171 173
BRANCH 171 177
ATOM    177  C   UNL     1     151.931 165.299 184.038  0.00  0.00    +0.064 C 
ATOM    178  H   UNL     1     151.664 166.328 184.301  0.00  0.00    +0.060 HD
BRANCH 177 179
ATOM    179  O   UNL     1     152.126 164.577 185.256  0.00  0.00    -0.391 OA
ATOM    180  H   UNL     1     153.088 164.381 185.310  0.00  0.00    +0.210 HD
ENDBRANCH 177 179
BRANCH 177 181
ATOM    181  C   UNL     1     153.288 165.373 183.282  0.00  0.00    -0.017 C 
ATOM    182  H   UNL     1     153.686 164.353 183.203  0.00  0.00    +0.032 HD
BRANCH 181 183
ATOM    183  C   UNL     1     153.041 165.870 181.846  0.00  0.00    -0.060 C 
ATOM    184  H   UNL     1     152.607 166.876 181.838  0.00  0.00    +0.023 HD
ATOM    185  H   UNL     1     153.965 165.895 181.262  0.00  0.00    +0.023 HD
ATOM    186  H   UNL     1     152.352 165.210 181.316  0.00  0.00    +0.023 HD
ENDBRANCH 181 183
BRANCH 181 187
ATOM    187  C   UNL     1     154.348 166.261 183.973  0.00  0.00    -0.046 C 
ATOM    188  H   UNL     1     153.909 166.767 184.839  0.00  0.00    +0.027 HD
ATOM    189  H   UNL     1     154.675 167.047 183.281  0.00  0.00    +0.027 HD
BRANCH 187 190
ATOM    190  C   UNL     1     155.562 165.454 184.467  0.00  0.00    -0.026 C 
ATOM    191  H   UNL     1     155.343 164.386 184.389  0.00  0.00    +0.029 HD
ATOM    192  H   UNL     1     155.722 165.664 185.531  0.00  0.00    +0.029 HD
BRANCH 190 193
ATOM    193  C   UNL     1     156.852 165.774 183.691  0.00  0.00    +0.061 C 
ATOM    194  O   UNL     1     158.024 165.282 184.347  0.00  0.00    -0.373 OA
ATOM    195  C   UNL     1     158.365 165.958 185.560  0.00  0.00    +0.059 C 
ATOM    196  C   UNL     1     158.591 167.448 185.311  0.00  0.00    -0.000 C 
ATOM    197  C   UNL     1     157.375 168.077 184.630  0.00  0.00    +0.063 C 
ATOM    198  C   UNL     1     157.004 167.266 183.388  0.00  0.00    -0.000 C 
ATOM    199  H   UNL     1     156.797 165.246 182.732  0.00  0.00    +0.060 HD
ATOM    200  H   UNL     1     157.566 165.811 186.295  0.00  0.00    +0.059 HD
ATOM    201  H   UNL     1     159.470 167.598 184.671  0.00  0.00    +0.032 HD
ATOM    202  H   UNL     1     158.810 167.955 186.257  0.00  0.00    +0.032 HD
ATOM    203  H   UNL     1     156.522 168.092 185.318  0.00  0.00    +0.060 HD
ATOM    204  H   UNL     1     157.799 167.399 182.641  0.00  0.00    +0.032 HD
ATOM    205  H   UNL     1     156.095 167.673 182.928  0.00  0.00    +0.032 HD
BRANCH 195 206
ATOM    206  C   UNL     1     159.629 165.302 186.106  0.00  0.00    -0.039 C 
ATOM    207  H   UNL     1     160.216 166.026 186.681  0.00  0.00    +0.025 HD
ATOM    208  H   UNL     1     160.252 164.910 185.295  0.00  0.00    +0.025 HD
ATOM    209  H   UNL     1     159.381 164.482 186.789  0.00  0.00    +0.025 HD
ENDBRANCH 195 206
BRANCH 197 210
ATOM    210  O   UNL     1     157.648 169.416 184.197  0.00  0.00    -0.380 OA
BRANCH 210 211
ATOM    211  C   UNL     1     157.059 170.416 185.020  0.00  0.00    +0.037 C 
ATOM    212  H   UNL     1     157.689 171.309 184.969  0.00  0.00    +0.052 HD
ATOM    213  H   UNL     1     157.018 170.090 186.063  0.00  0.00    +0.052 HD
ATOM    214  H   UNL     1     156.059 170.674 184.662  0.00  0.00    +0.052 HD
ENDBRANCH 210 211
ENDBRANCH 197 210
ENDBRANCH 190 193
ENDBRANCH 187 190
ENDBRANCH 181 187
ENDBRANCH 177 181
ENDBRANCH 171 177
ENDBRANCH  22 171
BRANCH  20 215
ATOM    215  O   UNL     1     149.411 160.286 183.326  0.00  0.00    -0.391 OA
ATOM    216  H   UNL     1     149.316 159.322 183.214  0.00  0.00    +0.210 HD
ENDBRANCH  20 215
BRANCH  18 217
ATOM    217  O   UNL     1     150.298 158.296 184.858  0.00  0.00    -0.391 OA
ATOM    218  H   UNL     1     150.214 157.347 184.634  0.00  0.00    +0.210 HD
ENDBRANCH  18 217
BRANCH  10 219
ATOM    219  O   UNL     1     157.815 163.178 188.346  0.00  0.00    -0.391 OA
ATOM    220  H   UNL     1     158.283 163.918 187.918  0.00  0.00    +0.210 HD
ENDBRANCH  10 219
BRANCH  37 221
ATOM    221  O   UNL     1     143.193 170.899 189.883  0.00  0.00    -0.379 OA
BRANCH 221 222
ATOM    222  C   UNL     1     143.167 171.830 190.957  0.00  0.00    +0.037 C 
ATOM    223  H   UNL     1     142.188 171.761 191.439  0.00  0.00    +0.052 HD
ATOM    224  H   UNL     1     143.929 171.594 191.701  0.00  0.00    +0.052 HD
ATOM    225  H   UNL     1     143.302 172.852 190.588  0.00  0.00    +0.052 HD
ENDBRANCH 221 222
ENDBRANCH  37 221
BRANCH  16 226
ATOM    226  O   UNL     1     152.129 157.688 187.868  0.00  0.00    -0.379 OA
BRANCH 226 227
ATOM    227  C   UNL     1     150.786 157.652 188.335  0.00  0.00    +0.037 C 
ATOM    228  H   UNL     1     150.657 158.253 189.241  0.00  0.00    +0.052 HD
ATOM    229  H   UNL     1     150.492 156.614 188.528  0.00  0.00    +0.052 HD
ATOM    230  H   UNL     1     150.136 158.059 187.554  0.00  0.00    +0.052 HD
ENDBRANCH 226 227
ENDBRANCH  16 226
TORSDOF 40
ENDMDL
MODEL 6
REMARK VINA RESULT:      -4.6      3.193      9.369
REMARK  Name = Swinholide A_conf1
REMARK  40 active torsions:
REMARK  status: ('A' for Active; 'I' for Inactive)
REMARK    1  A    between atoms: C_1  and  C_2
REMARK    2  A    between atoms: C_4  and  C_10
REMARK    3  A    between atoms: C_6  and  O_8
REMARK    4  A    between atoms: O_8  and  C_9
REMARK    5  A    between atoms: C_10  and  C_11
REMARK    6  A    between atoms: C_11  and  C_12
REMARK    7  A    between atoms: C_12  and  C_13
REMARK    8  A    between atoms: C_12  and  C_98
REMARK    9  A    between atoms: C_13  and  O_14
REMARK   10  A    between atoms: C_13  and  C_15
REMARK   11  A    between atoms: C_15  and  C_16
REMARK   12  A    between atoms: C_15  and  C_97
REMARK   13  A    between atoms: C_22  and  C_96
REMARK   14  A    between atoms: C_25  and  O_95
REMARK   15  A    between atoms: C_31  and  O_90
REMARK   16  A    between atoms: C_32  and  C_89
REMARK   17  A    between atoms: C_33  and  O_88
REMARK   18  A    between atoms: C_35  and  O_87
REMARK   19  A    between atoms: C_36  and  C_86
REMARK   20  A    between atoms: C_37  and  C_69
REMARK   21  A    between atoms: C_43  and  C_68
REMARK   22  A    between atoms: C_46  and  O_67
REMARK   23  A    between atoms: C_52  and  O_62
REMARK   24  A    between atoms: C_53  and  C_61
REMARK   25  A    between atoms: C_54  and  O_60
REMARK   26  A    between atoms: C_56  and  O_59
REMARK   27  A    between atoms: C_57  and  C_58
REMARK   28  A    between atoms: O_62  and  C_63
REMARK   29  A    between atoms: C_69  and  C_70
REMARK   30  A    between atoms: C_69  and  C_85
REMARK   31  A    between atoms: C_70  and  O_71
REMARK   32  A    between atoms: C_70  and  C_72
REMARK   33  A    between atoms: C_72  and  C_73
REMARK   34  A    between atoms: C_72  and  C_84
REMARK   35  A    between atoms: C_73  and  C_74
REMARK   36  A    between atoms: C_74  and  C_75
REMARK   37  A    between atoms: C_77  and  C_83
REMARK   38  A    between atoms: C_79  and  O_81
REMARK   39  A    between atoms: O_81  and  C_82
REMARK   40  A    between atoms: O_90  and  C_91
REMARK                            x       y       z     vdW  Elec       q    Type
REMARK                         _______ _______ _______ _____ _____    ______ ____
ROOT
ATOM      1  C   UNL     1     149.151 166.772 191.402  0.00  0.00    +0.113 C 
ATOM      2  O   UNL     1     150.457 166.833 190.765  0.00  0.00    -0.458 OA
ATOM      3  C   UNL     1     151.530 166.715 191.594  0.00  0.00    +0.332 C 
ATOM      4  O   UNL     1     151.493 166.609 192.815  0.00  0.00    -0.246 OA
ATOM      5  C   UNL     1     152.815 166.731 190.877  0.00  0.00    +0.023 C 
ATOM      6  C   UNL     1     152.972 166.387 189.591  0.00  0.00    -0.052 C 
ATOM      7  C   UNL     1     154.260 166.270 188.914  0.00  0.00    -0.054 C 
ATOM      8  C   UNL     1     155.313 165.668 189.506  0.00  0.00    -0.079 C 
ATOM      9  C   UNL     1     156.610 165.291 188.834  0.00  0.00    -0.008 C 
ATOM     10  C   UNL     1     157.280 164.024 189.400  0.00  0.00    +0.061 C 
ATOM     11  C   UNL     1     156.406 162.787 189.650  0.00  0.00    +0.003 C 
ATOM     12  C   UNL     1     155.825 162.036 188.437  0.00  0.00    +0.080 C 
ATOM     13  O   UNL     1     155.452 160.741 188.971  0.00  0.00    -0.369 OA
ATOM     14  C   UNL     1     154.406 160.034 188.284  0.00  0.00    +0.065 C 
ATOM     15  C   UNL     1     154.879 159.557 186.895  0.00  0.00    +0.000 C 
ATOM     16  C   UNL     1     153.860 158.650 186.171  0.00  0.00    +0.066 C 
ATOM     17  C   UNL     1     154.389 158.278 184.751  0.00  0.00    +0.009 C 
ATOM     18  C   UNL     1     153.414 158.693 183.619  0.00  0.00    +0.063 C 
ATOM     19  C   UNL     1     153.253 160.223 183.484  0.00  0.00    -0.000 C 
ATOM     20  C   UNL     1     152.462 160.598 182.213  0.00  0.00    +0.064 C 
ATOM     21  C   UNL     1     152.411 162.124 181.889  0.00  0.00    +0.020 C 
ATOM     22  C   UNL     1     151.802 162.993 183.034  0.00  0.00    +0.113 C 
ATOM     23  O   UNL     1     150.444 162.525 183.250  0.00  0.00    -0.458 OA
ATOM     24  C   UNL     1     150.073 162.318 184.541  0.00  0.00    +0.332 C 
ATOM     25  O   UNL     1     150.728 162.594 185.532  0.00  0.00    -0.246 OA
ATOM     26  C   UNL     1     148.714 161.730 184.564  0.00  0.00    +0.023 C 
ATOM     27  C   UNL     1     148.160 161.408 185.742  0.00  0.00    -0.052 C 
ATOM     28  C   UNL     1     146.827 160.853 185.939  0.00  0.00    -0.054 C 
ATOM     29  C   UNL     1     145.735 161.440 185.406  0.00  0.00    -0.079 C 
ATOM     30  C   UNL     1     144.301 161.012 185.559  0.00  0.00    -0.008 C 
ATOM     31  C   UNL     1     143.460 161.885 186.520  0.00  0.00    +0.061 C 
ATOM     32  C   UNL     1     142.983 163.203 185.875  0.00  0.00    +0.003 C 
ATOM     33  C   UNL     1     141.928 163.952 186.720  0.00  0.00    +0.080 C 
ATOM     34  O   UNL     1     142.535 164.704 187.784  0.00  0.00    -0.369 OA
ATOM     35  C   UNL     1     142.758 166.112 187.543  0.00  0.00    +0.065 C 
ATOM     36  C   UNL     1     143.316 166.672 188.864  0.00  0.00    +0.000 C 
ATOM     37  C   UNL     1     143.746 168.157 188.936  0.00  0.00    +0.066 C 
ATOM     38  C   UNL     1     144.923 168.479 187.964  0.00  0.00    +0.009 C 
ATOM     39  C   UNL     1     146.083 169.276 188.623  0.00  0.00    +0.063 C 
ATOM     40  C   UNL     1     146.554 168.708 189.972  0.00  0.00    -0.000 C 
ATOM     41  C   UNL     1     148.067 168.893 190.200  0.00  0.00    +0.064 C 
ATOM     42  C   UNL     1     148.517 168.204 191.523  0.00  0.00    +0.020 C 
ATOM     43  C   UNL     1     141.459 166.813 187.120  0.00  0.00    -0.008 C 
ATOM     44  C   UNL     1     140.786 166.076 186.010  0.00  0.00    -0.083 C 
ATOM     45  C   UNL     1     141.011 164.771 185.842  0.00  0.00    -0.059 C 
ATOM     46  C   UNL     1     153.135 160.900 188.292  0.00  0.00    -0.008 C 
ATOM     47  C   UNL     1     153.421 162.257 187.740  0.00  0.00    -0.083 C 
ATOM     48  C   UNL     1     154.665 162.752 187.787  0.00  0.00    -0.059 C 
ATOM     49  H   UNL     1     149.289 166.449 192.444  0.00  0.00    +0.074 HD
ATOM     50  H   UNL     1     153.665 166.964 191.510  0.00  0.00    +0.069 HD
ATOM     51  H   UNL     1     152.115 166.122 188.975  0.00  0.00    +0.062 HD
ATOM     52  H   UNL     1     155.223 165.344 190.541  0.00  0.00    +0.058 HD
ATOM     53  H   UNL     1     156.490 165.174 187.751  0.00  0.00    +0.033 HD
ATOM     54  H   UNL     1     157.314 166.126 188.957  0.00  0.00    +0.033 HD
ATOM     55  H   UNL     1     157.717 164.305 190.367  0.00  0.00    +0.060 HD
ATOM     56  H   UNL     1     155.597 163.025 190.353  0.00  0.00    +0.032 HD
ATOM     57  H   UNL     1     157.035 162.067 190.194  0.00  0.00    +0.032 HD
ATOM     58  H   UNL     1     156.608 161.860 187.691  0.00  0.00    +0.064 HD
ATOM     59  H   UNL     1     154.206 159.148 188.899  0.00  0.00    +0.060 HD
ATOM     60  H   UNL     1     155.818 159.003 187.039  0.00  0.00    +0.032 HD
ATOM     61  H   UNL     1     155.128 160.413 186.257  0.00  0.00    +0.032 HD
ATOM     62  H   UNL     1     152.915 159.196 186.089  0.00  0.00    +0.060 HD
ATOM     63  H   UNL     1     155.319 158.835 184.563  0.00  0.00    +0.035 HD
ATOM     64  H   UNL     1     153.802 158.304 182.669  0.00  0.00    +0.060 HD
ATOM     65  H   UNL     1     152.708 160.598 184.358  0.00  0.00    +0.032 HD
ATOM     66  H   UNL     1     154.243 160.692 183.463  0.00  0.00    +0.032 HD
ATOM     67  H   UNL     1     152.920 160.091 181.354  0.00  0.00    +0.060 HD
ATOM     68  H   UNL     1     151.748 162.212 181.019  0.00  0.00    +0.036 HD
ATOM     69  H   UNL     1     152.416 162.818 183.923  0.00  0.00    +0.074 HD
ATOM     70  H   UNL     1     148.212 161.577 183.619  0.00  0.00    +0.069 HD
ATOM     71  H   UNL     1     148.732 161.561 186.659  0.00  0.00    +0.062 HD
ATOM     72  H   UNL     1     145.866 162.318 184.778  0.00  0.00    +0.058 HD
ATOM     73  H   UNL     1     143.833 161.008 184.564  0.00  0.00    +0.033 HD
ATOM     74  H   UNL     1     144.243 159.964 185.876  0.00  0.00    +0.033 HD
ATOM     75  H   UNL     1     144.015 162.102 187.440  0.00  0.00    +0.060 HD
ATOM     76  H   UNL     1     142.542 162.952 184.901  0.00  0.00    +0.032 HD
ATOM     77  H   UNL     1     143.848 163.850 185.690  0.00  0.00    +0.032 HD
ATOM     78  H   UNL     1     141.278 163.226 187.220  0.00  0.00    +0.064 HD
ATOM     79  H   UNL     1     143.511 166.195 186.753  0.00  0.00    +0.060 HD
ATOM     80  H   UNL     1     144.182 166.055 189.150  0.00  0.00    +0.032 HD
ATOM     81  H   UNL     1     142.576 166.477 189.650  0.00  0.00    +0.032 HD
ATOM     82  H   UNL     1     144.091 168.307 189.963  0.00  0.00    +0.060 HD
ATOM     83  H   UNL     1     145.375 167.526 187.668  0.00  0.00    +0.035 HD
ATOM     84  H   UNL     1     146.920 169.257 187.912  0.00  0.00    +0.060 HD
ATOM     85  H   UNL     1     146.020 169.226 190.781  0.00  0.00    +0.032 HD
ATOM     86  H   UNL     1     146.295 167.656 190.041  0.00  0.00    +0.032 HD
ATOM     87  H   UNL     1     148.641 168.498 189.358  0.00  0.00    +0.060 HD
ATOM     88  H   UNL     1     147.629 168.097 192.161  0.00  0.00    +0.036 HD
ATOM     89  H   UNL     1     141.666 167.835 186.785  0.00  0.00    +0.033 HD
ATOM     90  H   UNL     1     140.754 166.870 187.958  0.00  0.00    +0.033 HD
ATOM     91  H   UNL     1     140.083 166.610 185.378  0.00  0.00    +0.057 HD
ATOM     92  H   UNL     1     140.484 164.240 185.052  0.00  0.00    +0.059 HD
ATOM     93  H   UNL     1     152.781 161.030 189.323  0.00  0.00    +0.033 HD
ATOM     94  H   UNL     1     152.325 160.427 187.733  0.00  0.00    +0.033 HD
ATOM     95  H   UNL     1     152.612 162.824 187.288  0.00  0.00    +0.057 HD
ATOM     96  H   UNL     1     154.858 163.713 187.324  0.00  0.00    +0.059 HD
ENDROOT
BRANCH  28  97
ATOM     97  C   UNL     1     146.803 159.660 186.861  0.00  0.00    -0.040 C 
ATOM     98  H   UNL     1     146.219 158.841 186.425  0.00  0.00    +0.028 HD
ATOM     99  H   UNL     1     146.344 159.935 187.818  0.00  0.00    +0.028 HD
ATOM    100  H   UNL     1     147.796 159.255 187.071  0.00  0.00    +0.028 HD
ENDBRANCH  28  97
BRANCH  21 101
ATOM    101  C   UNL     1     153.802 162.611 181.469  0.00  0.00    -0.057 C 
ATOM    102  H   UNL     1     154.114 163.489 182.044  0.00  0.00    +0.023 HD
ATOM    103  H   UNL     1     153.825 162.878 180.407  0.00  0.00    +0.023 HD
ATOM    104  H   UNL     1     154.554 161.827 181.610  0.00  0.00    +0.023 HD
ENDBRANCH  21 101
BRANCH  42 105
ATOM    105  C   UNL     1     149.479 169.112 192.326  0.00  0.00    -0.057 C 
ATOM    106  H   UNL     1     149.286 170.170 192.121  0.00  0.00    +0.023 HD
ATOM    107  H   UNL     1     149.386 168.944 193.405  0.00  0.00    +0.023 HD
ATOM    108  H   UNL     1     150.522 168.929 192.043  0.00  0.00    +0.023 HD
ENDBRANCH  42 105
BRANCH  17 109
ATOM    109  C   UNL     1     154.751 156.792 184.612  0.00  0.00    -0.058 C 
ATOM    110  H   UNL     1     154.283 156.179 185.388  0.00  0.00    +0.023 HD
ATOM    111  H   UNL     1     154.418 156.405 183.642  0.00  0.00    +0.023 HD
ATOM    112  H   UNL     1     155.836 156.648 184.663  0.00  0.00    +0.023 HD
ENDBRANCH  17 109
BRANCH  38 113
ATOM    113  C   UNL     1     144.472 169.192 186.677  0.00  0.00    -0.058 C 
ATOM    114  H   UNL     1     144.692 168.605 185.779  0.00  0.00    +0.023 HD
ATOM    115  H   UNL     1     144.957 170.165 186.571  0.00  0.00    +0.023 HD
ATOM    116  H   UNL     1     143.389 169.363 186.691  0.00  0.00    +0.023 HD
ENDBRANCH  38 113
BRANCH   7 117
ATOM    117  C   UNL     1     154.257 166.773 187.498  0.00  0.00    -0.040 C 
ATOM    118  H   UNL     1     153.239 166.777 187.091  0.00  0.00    +0.028 HD
ATOM    119  H   UNL     1     154.881 166.134 186.869  0.00  0.00    +0.028 HD
ATOM    120  H   UNL     1     154.627 167.797 187.415  0.00  0.00    +0.028 HD
ENDBRANCH   7 117
BRANCH   1 121
ATOM    121  C   UNL     1     148.333 165.584 190.772  0.00  0.00    +0.020 C 
ATOM    122  H   UNL     1     148.940 164.695 191.003  0.00  0.00    +0.036 HD
BRANCH 121 123
ATOM    123  C   UNL     1     147.002 165.441 191.534  0.00  0.00    -0.057 C 
ATOM    124  H   UNL     1     146.887 164.433 191.940  0.00  0.00    +0.023 HD
ATOM    125  H   UNL     1     146.137 165.651 190.902  0.00  0.00    +0.023 HD
ATOM    126  H   UNL     1     146.951 166.104 192.403  0.00  0.00    +0.023 HD
ENDBRANCH 121 123
BRANCH 121 127
ATOM    127  C   UNL     1     148.178 165.567 189.213  0.00  0.00    +0.064 C 
ATOM    128  H   UNL     1     148.106 166.594 188.865  0.00  0.00    +0.060 HD
BRANCH 127 129
ATOM    129  C   UNL     1     146.987 164.777 188.574  0.00  0.00    -0.017 C 
ATOM    130  H   UNL     1     146.155 164.786 189.291  0.00  0.00    +0.032 HD
BRANCH 129 131
ATOM    131  C   UNL     1     146.430 165.329 187.263  0.00  0.00    -0.060 C 
ATOM    132  H   UNL     1     147.184 165.292 186.471  0.00  0.00    +0.023 HD
ATOM    133  H   UNL     1     145.528 164.800 186.948  0.00  0.00    +0.023 HD
ATOM    134  H   UNL     1     146.164 166.389 187.371  0.00  0.00    +0.023 HD
ENDBRANCH 129 131
BRANCH 129 135
ATOM    135  C   UNL     1     147.373 163.288 188.330  0.00  0.00    -0.046 C 
ATOM    136  H   UNL     1     148.431 163.222 188.052  0.00  0.00    +0.027 HD
ATOM    137  H   UNL     1     146.822 162.917 187.463  0.00  0.00    +0.027 HD
BRANCH 135 138
ATOM    138  C   UNL     1     147.077 162.356 189.505  0.00  0.00    -0.026 C 
ATOM    139  H   UNL     1     146.428 161.544 189.168  0.00  0.00    +0.029 HD
ATOM    140  H   UNL     1     146.511 162.893 190.270  0.00  0.00    +0.029 HD
BRANCH 138 143
ATOM    141  C   UNL     1     150.720 162.104 190.283  0.00  0.00    +0.059 C 
ATOM    142  O   UNL     1     149.494 162.439 189.615  0.00  0.00    -0.373 OA
ATOM    143  C   UNL     1     148.347 161.764 190.140  0.00  0.00    +0.061 C 
ATOM    144  C   UNL     1     148.472 160.264 189.867  0.00  0.00    -0.000 C 
ATOM    145  C   UNL     1     149.923 159.771 189.910  0.00  0.00    +0.063 C 
ATOM    146  C   UNL     1     150.747 160.672 190.819  0.00  0.00    -0.000 C 
ATOM    147  H   UNL     1     151.502 162.198 189.519  0.00  0.00    +0.059 HD
ATOM    148  H   UNL     1     148.320 161.942 191.220  0.00  0.00    +0.060 HD
ATOM    149  H   UNL     1     147.850 159.718 190.581  0.00  0.00    +0.032 HD
ATOM    150  H   UNL     1     148.076 160.016 188.875  0.00  0.00    +0.032 HD
ATOM    151  H   UNL     1     150.332 159.793 188.891  0.00  0.00    +0.060 HD
ATOM    152  H   UNL     1     150.339 160.618 191.837  0.00  0.00    +0.032 HD
ATOM    153  H   UNL     1     151.784 160.331 190.907  0.00  0.00    +0.032 HD
BRANCH 141 154
ATOM    154  C   UNL     1     151.014 163.121 191.381  0.00  0.00    -0.039 C 
ATOM    155  H   UNL     1     151.037 162.647 192.366  0.00  0.00    +0.025 HD
ATOM    156  H   UNL     1     151.977 163.614 191.209  0.00  0.00    +0.025 HD
ATOM    157  H   UNL     1     150.233 163.886 191.416  0.00  0.00    +0.025 HD
ENDBRANCH 141 154
BRANCH 145 158
ATOM    158  O   UNL     1     149.900 158.418 190.377  0.00  0.00    -0.380 OA
BRANCH 158 159
ATOM    159  C   UNL     1     148.824 157.651 189.850  0.00  0.00    +0.037 C 
ATOM    160  H   UNL     1     148.249 157.250 190.690  0.00  0.00    +0.052 HD
ATOM    161  H   UNL     1     149.202 156.807 189.266  0.00  0.00    +0.052 HD
ATOM    162  H   UNL     1     148.160 158.267 189.237  0.00  0.00    +0.052 HD
ENDBRANCH 158 159
ENDBRANCH 145 158
ENDBRANCH 138 143
ENDBRANCH 135 138
ENDBRANCH 129 135
ENDBRANCH 127 129
BRANCH 127 163
ATOM    163  O   UNL     1     149.353 165.039 188.584  0.00  0.00    -0.391 OA
ATOM    164  H   UNL     1     149.949 165.771 188.354  0.00  0.00    +0.210 HD
ENDBRANCH 127 163
ENDBRANCH 121 127
ENDBRANCH   1 121
BRANCH  41 165
ATOM    165  O   UNL     1     148.332 170.299 190.255  0.00  0.00    -0.391 OA
ATOM    166  H   UNL     1     147.760 170.706 190.938  0.00  0.00    +0.210 HD
ENDBRANCH  41 165
BRANCH  39 167
ATOM    167  O   UNL     1     145.764 170.652 188.820  0.00  0.00    -0.391 OA
ATOM    168  H   UNL     1     144.792 170.733 188.875  0.00  0.00    +0.210 HD
ENDBRANCH  39 167
BRANCH  31 169
ATOM    169  O   UNL     1     142.308 161.110 186.883  0.00  0.00    -0.391 OA
ATOM    170  H   UNL     1     141.640 161.244 186.189  0.00  0.00    +0.210 HD
ENDBRANCH  31 169
BRANCH  22 171
ATOM    171  C   UNL     1     151.789 164.537 182.748  0.00  0.00    +0.020 C 
ATOM    172  H   UNL     1     152.211 164.673 181.746  0.00  0.00    +0.036 HD
BRANCH 171 173
ATOM    173  C   UNL     1     150.369 165.109 182.755  0.00  0.00    -0.057 C 
ATOM    174  H   UNL     1     149.633 164.328 182.949  0.00  0.00    +0.023 HD
ATOM    175  H   UNL     1     150.117 165.579 181.800  0.00  0.00    +0.023 HD
ATOM    176  H   UNL     1     150.249 165.882 183.519  0.00  0.00    +0.023 HD
ENDBRANCH 171 173
BRANCH 171 177
ATOM    177  C   UNL     1     152.719 165.297 183.731  0.00  0.00    +0.064 C 
ATOM    178  H   UNL     1     152.185 166.171 184.117  0.00  0.00    +0.060 HD
BRANCH 177 179
ATOM    179  O   UNL     1     152.984 164.428 184.834  0.00  0.00    -0.391 OA
ATOM    180  H   UNL     1     152.295 164.620 185.510  0.00  0.00    +0.210 HD
ENDBRANCH 177 179
BRANCH 177 181
ATOM    181  C   UNL     1     154.073 165.816 183.171  0.00  0.00    -0.017 C 
ATOM    182  H   UNL     1     154.774 164.971 183.146  0.00  0.00    +0.032 HD
BRANCH 181 183
ATOM    183  C   UNL     1     153.875 166.278 181.715  0.00  0.00    -0.060 C 
ATOM    184  H   UNL     1     153.982 167.364 181.621  0.00  0.00    +0.023 HD
ATOM    185  H   UNL     1     154.595 165.807 181.040  0.00  0.00    +0.023 HD
ATOM    186  H   UNL     1     152.882 166.011 181.352  0.00  0.00    +0.023 HD
ENDBRANCH 181 183
BRANCH 181 187
ATOM    187  C   UNL     1     154.707 166.953 184.005  0.00  0.00    -0.046 C 
ATOM    188  H   UNL     1     154.193 167.045 184.967  0.00  0.00    +0.027 HD
ATOM    189  H   UNL     1     154.573 167.909 183.483  0.00  0.00    +0.027 HD
BRANCH 187 190
ATOM    190  C   UNL     1     156.200 166.713 184.291  0.00  0.00    -0.026 C 
ATOM    191  H   UNL     1     156.434 165.658 184.132  0.00  0.00    +0.029 HD
ATOM    192  H   UNL     1     156.400 166.923 185.348  0.00  0.00    +0.029 HD
BRANCH 190 193
ATOM    193  C   UNL     1     157.125 167.584 183.422  0.00  0.00    +0.061 C 
ATOM    194  O   UNL     1     158.490 167.530 183.847  0.00  0.00    -0.373 OA
ATOM    195  C   UNL     1     158.757 168.168 185.099  0.00  0.00    +0.059 C 
ATOM    196  C   UNL     1     158.366 169.644 185.055  0.00  0.00    -0.000 C 
ATOM    197  C   UNL     1     156.906 169.808 184.631  0.00  0.00    +0.063 C 
ATOM    198  C   UNL     1     156.657 169.037 183.334  0.00  0.00    -0.000 C 
ATOM    199  H   UNL     1     157.108 167.169 182.407  0.00  0.00    +0.060 HD
ATOM    200  H   UNL     1     158.208 167.652 185.895  0.00  0.00    +0.059 HD
ATOM    201  H   UNL     1     159.002 170.186 184.344  0.00  0.00    +0.032 HD
ATOM    202  H   UNL     1     158.538 170.105 186.034  0.00  0.00    +0.032 HD
ATOM    203  H   UNL     1     156.239 169.424 185.412  0.00  0.00    +0.060 HD
ATOM    204  H   UNL     1     157.206 169.540 182.525  0.00  0.00    +0.032 HD
ATOM    205  H   UNL     1     155.598 169.098 183.055  0.00  0.00    +0.032 HD
BRANCH 195 206
ATOM    206  C   UNL     1     160.247 168.010 185.381  0.00  0.00    -0.039 C 
ATOM    207  H   UNL     1     160.785 167.769 184.458  0.00  0.00    +0.025 HD
ATOM    208  H   UNL     1     160.429 167.215 186.111  0.00  0.00    +0.025 HD
ATOM    209  H   UNL     1     160.675 168.944 185.761  0.00  0.00    +0.025 HD
ENDBRANCH 195 206
BRANCH 197 210
ATOM    210  O   UNL     1     156.583 171.182 184.378  0.00  0.00    -0.380 OA
BRANCH 210 211
ATOM    211  C   UNL     1     157.674 171.946 183.880  0.00  0.00    +0.037 C 
ATOM    212  H   UNL     1     157.946 172.683 184.643  0.00  0.00    +0.052 HD
ATOM    213  H   UNL     1     157.393 172.485 182.972  0.00  0.00    +0.052 HD
ATOM    214  H   UNL     1     158.541 171.306 183.690  0.00  0.00    +0.052 HD
ENDBRANCH 210 211
ENDBRANCH 197 210
ENDBRANCH 190 193
ENDBRANCH 187 190
ENDBRANCH 181 187
ENDBRANCH 177 181
ENDBRANCH 171 177
ENDBRANCH  22 171
BRANCH  20 215
ATOM    215  O   UNL     1     151.144 160.044 182.330  0.00  0.00    -0.391 OA
ATOM    216  H   UNL     1     150.743 160.409 183.140  0.00  0.00    +0.210 HD
ENDBRANCH  20 215
BRANCH  18 217
ATOM    217  O   UNL     1     152.140 158.080 183.829  0.00  0.00    -0.391 OA
ATOM    218  H   UNL     1     152.302 157.116 183.885  0.00  0.00    +0.210 HD
ENDBRANCH  18 217
BRANCH  10 219
ATOM    219  O   UNL     1     158.377 163.677 188.550  0.00  0.00    -0.391 OA
ATOM    220  H   UNL     1     158.030 163.090 187.853  0.00  0.00    +0.210 HD
ENDBRANCH  10 219
BRANCH  37 221
ATOM    221  O   UNL     1     142.675 169.078 188.728  0.00  0.00    -0.379 OA
BRANCH 221 222
ATOM    222  C   UNL     1     142.297 169.811 189.887  0.00  0.00    +0.037 C 
ATOM    223  H   UNL     1     141.206 169.795 189.954  0.00  0.00    +0.052 HD
ATOM    224  H   UNL     1     142.699 169.351 190.792  0.00  0.00    +0.052 HD
ATOM    225  H   UNL     1     142.626 170.852 189.812  0.00  0.00    +0.052 HD
ENDBRANCH 221 222
ENDBRANCH  37 221
BRANCH  16 226
ATOM    226  O   UNL     1     153.683 157.491 187.000  0.00  0.00    -0.379 OA
BRANCH 226 227
ATOM    227  C   UNL     1     152.320 157.251 187.328  0.00  0.00    +0.037 C 
ATOM    228  H   UNL     1     151.675 158.074 187.005  0.00  0.00    +0.052 HD
ATOM    229  H   UNL     1     152.224 157.099 188.408  0.00  0.00    +0.052 HD
ATOM    230  H   UNL     1     151.996 156.338 186.816  0.00  0.00    +0.052 HD
ENDBRANCH 226 227
ENDBRANCH  16 226
TORSDOF 40
ENDMDL
MODEL 7
REMARK VINA RESULT:      -4.5      3.749     11.040
REMARK  Name = Swinholide A_conf1
REMARK  40 active torsions:
REMARK  status: ('A' for Active; 'I' for Inactive)
REMARK    1  A    between atoms: C_1  and  C_2
REMARK    2  A    between atoms: C_4  and  C_10
REMARK    3  A    between atoms: C_6  and  O_8
REMARK    4  A    between atoms: O_8  and  C_9
REMARK    5  A    between atoms: C_10  and  C_11
REMARK    6  A    between atoms: C_11  and  C_12
REMARK    7  A    between atoms: C_12  and  C_13
REMARK    8  A    between atoms: C_12  and  C_98
REMARK    9  A    between atoms: C_13  and  O_14
REMARK   10  A    between atoms: C_13  and  C_15
REMARK   11  A    between atoms: C_15  and  C_16
REMARK   12  A    between atoms: C_15  and  C_97
REMARK   13  A    between atoms: C_22  and  C_96
REMARK   14  A    between atoms: C_25  and  O_95
REMARK   15  A    between atoms: C_31  and  O_90
REMARK   16  A    between atoms: C_32  and  C_89
REMARK   17  A    between atoms: C_33  and  O_88
REMARK   18  A    between atoms: C_35  and  O_87
REMARK   19  A    between atoms: C_36  and  C_86
REMARK   20  A    between atoms: C_37  and  C_69
REMARK   21  A    between atoms: C_43  and  C_68
REMARK   22  A    between atoms: C_46  and  O_67
REMARK   23  A    between atoms: C_52  and  O_62
REMARK   24  A    between atoms: C_53  and  C_61
REMARK   25  A    between atoms: C_54  and  O_60
REMARK   26  A    between atoms: C_56  and  O_59
REMARK   27  A    between atoms: C_57  and  C_58
REMARK   28  A    between atoms: O_62  and  C_63
REMARK   29  A    between atoms: C_69  and  C_70
REMARK   30  A    between atoms: C_69  and  C_85
REMARK   31  A    between atoms: C_70  and  O_71
REMARK   32  A    between atoms: C_70  and  C_72
REMARK   33  A    between atoms: C_72  and  C_73
REMARK   34  A    between atoms: C_72  and  C_84
REMARK   35  A    between atoms: C_73  and  C_74
REMARK   36  A    between atoms: C_74  and  C_75
REMARK   37  A    between atoms: C_77  and  C_83
REMARK   38  A    between atoms: C_79  and  O_81
REMARK   39  A    between atoms: O_81  and  C_82
REMARK   40  A    between atoms: O_90  and  C_91
REMARK                            x       y       z     vdW  Elec       q    Type
REMARK                         _______ _______ _______ _____ _____    ______ ____
ROOT
ATOM      1  C   UNL     1     143.787 164.462 188.897  0.00  0.00    +0.113 C 
ATOM      2  O   UNL     1     143.393 164.480 187.498  0.00  0.00    -0.458 OA
ATOM      3  C   UNL     1     142.264 163.785 187.187  0.00  0.00    +0.332 C 
ATOM      4  O   UNL     1     141.587 163.120 187.964  0.00  0.00    -0.246 OA
ATOM      5  C   UNL     1     141.896 163.891 185.767  0.00  0.00    +0.023 C 
ATOM      6  C   UNL     1     142.255 164.902 184.962  0.00  0.00    -0.052 C 
ATOM      7  C   UNL     1     141.780 165.081 183.593  0.00  0.00    -0.054 C 
ATOM      8  C   UNL     1     140.484 164.899 183.268  0.00  0.00    -0.079 C 
ATOM      9  C   UNL     1     139.839 165.266 181.955  0.00  0.00    -0.008 C 
ATOM     10  C   UNL     1     138.362 165.692 182.063  0.00  0.00    +0.061 C 
ATOM     11  C   UNL     1     137.968 166.680 183.170  0.00  0.00    +0.003 C 
ATOM     12  C   UNL     1     138.464 168.135 183.071  0.00  0.00    +0.080 C 
ATOM     13  O   UNL     1     137.594 168.865 183.972  0.00  0.00    -0.369 OA
ATOM     14  C   UNL     1     138.117 170.080 184.535  0.00  0.00    +0.065 C 
ATOM     15  C   UNL     1     138.261 171.174 183.456  0.00  0.00    +0.000 C 
ATOM     16  C   UNL     1     138.662 172.553 184.021  0.00  0.00    +0.066 C 
ATOM     17  C   UNL     1     138.856 173.573 182.856  0.00  0.00    +0.009 C 
ATOM     18  C   UNL     1     140.270 174.209 182.843  0.00  0.00    +0.063 C 
ATOM     19  C   UNL     1     141.392 173.193 182.537  0.00  0.00    -0.000 C 
ATOM     20  C   UNL     1     142.746 173.897 182.308  0.00  0.00    +0.064 C 
ATOM     21  C   UNL     1     143.899 172.973 181.806  0.00  0.00    +0.020 C 
ATOM     22  C   UNL     1     144.206 171.773 182.756  0.00  0.00    +0.113 C 
ATOM     23  O   UNL     1     144.593 172.331 184.040  0.00  0.00    -0.458 OA
ATOM     24  C   UNL     1     144.011 171.783 185.139  0.00  0.00    +0.332 C 
ATOM     25  O   UNL     1     143.289 170.800 185.157  0.00  0.00    -0.246 OA
ATOM     26  C   UNL     1     144.424 172.550 186.336  0.00  0.00    +0.023 C 
ATOM     27  C   UNL     1     143.935 172.203 187.536  0.00  0.00    -0.052 C 
ATOM     28  C   UNL     1     144.262 172.832 188.810  0.00  0.00    -0.054 C 
ATOM     29  C   UNL     1     145.542 172.999 189.202  0.00  0.00    -0.079 C 
ATOM     30  C   UNL     1     146.031 173.586 190.498  0.00  0.00    -0.008 C 
ATOM     31  C   UNL     1     146.571 172.555 191.518  0.00  0.00    +0.061 C 
ATOM     32  C   UNL     1     148.008 172.091 191.202  0.00  0.00    +0.003 C 
ATOM     33  C   UNL     1     148.656 171.278 192.345  0.00  0.00    +0.080 C 
ATOM     34  O   UNL     1     148.221 169.907 192.335  0.00  0.00    -0.369 OA
ATOM     35  C   UNL     1     149.098 168.951 191.698  0.00  0.00    +0.065 C 
ATOM     36  C   UNL     1     148.440 167.577 191.921  0.00  0.00    +0.000 C 
ATOM     37  C   UNL     1     149.081 166.318 191.292  0.00  0.00    +0.066 C 
ATOM     38  C   UNL     1     149.100 166.380 189.734  0.00  0.00    +0.009 C 
ATOM     39  C   UNL     1     148.582 165.086 189.045  0.00  0.00    +0.063 C 
ATOM     40  C   UNL     1     147.253 164.558 189.612  0.00  0.00    -0.000 C 
ATOM     41  C   UNL     1     146.369 163.897 188.537  0.00  0.00    +0.064 C 
ATOM     42  C   UNL     1     144.990 163.481 189.130  0.00  0.00    +0.020 C 
ATOM     43  C   UNL     1     150.513 169.018 192.290  0.00  0.00    -0.008 C 
ATOM     44  C   UNL     1     151.019 170.421 192.320  0.00  0.00    -0.083 C 
ATOM     45  C   UNL     1     150.158 171.441 192.346  0.00  0.00    -0.059 C 
ATOM     46  C   UNL     1     139.396 169.751 185.323  0.00  0.00    -0.008 C 
ATOM     47  C   UNL     1     140.365 169.008 184.464  0.00  0.00    -0.083 C 
ATOM     48  C   UNL     1     139.925 168.296 183.418  0.00  0.00    -0.059 C 
ATOM     49  H   UNL     1     142.964 164.025 189.483  0.00  0.00    +0.074 HD
ATOM     50  H   UNL     1     141.218 163.113 185.433  0.00  0.00    +0.069 HD
ATOM     51  H   UNL     1     142.908 165.696 185.319  0.00  0.00    +0.062 HD
ATOM     52  H   UNL     1     139.797 164.524 184.026  0.00  0.00    +0.058 HD
ATOM     53  H   UNL     1     140.396 166.052 181.433  0.00  0.00    +0.033 HD
ATOM     54  H   UNL     1     139.888 164.390 181.293  0.00  0.00    +0.033 HD
ATOM     55  H   UNL     1     137.782 164.776 182.235  0.00  0.00    +0.060 HD
ATOM     56  H   UNL     1     138.224 166.274 184.157  0.00  0.00    +0.032 HD
ATOM     57  H   UNL     1     136.869 166.723 183.171  0.00  0.00    +0.032 HD
ATOM     58  H   UNL     1     138.284 168.529 182.065  0.00  0.00    +0.064 HD
ATOM     59  H   UNL     1     137.361 170.412 185.257  0.00  0.00    +0.060 HD
ATOM     60  H   UNL     1     137.293 171.260 182.943  0.00  0.00    +0.032 HD
ATOM     61  H   UNL     1     138.983 170.866 182.689  0.00  0.00    +0.032 HD
ATOM     62  H   UNL     1     139.598 172.436 184.577  0.00  0.00    +0.060 HD
ATOM     63  H   UNL     1     138.760 173.040 181.899  0.00  0.00    +0.035 HD
ATOM     64  H   UNL     1     140.292 174.987 182.069  0.00  0.00    +0.060 HD
ATOM     65  H   UNL     1     141.492 172.512 183.390  0.00  0.00    +0.032 HD
ATOM     66  H   UNL     1     141.119 172.606 181.653  0.00  0.00    +0.032 HD
ATOM     67  H   UNL     1     142.606 174.690 181.561  0.00  0.00    +0.060 HD
ATOM     68  H   UNL     1     144.792 173.612 181.782  0.00  0.00    +0.036 HD
ATOM     69  H   UNL     1     143.277 171.199 182.849  0.00  0.00    +0.074 HD
ATOM     70  H   UNL     1     145.110 173.374 186.199  0.00  0.00    +0.069 HD
ATOM     71  H   UNL     1     143.223 171.379 187.603  0.00  0.00    +0.062 HD
ATOM     72  H   UNL     1     146.341 172.699 188.528  0.00  0.00    +0.058 HD
ATOM     73  H   UNL     1     146.817 174.321 190.271  0.00  0.00    +0.033 HD
ATOM     74  H   UNL     1     145.246 174.186 190.971  0.00  0.00    +0.033 HD
ATOM     75  H   UNL     1     145.908 171.685 191.584  0.00  0.00    +0.060 HD
ATOM     76  H   UNL     1     148.612 172.990 191.022  0.00  0.00    +0.032 HD
ATOM     77  H   UNL     1     148.005 171.504 190.275  0.00  0.00    +0.032 HD
ATOM     78  H   UNL     1     148.321 171.675 193.310  0.00  0.00    +0.064 HD
ATOM     79  H   UNL     1     149.120 169.186 190.629  0.00  0.00    +0.060 HD
ATOM     80  H   UNL     1     147.400 167.642 191.564  0.00  0.00    +0.032 HD
ATOM     81  H   UNL     1     148.342 167.424 193.003  0.00  0.00    +0.032 HD
ATOM     82  H   UNL     1     148.443 165.485 191.601  0.00  0.00    +0.060 HD
ATOM     83  H   UNL     1     148.393 167.158 189.427  0.00  0.00    +0.035 HD
ATOM     84  H   UNL     1     148.450 165.327 187.983  0.00  0.00    +0.060 HD
ATOM     85  H   UNL     1     147.470 163.808 190.385  0.00  0.00    +0.032 HD
ATOM     86  H   UNL     1     146.709 165.365 190.094  0.00  0.00    +0.032 HD
ATOM     87  H   UNL     1     146.223 164.566 187.684  0.00  0.00    +0.060 HD
ATOM     88  H   UNL     1     145.111 163.392 190.219  0.00  0.00    +0.036 HD
ATOM     89  H   UNL     1     151.206 168.410 191.697  0.00  0.00    +0.033 HD
ATOM     90  H   UNL     1     150.526 168.636 193.317  0.00  0.00    +0.033 HD
ATOM     91  H   UNL     1     152.090 170.591 192.366  0.00  0.00    +0.057 HD
ATOM     92  H   UNL     1     150.541 172.458 192.406  0.00  0.00    +0.059 HD
ATOM     93  H   UNL     1     139.150 169.108 186.177  0.00  0.00    +0.033 HD
ATOM     94  H   UNL     1     139.862 170.654 185.726  0.00  0.00    +0.033 HD
ATOM     95  H   UNL     1     141.426 169.069 184.691  0.00  0.00    +0.057 HD
ATOM     96  H   UNL     1     140.654 167.817 182.775  0.00  0.00    +0.059 HD
ENDROOT
BRANCH  28  97
ATOM     97  C   UNL     1     143.053 173.158 189.648  0.00  0.00    -0.040 C 
ATOM     98  H   UNL     1     142.139 172.766 189.185  0.00  0.00    +0.028 HD
ATOM     99  H   UNL     1     142.946 174.244 189.747  0.00  0.00    +0.028 HD
ATOM    100  H   UNL     1     143.095 172.733 190.654  0.00  0.00    +0.028 HD
ENDBRANCH  28  97
BRANCH  21 101
ATOM    101  C   UNL     1     143.610 172.518 180.371  0.00  0.00    -0.057 C 
ATOM    102  H   UNL     1     144.012 173.222 179.635  0.00  0.00    +0.023 HD
ATOM    103  H   UNL     1     142.534 172.423 180.194  0.00  0.00    +0.023 HD
ATOM    104  H   UNL     1     144.048 171.533 180.174  0.00  0.00    +0.023 HD
ENDBRANCH  21 101
BRANCH  42 105
ATOM    105  C   UNL     1     144.582 162.066 188.656  0.00  0.00    -0.057 C 
ATOM    106  H   UNL     1     144.774 161.938 187.585  0.00  0.00    +0.023 HD
ATOM    107  H   UNL     1     145.123 161.285 189.201  0.00  0.00    +0.023 HD
ATOM    108  H   UNL     1     143.508 161.897 188.798  0.00  0.00    +0.023 HD
ENDBRANCH  42 105
BRANCH  17 109
ATOM    109  C   UNL     1     137.786 174.675 182.834  0.00  0.00    -0.058 C 
ATOM    110  H   UNL     1     137.193 174.692 183.753  0.00  0.00    +0.023 HD
ATOM    111  H   UNL     1     138.253 175.661 182.726  0.00  0.00    +0.023 HD
ATOM    112  H   UNL     1     137.108 174.543 181.985  0.00  0.00    +0.023 HD
ENDBRANCH  17 109
BRANCH  38 113
ATOM    113  C   UNL     1     150.475 166.757 189.156  0.00  0.00    -0.058 C 
ATOM    114  H   UNL     1     151.070 167.354 189.857  0.00  0.00    +0.023 HD
ATOM    115  H   UNL     1     150.375 167.327 188.229  0.00  0.00    +0.023 HD
ATOM    116  H   UNL     1     151.057 165.856 188.927  0.00  0.00    +0.023 HD
ENDBRANCH  38 113
BRANCH   7 117
ATOM    117  C   UNL     1     142.830 165.581 182.641  0.00  0.00    -0.040 C 
ATOM    118  H   UNL     1     142.417 165.691 181.632  0.00  0.00    +0.028 HD
ATOM    119  H   UNL     1     143.667 164.881 182.600  0.00  0.00    +0.028 HD
ATOM    120  H   UNL     1     143.220 166.562 182.923  0.00  0.00    +0.028 HD
ENDBRANCH   7 117
BRANCH   1 121
ATOM    121  C   UNL     1     143.846 165.943 189.428  0.00  0.00    +0.020 C 
ATOM    122  H   UNL     1     144.753 165.963 190.052  0.00  0.00    +0.036 HD
BRANCH 121 123
ATOM    123  C   UNL     1     144.087 166.888 188.237  0.00  0.00    -0.057 C 
ATOM    124  H   UNL     1     144.843 166.484 187.560  0.00  0.00    +0.023 HD
ATOM    125  H   UNL     1     144.415 167.880 188.553  0.00  0.00    +0.023 HD
ATOM    126  H   UNL     1     143.191 167.012 187.621  0.00  0.00    +0.023 HD
ENDBRANCH 121 123
BRANCH 121 127
ATOM    127  C   UNL     1     142.695 166.408 190.385  0.00  0.00    +0.064 C 
ATOM    128  H   UNL     1     141.979 166.982 189.805  0.00  0.00    +0.060 HD
BRANCH 127 129
ATOM    129  C   UNL     1     143.052 167.256 191.652  0.00  0.00    -0.017 C 
ATOM    130  H   UNL     1     142.111 167.533 192.146  0.00  0.00    +0.032 HD
BRANCH 129 131
ATOM    131  C   UNL     1     143.908 166.566 192.713  0.00  0.00    -0.060 C 
ATOM    132  H   UNL     1     143.620 166.888 193.718  0.00  0.00    +0.023 HD
ATOM    133  H   UNL     1     143.852 165.478 192.637  0.00  0.00    +0.023 HD
ATOM    134  H   UNL     1     144.964 166.846 192.602  0.00  0.00    +0.023 HD
ENDBRANCH 129 131
BRANCH 129 135
ATOM    135  C   UNL     1     143.773 168.578 191.252  0.00  0.00    -0.046 C 
ATOM    136  H   UNL     1     144.165 168.490 190.233  0.00  0.00    +0.027 HD
ATOM    137  H   UNL     1     144.651 168.708 191.890  0.00  0.00    +0.027 HD
BRANCH 135 138
ATOM    138  C   UNL     1     142.911 169.834 191.381  0.00  0.00    -0.026 C 
ATOM    139  H   UNL     1     143.474 170.697 191.018  0.00  0.00    +0.029 HD
ATOM    140  H   UNL     1     142.704 170.034 192.435  0.00  0.00    +0.029 HD
BRANCH 138 143
ATOM    141  C   UNL     1     140.693 169.514 188.395  0.00  0.00    +0.059 C 
ATOM    142  O   UNL     1     141.841 169.798 189.210  0.00  0.00    -0.373 OA
ATOM    143  C   UNL     1     141.581 169.732 190.615  0.00  0.00    +0.061 C 
ATOM    144  C   UNL     1     140.615 170.852 191.006  0.00  0.00    -0.000 C 
ATOM    145  C   UNL     1     139.600 171.173 189.902  0.00  0.00    +0.063 C 
ATOM    146  C   UNL     1     139.373 169.941 189.037  0.00  0.00    -0.000 C 
ATOM    147  H   UNL     1     140.834 170.102 187.480  0.00  0.00    +0.059 HD
ATOM    148  H   UNL     1     141.123 168.760 190.826  0.00  0.00    +0.060 HD
ATOM    149  H   UNL     1     140.110 170.581 191.937  0.00  0.00    +0.032 HD
ATOM    150  H   UNL     1     141.161 171.778 191.221  0.00  0.00    +0.032 HD
ATOM    151  H   UNL     1     139.997 171.993 189.288  0.00  0.00    +0.060 HD
ATOM    152  H   UNL     1     138.953 169.141 189.663  0.00  0.00    +0.032 HD
ATOM    153  H   UNL     1     138.623 170.118 188.257  0.00  0.00    +0.032 HD
BRANCH 141 154
ATOM    154  C   UNL     1     140.677 168.039 188.006  0.00  0.00    -0.039 C 
ATOM    155  H   UNL     1     141.206 167.872 187.064  0.00  0.00    +0.025 HD
ATOM    156  H   UNL     1     141.147 167.425 188.782  0.00  0.00    +0.025 HD
ATOM    157  H   UNL     1     139.651 167.690 187.860  0.00  0.00    +0.025 HD
ENDBRANCH 141 154
BRANCH 145 158
ATOM    158  O   UNL     1     138.396 171.606 190.543  0.00  0.00    -0.380 OA
BRANCH 158 159
ATOM    159  C   UNL     1     137.579 170.537 191.006  0.00  0.00    +0.037 C 
ATOM    160  H   UNL     1     136.644 170.555 190.439  0.00  0.00    +0.052 HD
ATOM    161  H   UNL     1     137.335 170.668 192.064  0.00  0.00    +0.052 HD
ATOM    162  H   UNL     1     138.064 169.570 190.847  0.00  0.00    +0.052 HD
ENDBRANCH 158 159
ENDBRANCH 145 158
ENDBRANCH 138 143
ENDBRANCH 135 138
ENDBRANCH 129 135
ENDBRANCH 127 129
BRANCH 127 163
ATOM    163  O   UNL     1     141.957 165.285 190.887  0.00  0.00    -0.391 OA
ATOM    164  H   UNL     1     141.007 165.489 190.858  0.00  0.00    +0.210 HD
ENDBRANCH 127 163
ENDBRANCH 121 127
ENDBRANCH   1 121
BRANCH  41 165
ATOM    165  O   UNL     1     147.066 162.749 188.043  0.00  0.00    -0.391 OA
ATOM    166  H   UNL     1     146.711 162.514 187.161  0.00  0.00    +0.210 HD
ENDBRANCH  41 165
BRANCH  39 167
ATOM    167  O   UNL     1     149.528 164.020 189.094  0.00  0.00    -0.391 OA
ATOM    168  H   UNL     1     150.097 164.154 189.876  0.00  0.00    +0.210 HD
ENDBRANCH  39 167
BRANCH  31 169
ATOM    169  O   UNL     1     146.570 173.200 192.800  0.00  0.00    -0.391 OA
ATOM    170  H   UNL     1     147.209 173.932 192.755  0.00  0.00    +0.210 HD
ENDBRANCH  31 169
BRANCH  22 171
ATOM    171  C   UNL     1     145.328 170.802 182.242  0.00  0.00    +0.020 C 
ATOM    172  H   UNL     1     145.465 171.017 181.178  0.00  0.00    +0.036 HD
BRANCH 171 173
ATOM    173  C   UNL     1     146.661 171.037 182.958  0.00  0.00    -0.057 C 
ATOM    174  H   UNL     1     147.037 170.114 183.400  0.00  0.00    +0.023 HD
ATOM    175  H   UNL     1     146.565 171.777 183.759  0.00  0.00    +0.023 HD
ATOM    176  H   UNL     1     147.424 171.420 182.276  0.00  0.00    +0.023 HD
ENDBRANCH 171 173
BRANCH 171 177
ATOM    177  C   UNL     1     144.877 169.321 182.344  0.00  0.00    +0.064 C 
ATOM    178  H   UNL     1     145.400 168.848 183.181  0.00  0.00    +0.060 HD
BRANCH 177 179
ATOM    179  O   UNL     1     143.480 169.313 182.645  0.00  0.00    -0.391 OA
ATOM    180  H   UNL     1     143.335 170.029 183.304  0.00  0.00    +0.210 HD
ENDBRANCH 177 179
BRANCH 177 181
ATOM    181  C   UNL     1     145.122 168.416 181.102  0.00  0.00    -0.017 C 
ATOM    182  H   UNL     1     144.299 167.692 181.046  0.00  0.00    +0.032 HD
BRANCH 181 183
ATOM    183  C   UNL     1     145.051 169.277 179.827  0.00  0.00    -0.060 C 
ATOM    184  H   UNL     1     145.122 170.345 180.060  0.00  0.00    +0.023 HD
ATOM    185  H   UNL     1     145.853 169.028 179.127  0.00  0.00    +0.023 HD
ATOM    186  H   UNL     1     144.110 169.115 179.299  0.00  0.00    +0.023 HD
ENDBRANCH 181 183
BRANCH 181 187
ATOM    187  C   UNL     1     146.458 167.640 181.141  0.00  0.00    -0.046 C 
ATOM    188  H   UNL     1     147.186 168.173 181.762  0.00  0.00    +0.027 HD
ATOM    189  H   UNL     1     146.883 167.590 180.131  0.00  0.00    +0.027 HD
BRANCH 187 190
ATOM    190  C   UNL     1     146.299 166.222 181.717  0.00  0.00    -0.026 C 
ATOM    191  H   UNL     1     146.409 165.489 180.914  0.00  0.00    +0.029 HD
ATOM    192  H   UNL     1     145.281 166.106 182.109  0.00  0.00    +0.029 HD
BRANCH 190 193
ATOM    193  C   UNL     1     147.307 165.913 182.839  0.00  0.00    +0.061 C 
ATOM    194  O   UNL     1     147.049 164.661 183.480  0.00  0.00    -0.373 OA
ATOM    195  C   UNL     1     145.864 164.626 184.281  0.00  0.00    +0.059 C 
ATOM    196  C   UNL     1     145.916 165.683 185.382  0.00  0.00    -0.000 C 
ATOM    197  C   UNL     1     146.166 167.072 184.792  0.00  0.00    +0.063 C 
ATOM    198  C   UNL     1     147.393 167.031 183.880  0.00  0.00    -0.000 C 
ATOM    199  H   UNL     1     148.295 165.817 182.374  0.00  0.00    +0.060 HD
ATOM    200  H   UNL     1     144.989 164.784 183.642  0.00  0.00    +0.059 HD
ATOM    201  H   UNL     1     146.720 165.453 186.093  0.00  0.00    +0.032 HD
ATOM    202  H   UNL     1     144.984 165.669 185.958  0.00  0.00    +0.032 HD
ATOM    203  H   UNL     1     145.295 167.397 184.210  0.00  0.00    +0.060 HD
ATOM    204  H   UNL     1     148.281 166.868 184.506  0.00  0.00    +0.032 HD
ATOM    205  H   UNL     1     147.542 168.008 183.404  0.00  0.00    +0.032 HD
BRANCH 195 206
ATOM    206  C   UNL     1     145.760 163.226 184.878  0.00  0.00    -0.039 C 
ATOM    207  H   UNL     1     145.406 163.279 185.913  0.00  0.00    +0.025 HD
ATOM    208  H   UNL     1     146.730 162.719 184.866  0.00  0.00    +0.025 HD
ATOM    209  H   UNL     1     145.035 162.618 184.327  0.00  0.00    +0.025 HD
ENDBRANCH 195 206
BRANCH 197 210
ATOM    210  O   UNL     1     146.430 168.039 185.816  0.00  0.00    -0.380 OA
BRANCH 210 211
ATOM    211  C   UNL     1     147.598 167.763 186.579  0.00  0.00    +0.037 C 
ATOM    212  H   UNL     1     147.785 168.620 187.234  0.00  0.00    +0.052 HD
ATOM    213  H   UNL     1     148.468 167.635 185.931  0.00  0.00    +0.052 HD
ATOM    214  H   UNL     1     147.453 166.875 187.201  0.00  0.00    +0.052 HD
ENDBRANCH 210 211
ENDBRANCH 197 210
ENDBRANCH 190 193
ENDBRANCH 187 190
ENDBRANCH 181 187
ENDBRANCH 177 181
ENDBRANCH 171 177
ENDBRANCH  22 171
BRANCH  20 215
ATOM    215  O   UNL     1     143.107 174.571 183.522  0.00  0.00    -0.391 OA
ATOM    216  H   UNL     1     143.944 175.043 183.358  0.00  0.00    +0.210 HD
ENDBRANCH  20 215
BRANCH  18 217
ATOM    217  O   UNL     1     140.521 174.858 184.091  0.00  0.00    -0.391 OA
ATOM    218  H   UNL     1     140.082 175.732 184.042  0.00  0.00    +0.210 HD
ENDBRANCH  18 217
BRANCH  10 219
ATOM    219  O   UNL     1     137.945 166.198 180.792  0.00  0.00    -0.391 OA
ATOM    220  H   UNL     1     137.545 165.457 180.301  0.00  0.00    +0.210 HD
ENDBRANCH  10 219
BRANCH  37 221
ATOM    221  O   UNL     1     150.390 166.030 191.785  0.00  0.00    -0.379 OA
BRANCH 221 222
ATOM    222  C   UNL     1     150.462 164.888 192.629  0.00  0.00    +0.037 C 
ATOM    223  H   UNL     1     149.679 164.979 193.387  0.00  0.00    +0.052 HD
ATOM    224  H   UNL     1     150.284 163.970 192.066  0.00  0.00    +0.052 HD
ATOM    225  H   UNL     1     151.431 164.840 193.135  0.00  0.00    +0.052 HD
ENDBRANCH 221 222
ENDBRANCH  37 221
BRANCH  16 226
ATOM    226  O   UNL     1     137.611 172.951 184.914  0.00  0.00    -0.379 OA
BRANCH 226 227
ATOM    227  C   UNL     1     138.089 173.301 186.207  0.00  0.00    +0.037 C 
ATOM    228  H   UNL     1     137.733 172.605 186.972  0.00  0.00    +0.052 HD
ATOM    229  H   UNL     1     137.773 174.321 186.452  0.00  0.00    +0.052 HD
ATOM    230  H   UNL     1     139.183 173.269 186.192  0.00  0.00    +0.052 HD
ENDBRANCH 226 227
ENDBRANCH  16 226
TORSDOF 40
ENDMDL
MODEL 8
REMARK VINA RESULT:      -4.5      1.642      4.141
REMARK  Name = Swinholide A_conf1
REMARK  40 active torsions:
REMARK  status: ('A' for Active; 'I' for Inactive)
REMARK    1  A    between atoms: C_1  and  C_2
REMARK    2  A    between atoms: C_4  and  C_10
REMARK    3  A    between atoms: C_6  and  O_8
REMARK    4  A    between atoms: O_8  and  C_9
REMARK    5  A    between atoms: C_10  and  C_11
REMARK    6  A    between atoms: C_11  and  C_12
REMARK    7  A    between atoms: C_12  and  C_13
REMARK    8  A    between atoms: C_12  and  C_98
REMARK    9  A    between atoms: C_13  and  O_14
REMARK   10  A    between atoms: C_13  and  C_15
REMARK   11  A    between atoms: C_15  and  C_16
REMARK   12  A    between atoms: C_15  and  C_97
REMARK   13  A    between atoms: C_22  and  C_96
REMARK   14  A    between atoms: C_25  and  O_95
REMARK   15  A    between atoms: C_31  and  O_90
REMARK   16  A    between atoms: C_32  and  C_89
REMARK   17  A    between atoms: C_33  and  O_88
REMARK   18  A    between atoms: C_35  and  O_87
REMARK   19  A    between atoms: C_36  and  C_86
REMARK   20  A    between atoms: C_37  and  C_69
REMARK   21  A    between atoms: C_43  and  C_68
REMARK   22  A    between atoms: C_46  and  O_67
REMARK   23  A    between atoms: C_52  and  O_62
REMARK   24  A    between atoms: C_53  and  C_61
REMARK   25  A    between atoms: C_54  and  O_60
REMARK   26  A    between atoms: C_56  and  O_59
REMARK   27  A    between atoms: C_57  and  C_58
REMARK   28  A    between atoms: O_62  and  C_63
REMARK   29  A    between atoms: C_69  and  C_70
REMARK   30  A    between atoms: C_69  and  C_85
REMARK   31  A    between atoms: C_70  and  O_71
REMARK   32  A    between atoms: C_70  and  C_72
REMARK   33  A    between atoms: C_72  and  C_73
REMARK   34  A    between atoms: C_72  and  C_84
REMARK   35  A    between atoms: C_73  and  C_74
REMARK   36  A    between atoms: C_74  and  C_75
REMARK   37  A    between atoms: C_77  and  C_83
REMARK   38  A    between atoms: C_79  and  O_81
REMARK   39  A    between atoms: O_81  and  C_82
REMARK   40  A    between atoms: O_90  and  C_91
REMARK                            x       y       z     vdW  Elec       q    Type
REMARK                         _______ _______ _______ _____ _____    ______ ____
ROOT
ATOM      1  C   UNL     1     146.797 167.863 183.956  0.00  0.00    +0.113 C 
ATOM      2  O   UNL     1     146.609 166.431 183.793  0.00  0.00    -0.458 OA
ATOM      3  C   UNL     1     146.759 165.950 182.528  0.00  0.00    +0.332 C 
ATOM      4  O   UNL     1     146.990 166.616 181.524  0.00  0.00    -0.246 OA
ATOM      5  C   UNL     1     146.608 164.489 182.446  0.00  0.00    +0.023 C 
ATOM      6  C   UNL     1     146.811 163.645 183.468  0.00  0.00    -0.052 C 
ATOM      7  C   UNL     1     146.796 162.190 183.358  0.00  0.00    -0.054 C 
ATOM      8  C   UNL     1     147.404 161.555 182.334  0.00  0.00    -0.079 C 
ATOM      9  C   UNL     1     147.648 160.070 182.231  0.00  0.00    -0.008 C 
ATOM     10  C   UNL     1     148.932 159.683 181.473  0.00  0.00    +0.061 C 
ATOM     11  C   UNL     1     150.228 160.435 181.804  0.00  0.00    +0.003 C 
ATOM     12  C   UNL     1     150.879 160.214 183.182  0.00  0.00    +0.080 C 
ATOM     13  O   UNL     1     152.238 160.688 183.009  0.00  0.00    -0.369 OA
ATOM     14  C   UNL     1     152.921 161.141 184.189  0.00  0.00    +0.065 C 
ATOM     15  C   UNL     1     153.231 159.964 185.138  0.00  0.00    +0.000 C 
ATOM     16  C   UNL     1     154.107 160.356 186.347  0.00  0.00    +0.066 C 
ATOM     17  C   UNL     1     154.307 159.126 187.285  0.00  0.00    +0.009 C 
ATOM     18  C   UNL     1     153.827 159.391 188.735  0.00  0.00    +0.063 C 
ATOM     19  C   UNL     1     152.300 159.602 188.843  0.00  0.00    -0.000 C 
ATOM     20  C   UNL     1     151.836 159.635 190.314  0.00  0.00    +0.064 C 
ATOM     21  C   UNL     1     150.290 159.652 190.522  0.00  0.00    +0.020 C 
ATOM     22  C   UNL     1     149.571 160.853 189.829  0.00  0.00    +0.113 C 
ATOM     23  O   UNL     1     150.124 162.069 190.400  0.00  0.00    -0.458 OA
ATOM     24  C   UNL     1     150.480 163.043 189.521  0.00  0.00    +0.332 C 
ATOM     25  O   UNL     1     150.275 163.039 188.319  0.00  0.00    -0.246 OA
ATOM     26  C   UNL     1     151.131 164.147 190.263  0.00  0.00    +0.023 C 
ATOM     27  C   UNL     1     151.598 165.205 189.584  0.00  0.00    -0.052 C 
ATOM     28  C   UNL     1     152.235 166.382 190.163  0.00  0.00    -0.054 C 
ATOM     29  C   UNL     1     151.650 167.078 191.160  0.00  0.00    -0.079 C 
ATOM     30  C   UNL     1     152.160 168.329 191.822  0.00  0.00    -0.008 C 
ATOM     31  C   UNL     1     151.431 169.629 191.408  0.00  0.00    +0.061 C 
ATOM     32  C   UNL     1     150.078 169.817 192.126  0.00  0.00    +0.003 C 
ATOM     33  C   UNL     1     149.471 171.224 191.931  0.00  0.00    +0.080 C 
ATOM     34  O   UNL     1     148.803 171.344 190.664  0.00  0.00    -0.369 OA
ATOM     35  C   UNL     1     147.369 171.163 190.663  0.00  0.00    +0.065 C 
ATOM     36  C   UNL     1     146.920 171.441 189.217  0.00  0.00    +0.000 C 
ATOM     37  C   UNL     1     145.431 171.258 188.837  0.00  0.00    +0.066 C 
ATOM     38  C   UNL     1     144.955 169.782 189.010  0.00  0.00    +0.009 C 
ATOM     39  C   UNL     1     144.174 169.226 187.786  0.00  0.00    +0.063 C 
ATOM     40  C   UNL     1     144.853 169.486 186.431  0.00  0.00    -0.000 C 
ATOM     41  C   UNL     1     144.620 168.347 185.420  0.00  0.00    +0.064 C 
ATOM     42  C   UNL     1     145.418 168.598 184.106  0.00  0.00    +0.020 C 
ATOM     43  C   UNL     1     146.692 172.103 191.671  0.00  0.00    -0.008 C 
ATOM     44  C   UNL     1     147.343 172.016 193.011  0.00  0.00    -0.083 C 
ATOM     45  C   UNL     1     148.612 171.614 193.112  0.00  0.00    -0.059 C 
ATOM     46  C   UNL     1     152.123 162.302 184.809  0.00  0.00    -0.008 C 
ATOM     47  C   UNL     1     150.704 161.898 185.040  0.00  0.00    -0.083 C 
ATOM     48  C   UNL     1     150.158 160.919 184.306  0.00  0.00    -0.059 C 
ATOM     49  H   UNL     1     147.218 168.266 183.023  0.00  0.00    +0.074 HD
ATOM     50  H   UNL     1     146.401 164.128 181.444  0.00  0.00    +0.069 HD
ATOM     51  H   UNL     1     147.053 164.019 184.461  0.00  0.00    +0.062 HD
ATOM     52  H   UNL     1     147.836 162.147 181.528  0.00  0.00    +0.058 HD
ATOM     53  H   UNL     1     147.660 159.589 183.215  0.00  0.00    +0.033 HD
ATOM     54  H   UNL     1     146.796 159.620 181.701  0.00  0.00    +0.033 HD
ATOM     55  H   UNL     1     148.730 159.850 180.407  0.00  0.00    +0.060 HD
ATOM     56  H   UNL     1     150.103 161.512 181.628  0.00  0.00    +0.032 HD
ATOM     57  H   UNL     1     150.969 160.122 181.053  0.00  0.00    +0.032 HD
ATOM     58  H   UNL     1     150.940 159.143 183.405  0.00  0.00    +0.064 HD
ATOM     59  H   UNL     1     153.874 161.550 183.832  0.00  0.00    +0.060 HD
ATOM     60  H   UNL     1     153.751 159.195 184.549  0.00  0.00    +0.032 HD
ATOM     61  H   UNL     1     152.303 159.499 185.491  0.00  0.00    +0.032 HD
ATOM     62  H   UNL     1     153.602 161.163 186.888  0.00  0.00    +0.060 HD
ATOM     63  H   UNL     1     153.690 158.294 186.914  0.00  0.00    +0.035 HD
ATOM     64  H   UNL     1     154.097 158.526 189.353  0.00  0.00    +0.060 HD
ATOM     65  H   UNL     1     152.043 160.558 188.374  0.00  0.00    +0.032 HD
ATOM     66  H   UNL     1     151.784 158.799 188.303  0.00  0.00    +0.032 HD
ATOM     67  H   UNL     1     152.231 158.747 190.825  0.00  0.00    +0.060 HD
ATOM     68  H   UNL     1     150.145 159.762 191.605  0.00  0.00    +0.036 HD
ATOM     69  H   UNL     1     149.807 160.786 188.761  0.00  0.00    +0.074 HD
ATOM     70  H   UNL     1     151.211 164.057 191.337  0.00  0.00    +0.069 HD
ATOM     71  H   UNL     1     151.512 165.220 188.496  0.00  0.00    +0.062 HD
ATOM     72  H   UNL     1     150.706 166.720 191.566  0.00  0.00    +0.058 HD
ATOM     73  H   UNL     1     152.084 168.199 192.911  0.00  0.00    +0.033 HD
ATOM     74  H   UNL     1     153.236 168.446 191.650  0.00  0.00    +0.033 HD
ATOM     75  H   UNL     1     151.282 169.666 190.322  0.00  0.00    +0.060 HD
ATOM     76  H   UNL     1     150.250 169.651 193.198  0.00  0.00    +0.032 HD
ATOM     77  H   UNL     1     149.375 169.050 191.781  0.00  0.00    +0.032 HD
ATOM     78  H   UNL     1     150.275 171.968 191.901  0.00  0.00    +0.064 HD
ATOM     79  H   UNL     1     147.170 170.119 190.922  0.00  0.00    +0.060 HD
ATOM     80  H   UNL     1     147.520 170.803 188.551  0.00  0.00    +0.032 HD
ATOM     81  H   UNL     1     147.229 172.462 188.961  0.00  0.00    +0.032 HD
ATOM     82  H   UNL     1     145.370 171.523 187.777  0.00  0.00    +0.060 HD
ATOM     83  H   UNL     1     145.850 169.153 189.075  0.00  0.00    +0.035 HD
ATOM     84  H   UNL     1     144.080 168.143 187.940  0.00  0.00    +0.060 HD
ATOM     85  H   UNL     1     144.447 170.413 186.003  0.00  0.00    +0.032 HD
ATOM     86  H   UNL     1     145.919 169.641 186.575  0.00  0.00    +0.032 HD
ATOM     87  H   UNL     1     144.899 167.380 185.848  0.00  0.00    +0.060 HD
ATOM     88  H   UNL     1     145.632 169.675 184.049  0.00  0.00    +0.036 HD
ATOM     89  H   UNL     1     145.632 171.849 191.781  0.00  0.00    +0.033 HD
ATOM     90  H   UNL     1     146.755 173.145 191.337  0.00  0.00    +0.033 HD
ATOM     91  H   UNL     1     146.782 172.327 193.887  0.00  0.00    +0.057 HD
ATOM     92  H   UNL     1     149.085 171.591 194.092  0.00  0.00    +0.059 HD
ATOM     93  H   UNL     1     152.116 163.156 184.120  0.00  0.00    +0.033 HD
ATOM     94  H   UNL     1     152.575 162.646 185.742  0.00  0.00    +0.033 HD
ATOM     95  H   UNL     1     150.134 162.396 185.818  0.00  0.00    +0.057 HD
ATOM     96  H   UNL     1     149.146 160.604 184.536  0.00  0.00    +0.059 HD
ENDROOT
BRANCH  28  97
ATOM     97  C   UNL     1     153.514 166.775 189.470  0.00  0.00    -0.040 C 
ATOM     98  H   UNL     1     153.588 167.865 189.374  0.00  0.00    +0.028 HD
ATOM     99  H   UNL     1     153.546 166.340 188.465  0.00  0.00    +0.028 HD
ATOM    100  H   UNL     1     154.412 166.450 190.003  0.00  0.00    +0.028 HD
ENDBRANCH  28  97
BRANCH  21 101
ATOM    101  C   UNL     1     149.696 158.302 190.105  0.00  0.00    -0.057 C 
ATOM    102  H   UNL     1     150.393 157.479 190.290  0.00  0.00    +0.023 HD
ATOM    103  H   UNL     1     149.439 158.294 189.040  0.00  0.00    +0.023 HD
ATOM    104  H   UNL     1     148.770 158.092 190.651  0.00  0.00    +0.023 HD
ENDBRANCH  21 101
BRANCH  42 105
ATOM    105  C   UNL     1     144.551 168.296 182.860  0.00  0.00    -0.057 C 
ATOM    106  H   UNL     1     144.500 167.218 182.667  0.00  0.00    +0.023 HD
ATOM    107  H   UNL     1     143.530 168.676 182.976  0.00  0.00    +0.023 HD
ATOM    108  H   UNL     1     144.983 168.749 181.960  0.00  0.00    +0.023 HD
ENDBRANCH  42 105
BRANCH  17 109
ATOM    109  C   UNL     1     155.752 158.605 187.299  0.00  0.00    -0.058 C 
ATOM    110  H   UNL     1     155.801 157.529 187.493  0.00  0.00    +0.023 HD
ATOM    111  H   UNL     1     156.234 158.788 186.332  0.00  0.00    +0.023 HD
ATOM    112  H   UNL     1     156.345 159.122 188.060  0.00  0.00    +0.023 HD
ENDBRANCH  17 109
BRANCH  38 113
ATOM    113  C   UNL     1     144.138 169.553 190.292  0.00  0.00    -0.058 C 
ATOM    114  H   UNL     1     143.951 168.489 190.480  0.00  0.00    +0.023 HD
ATOM    115  H   UNL     1     143.171 170.060 190.244  0.00  0.00    +0.023 HD
ATOM    116  H   UNL     1     144.672 169.944 191.166  0.00  0.00    +0.023 HD
ENDBRANCH  38 113
BRANCH   7 117
ATOM    117  C   UNL     1     146.153 161.493 184.524  0.00  0.00    -0.040 C 
ATOM    118  H   UNL     1     145.797 162.222 185.262  0.00  0.00    +0.028 HD
ATOM    119  H   UNL     1     146.870 160.828 185.009  0.00  0.00    +0.028 HD
ATOM    120  H   UNL     1     145.283 160.901 184.231  0.00  0.00    +0.028 HD
ENDBRANCH   7 117
BRANCH   1 121
ATOM    121  C   UNL     1     147.953 168.109 184.996  0.00  0.00    +0.020 C 
ATOM    122  H   UNL     1     148.871 168.044 184.390  0.00  0.00    +0.036 HD
BRANCH 121 123
ATOM    123  C   UNL     1     147.851 169.554 185.519  0.00  0.00    -0.057 C 
ATOM    124  H   UNL     1     148.287 170.262 184.810  0.00  0.00    +0.023 HD
ATOM    125  H   UNL     1     148.353 169.685 186.479  0.00  0.00    +0.023 HD
ATOM    126  H   UNL     1     146.811 169.877 185.638  0.00  0.00    +0.023 HD
ENDBRANCH 121 123
BRANCH 121 127
ATOM    127  C   UNL     1     148.144 167.038 186.123  0.00  0.00    +0.064 C 
ATOM    128  H   UNL     1     147.989 166.054 185.689  0.00  0.00    +0.060 HD
BRANCH 127 129
ATOM    129  C   UNL     1     147.259 167.120 187.412  0.00  0.00    -0.017 C 
ATOM    130  H   UNL     1     146.697 168.063 187.373  0.00  0.00    +0.032 HD
BRANCH 129 131
ATOM    131  C   UNL     1     146.226 166.011 187.600  0.00  0.00    -0.060 C 
ATOM    132  H   UNL     1     145.329 166.390 188.097  0.00  0.00    +0.023 HD
ATOM    133  H   UNL     1     145.958 165.539 186.651  0.00  0.00    +0.023 HD
ATOM    134  H   UNL     1     146.619 165.222 188.255  0.00  0.00    +0.023 HD
ENDBRANCH 129 131
BRANCH 129 135
ATOM    135  C   UNL     1     148.144 167.161 188.693  0.00  0.00    -0.046 C 
ATOM    136  H   UNL     1     147.942 168.082 189.251  0.00  0.00    +0.027 HD
ATOM    137  H   UNL     1     149.193 167.226 188.396  0.00  0.00    +0.027 HD
BRANCH 135 138
ATOM    138  C   UNL     1     147.991 165.945 189.608  0.00  0.00    -0.026 C 
ATOM    139  H   UNL     1     148.910 165.354 189.580  0.00  0.00    +0.029 HD
ATOM    140  H   UNL     1     147.203 165.291 189.226  0.00  0.00    +0.029 HD
BRANCH 138 143
ATOM    141  C   UNL     1     148.163 165.698 193.329  0.00  0.00    +0.059 C 
ATOM    142  O   UNL     1     148.231 165.341 191.940  0.00  0.00    -0.373 OA
ATOM    143  C   UNL     1     147.670 166.324 191.064  0.00  0.00    +0.061 C 
ATOM    144  C   UNL     1     146.163 166.419 191.307  0.00  0.00    -0.000 C 
ATOM    145  C   UNL     1     145.780 166.175 192.771  0.00  0.00    +0.063 C 
ATOM    146  C   UNL     1     146.944 166.552 193.678  0.00  0.00    -0.000 C 
ATOM    147  H   UNL     1     148.080 164.747 193.870  0.00  0.00    +0.059 HD
ATOM    148  H   UNL     1     148.143 167.285 191.294  0.00  0.00    +0.060 HD
ATOM    149  H   UNL     1     145.807 167.395 190.965  0.00  0.00    +0.032 HD
ATOM    150  H   UNL     1     145.625 165.678 190.704  0.00  0.00    +0.032 HD
ATOM    151  H   UNL     1     145.537 165.111 192.897  0.00  0.00    +0.060 HD
ATOM    152  H   UNL     1     147.156 167.623 193.556  0.00  0.00    +0.032 HD
ATOM    153  H   UNL     1     146.697 166.427 194.738  0.00  0.00    +0.032 HD
BRANCH 141 154
ATOM    154  C   UNL     1     149.462 166.370 193.762  0.00  0.00    -0.039 C 
ATOM    155  H   UNL     1     149.821 165.966 194.713  0.00  0.00    +0.025 HD
ATOM    156  H   UNL     1     150.244 166.231 193.008  0.00  0.00    +0.025 HD
ATOM    157  H   UNL     1     149.310 167.442 193.911  0.00  0.00    +0.025 HD
ENDBRANCH 141 154
BRANCH 145 158
ATOM    158  O   UNL     1     144.614 166.959 193.043  0.00  0.00    -0.380 OA
BRANCH 158 159
ATOM    159  C   UNL     1     143.461 166.536 192.326  0.00  0.00    +0.037 C 
ATOM    160  H   UNL     1     143.121 165.591 192.757  0.00  0.00    +0.052 HD
ATOM    161  H   UNL     1     143.705 166.359 191.274  0.00  0.00    +0.052 HD
ATOM    162  H   UNL     1     142.652 167.268 192.407  0.00  0.00    +0.052 HD
ENDBRANCH 158 159
ENDBRANCH 145 158
ENDBRANCH 138 143
ENDBRANCH 135 138
ENDBRANCH 129 135
ENDBRANCH 127 129
BRANCH 127 163
ATOM    163  O   UNL     1     149.495 167.028 186.602  0.00  0.00    -0.391 OA
ATOM    164  H   UNL     1     149.508 166.697 187.516  0.00  0.00    +0.210 HD
ENDBRANCH 127 163
ENDBRANCH 121 127
ENDBRANCH   1 121
BRANCH  41 165
ATOM    165  O   UNL     1     143.216 168.285 185.147  0.00  0.00    -0.391 OA
ATOM    166  H   UNL     1     142.857 169.196 185.112  0.00  0.00    +0.210 HD
ENDBRANCH  41 165
BRANCH  39 167
ATOM    167  O   UNL     1     142.842 169.730 187.707  0.00  0.00    -0.391 OA
ATOM    168  H   UNL     1     142.270 169.165 188.260  0.00  0.00    +0.210 HD
ENDBRANCH  39 167
BRANCH  31 169
ATOM    169  O   UNL     1     152.293 170.719 191.763  0.00  0.00    -0.391 OA
ATOM    170  H   UNL     1     151.842 171.229 192.459  0.00  0.00    +0.210 HD
ENDBRANCH  31 169
BRANCH  22 171
ATOM    171  C   UNL     1     148.009 160.859 189.984  0.00  0.00    +0.020 C 
ATOM    172  H   UNL     1     147.749 159.975 190.575  0.00  0.00    +0.036 HD
BRANCH 171 173
ATOM    173  C   UNL     1     147.513 162.101 190.728  0.00  0.00    -0.057 C 
ATOM    174  H   UNL     1     147.582 162.990 190.098  0.00  0.00    +0.023 HD
ATOM    175  H   UNL     1     148.094 162.288 191.636  0.00  0.00    +0.023 HD
ATOM    176  H   UNL     1     146.472 161.994 191.045  0.00  0.00    +0.023 HD
ENDBRANCH 171 173
BRANCH 171 177
ATOM    177  C   UNL     1     147.310 160.697 188.608  0.00  0.00    +0.064 C 
ATOM    178  H   UNL     1     146.283 161.070 188.687  0.00  0.00    +0.060 HD
BRANCH 177 179
ATOM    179  O   UNL     1     148.001 161.524 187.670  0.00  0.00    -0.391 OA
ATOM    180  H   UNL     1     148.225 160.948 186.905  0.00  0.00    +0.210 HD
ENDBRANCH 177 179
BRANCH 177 181
ATOM    181  C   UNL     1     147.213 159.258 188.025  0.00  0.00    -0.017 C 
ATOM    182  H   UNL     1     147.718 158.578 188.723  0.00  0.00    +0.032 HD
BRANCH 181 183
ATOM    183  C   UNL     1     145.734 158.832 187.973  0.00  0.00    -0.060 C 
ATOM    184  H   UNL     1     145.228 159.246 187.095  0.00  0.00    +0.023 HD
ATOM    185  H   UNL     1     145.629 157.743 187.943  0.00  0.00    +0.023 HD
ATOM    186  H   UNL     1     145.197 159.175 188.858  0.00  0.00    +0.023 HD
ENDBRANCH 181 183
BRANCH 181 187
ATOM    187  C   UNL     1     147.858 159.098 186.630  0.00  0.00    -0.046 C 
ATOM    188  H   UNL     1     147.927 160.071 186.133  0.00  0.00    +0.027 HD
ATOM    189  H   UNL     1     147.218 158.467 186.000  0.00  0.00    +0.027 HD
BRANCH 187 190
ATOM    190  C   UNL     1     149.277 158.506 186.701  0.00  0.00    -0.026 C 
ATOM    191  H   UNL     1     149.696 158.687 187.694  0.00  0.00    +0.029 HD
ATOM    192  H   UNL     1     149.921 159.033 185.988  0.00  0.00    +0.029 HD
BRANCH 190 193
ATOM    193  C   UNL     1     149.314 156.998 186.392  0.00  0.00    +0.061 C 
ATOM    194  O   UNL     1     150.268 156.296 187.194  0.00  0.00    -0.373 OA
ATOM    195  C   UNL     1     151.637 156.581 186.891  0.00  0.00    +0.059 C 
ATOM    196  C   UNL     1     151.956 156.250 185.435  0.00  0.00    -0.000 C 
ATOM    197  C   UNL     1     150.999 156.977 184.489  0.00  0.00    +0.063 C 
ATOM    198  C   UNL     1     149.554 156.705 184.910  0.00  0.00    -0.000 C 
ATOM    199  H   UNL     1     148.334 156.585 186.656  0.00  0.00    +0.060 HD
ATOM    200  H   UNL     1     151.842 157.638 187.096  0.00  0.00    +0.059 HD
ATOM    201  H   UNL     1     151.868 155.170 185.262  0.00  0.00    +0.032 HD
ATOM    202  H   UNL     1     152.995 156.514 185.211  0.00  0.00    +0.032 HD
ATOM    203  H   UNL     1     151.185 158.058 184.519  0.00  0.00    +0.060 HD
ATOM    204  H   UNL     1     149.333 155.646 184.715  0.00  0.00    +0.032 HD
ATOM    205  H   UNL     1     148.862 157.272 184.275  0.00  0.00    +0.032 HD
BRANCH 195 206
ATOM    206  C   UNL     1     152.495 155.748 187.837  0.00  0.00    -0.039 C 
ATOM    207  H   UNL     1     152.860 154.850 187.327  0.00  0.00    +0.025 HD
ATOM    208  H   UNL     1     151.925 155.442 188.720  0.00  0.00    +0.025 HD
ATOM    209  H   UNL     1     153.378 156.308 188.162  0.00  0.00    +0.025 HD
ENDBRANCH 195 206
BRANCH 197 210
ATOM    210  O   UNL     1     151.142 156.517 183.139  0.00  0.00    -0.380 OA
BRANCH 210 211
ATOM    211  C   UNL     1     152.380 156.877 182.539  0.00  0.00    +0.037 C 
ATOM    212  H   UNL     1     152.384 157.961 182.395  0.00  0.00    +0.052 HD
ATOM    213  H   UNL     1     152.492 156.404 181.559  0.00  0.00    +0.052 HD
ATOM    214  H   UNL     1     153.218 156.609 183.188  0.00  0.00    +0.052 HD
ENDBRANCH 210 211
ENDBRANCH 197 210
ENDBRANCH 190 193
ENDBRANCH 187 190
ENDBRANCH 181 187
ENDBRANCH 177 181
ENDBRANCH 171 177
ENDBRANCH  22 171
BRANCH  20 215
ATOM    215  O   UNL     1     152.462 160.756 190.952  0.00  0.00    -0.391 OA
ATOM    216  H   UNL     1     151.831 161.499 190.927  0.00  0.00    +0.210 HD
ENDBRANCH  20 215
BRANCH  18 217
ATOM    217  O   UNL     1     154.518 160.519 189.276  0.00  0.00    -0.391 OA
ATOM    218  H   UNL     1     153.900 161.277 189.217  0.00  0.00    +0.210 HD
ENDBRANCH  18 217
BRANCH  10 219
ATOM    219  O   UNL     1     149.137 158.275 181.625  0.00  0.00    -0.391 OA
ATOM    220  H   UNL     1     149.212 158.094 182.580  0.00  0.00    +0.210 HD
ENDBRANCH  10 219
BRANCH  37 221
ATOM    221  O   UNL     1     144.546 172.140 189.528  0.00  0.00    -0.379 OA
BRANCH 221 222
ATOM    222  C   UNL     1     143.882 173.079 188.693  0.00  0.00    +0.037 C 
ATOM    223  H   UNL     1     143.789 172.637 187.697  0.00  0.00    +0.052 HD
ATOM    224  H   UNL     1     142.877 173.294 189.063  0.00  0.00    +0.052 HD
ATOM    225  H   UNL     1     144.461 174.004 188.610  0.00  0.00    +0.052 HD
ENDBRANCH 221 222
ENDBRANCH  37 221
BRANCH  16 226
ATOM    226  O   UNL     1     155.353 160.833 185.813  0.00  0.00    -0.379 OA
BRANCH 226 227
ATOM    227  C   UNL     1     155.715 162.112 186.317  0.00  0.00    +0.037 C 
ATOM    228  H   UNL     1     155.501 162.907 185.595  0.00  0.00    +0.052 HD
ATOM    229  H   UNL     1     156.779 162.117 186.576  0.00  0.00    +0.052 HD
ATOM    230  H   UNL     1     155.133 162.305 187.225  0.00  0.00    +0.052 HD
ENDBRANCH 226 227
ENDBRANCH  16 226
TORSDOF 40
ENDMDL
MODEL 9
REMARK VINA RESULT:      -4.5      2.451     11.070
REMARK  Name = Swinholide A_conf1
REMARK  40 active torsions:
REMARK  status: ('A' for Active; 'I' for Inactive)
REMARK    1  A    between atoms: C_1  and  C_2
REMARK    2  A    between atoms: C_4  and  C_10
REMARK    3  A    between atoms: C_6  and  O_8
REMARK    4  A    between atoms: O_8  and  C_9
REMARK    5  A    between atoms: C_10  and  C_11
REMARK    6  A    between atoms: C_11  and  C_12
REMARK    7  A    between atoms: C_12  and  C_13
REMARK    8  A    between atoms: C_12  and  C_98
REMARK    9  A    between atoms: C_13  and  O_14
REMARK   10  A    between atoms: C_13  and  C_15
REMARK   11  A    between atoms: C_15  and  C_16
REMARK   12  A    between atoms: C_15  and  C_97
REMARK   13  A    between atoms: C_22  and  C_96
REMARK   14  A    between atoms: C_25  and  O_95
REMARK   15  A    between atoms: C_31  and  O_90
REMARK   16  A    between atoms: C_32  and  C_89
REMARK   17  A    between atoms: C_33  and  O_88
REMARK   18  A    between atoms: C_35  and  O_87
REMARK   19  A    between atoms: C_36  and  C_86
REMARK   20  A    between atoms: C_37  and  C_69
REMARK   21  A    between atoms: C_43  and  C_68
REMARK   22  A    between atoms: C_46  and  O_67
REMARK   23  A    between atoms: C_52  and  O_62
REMARK   24  A    between atoms: C_53  and  C_61
REMARK   25  A    between atoms: C_54  and  O_60
REMARK   26  A    between atoms: C_56  and  O_59
REMARK   27  A    between atoms: C_57  and  C_58
REMARK   28  A    between atoms: O_62  and  C_63
REMARK   29  A    between atoms: C_69  and  C_70
REMARK   30  A    between atoms: C_69  and  C_85
REMARK   31  A    between atoms: C_70  and  O_71
REMARK   32  A    between atoms: C_70  and  C_72
REMARK   33  A    between atoms: C_72  and  C_73
REMARK   34  A    between atoms: C_72  and  C_84
REMARK   35  A    between atoms: C_73  and  C_74
REMARK   36  A    between atoms: C_74  and  C_75
REMARK   37  A    between atoms: C_77  and  C_83
REMARK   38  A    between atoms: C_79  and  O_81
REMARK   39  A    between atoms: O_81  and  C_82
REMARK   40  A    between atoms: O_90  and  C_91
REMARK                            x       y       z     vdW  Elec       q    Type
REMARK                         _______ _______ _______ _____ _____    ______ ____
ROOT
ATOM      1  C   UNL     1     150.401 166.097 190.572  0.00  0.00    +0.113 C 
ATOM      2  O   UNL     1     149.154 166.827 190.734  0.00  0.00    -0.458 OA
ATOM      3  C   UNL     1     149.254 168.057 191.310  0.00  0.00    +0.332 C 
ATOM      4  O   UNL     1     150.280 168.574 191.738  0.00  0.00    -0.246 OA
ATOM      5  C   UNL     1     147.964 168.759 191.392  0.00  0.00    +0.023 C 
ATOM      6  C   UNL     1     146.917 168.523 190.588  0.00  0.00    -0.052 C 
ATOM      7  C   UNL     1     145.687 169.309 190.576  0.00  0.00    -0.054 C 
ATOM      8  C   UNL     1     145.712 170.657 190.630  0.00  0.00    -0.079 C 
ATOM      9  C   UNL     1     144.537 171.575 190.401  0.00  0.00    -0.008 C 
ATOM     10  C   UNL     1     144.898 172.932 189.766  0.00  0.00    +0.061 C 
ATOM     11  C   UNL     1     145.852 172.941 188.563  0.00  0.00    +0.003 C 
ATOM     12  C   UNL     1     145.360 172.354 187.226  0.00  0.00    +0.080 C 
ATOM     13  O   UNL     1     146.278 172.898 186.245  0.00  0.00    -0.369 OA
ATOM     14  C   UNL     1     146.457 172.141 185.036  0.00  0.00    +0.065 C 
ATOM     15  C   UNL     1     145.182 172.173 184.167  0.00  0.00    +0.000 C 
ATOM     16  C   UNL     1     145.360 171.518 182.781  0.00  0.00    +0.066 C 
ATOM     17  C   UNL     1     144.007 171.531 182.005  0.00  0.00    +0.009 C 
ATOM     18  C   UNL     1     143.544 170.114 181.579  0.00  0.00    +0.063 C 
ATOM     19  C   UNL     1     143.191 169.203 182.776  0.00  0.00    -0.000 C 
ATOM     20  C   UNL     1     142.524 167.892 182.312  0.00  0.00    +0.064 C 
ATOM     21  C   UNL     1     141.959 166.992 183.455  0.00  0.00    +0.020 C 
ATOM     22  C   UNL     1     143.027 166.567 184.512  0.00  0.00    +0.113 C 
ATOM     23  O   UNL     1     144.053 165.820 183.805  0.00  0.00    -0.458 OA
ATOM     24  C   UNL     1     145.342 166.155 184.079  0.00  0.00    +0.332 C 
ATOM     25  O   UNL     1     145.717 166.936 184.937  0.00  0.00    -0.246 OA
ATOM     26  C   UNL     1     146.239 165.385 183.187  0.00  0.00    +0.023 C 
ATOM     27  C   UNL     1     147.564 165.585 183.260  0.00  0.00    -0.052 C 
ATOM     28  C   UNL     1     148.579 164.891 182.479  0.00  0.00    -0.054 C 
ATOM     29  C   UNL     1     148.626 163.544 182.425  0.00  0.00    -0.079 C 
ATOM     30  C   UNL     1     149.634 162.692 181.703  0.00  0.00    -0.008 C 
ATOM     31  C   UNL     1     150.682 162.010 182.614  0.00  0.00    +0.061 C 
ATOM     32  C   UNL     1     150.140 160.748 183.317  0.00  0.00    +0.003 C 
ATOM     33  C   UNL     1     151.239 159.911 184.009  0.00  0.00    +0.080 C 
ATOM     34  O   UNL     1     151.596 160.458 185.290  0.00  0.00    -0.369 OA
ATOM     35  C   UNL     1     150.973 159.862 186.449  0.00  0.00    +0.065 C 
ATOM     36  C   UNL     1     151.604 160.566 187.664  0.00  0.00    +0.000 C 
ATOM     37  C   UNL     1     151.102 160.222 189.086  0.00  0.00    +0.066 C 
ATOM     38  C   UNL     1     149.599 160.591 189.287  0.00  0.00    +0.009 C 
ATOM     39  C   UNL     1     149.314 161.383 190.594  0.00  0.00    +0.063 C 
ATOM     40  C   UNL     1     150.264 162.568 190.834  0.00  0.00    -0.000 C 
ATOM     41  C   UNL     1     149.572 163.752 191.537  0.00  0.00    +0.064 C 
ATOM     42  C   UNL     1     150.537 164.969 191.657  0.00  0.00    +0.020 C 
ATOM     43  C   UNL     1     151.197 158.343 186.480  0.00  0.00    -0.008 C 
ATOM     44  C   UNL     1     150.836 157.719 185.173  0.00  0.00    -0.083 C 
ATOM     45  C   UNL     1     150.861 158.449 184.055  0.00  0.00    -0.059 C 
ATOM     46  C   UNL     1     146.977 170.740 185.401  0.00  0.00    -0.008 C 
ATOM     47  C   UNL     1     146.079 170.092 186.402  0.00  0.00    -0.083 C 
ATOM     48  C   UNL     1     145.322 170.845 187.211  0.00  0.00    -0.059 C 
ATOM     49  H   UNL     1     151.234 166.782 190.789  0.00  0.00    +0.074 HD
ATOM     50  H   UNL     1     147.953 169.568 192.115  0.00  0.00    +0.069 HD
ATOM     51  H   UNL     1     146.953 167.731 189.843  0.00  0.00    +0.062 HD
ATOM     52  H   UNL     1     146.665 171.162 190.777  0.00  0.00    +0.058 HD
ATOM     53  H   UNL     1     143.758 171.098 189.797  0.00  0.00    +0.033 HD
ATOM     54  H   UNL     1     144.065 171.775 191.374  0.00  0.00    +0.033 HD
ATOM     55  H   UNL     1     145.374 173.531 190.553  0.00  0.00    +0.060 HD
ATOM     56  H   UNL     1     146.813 172.483 188.831  0.00  0.00    +0.032 HD
ATOM     57  H   UNL     1     146.098 173.996 188.371  0.00  0.00    +0.032 HD
ATOM     58  H   UNL     1     144.365 172.745 186.984  0.00  0.00    +0.064 HD
ATOM     59  H   UNL     1     147.255 172.657 184.489  0.00  0.00    +0.060 HD
ATOM     60  H   UNL     1     144.900 173.228 184.036  0.00  0.00    +0.032 HD
ATOM     61  H   UNL     1     144.345 171.700 184.694  0.00  0.00    +0.032 HD
ATOM     62  H   UNL     1     145.698 170.487 182.931  0.00  0.00    +0.060 HD
ATOM     63  H   UNL     1     143.220 171.914 182.672  0.00  0.00    +0.035 HD
ATOM     64  H   UNL     1     142.650 170.216 180.951  0.00  0.00    +0.060 HD
ATOM     65  H   UNL     1     144.113 168.954 183.313  0.00  0.00    +0.032 HD
ATOM     66  H   UNL     1     142.525 169.743 183.459  0.00  0.00    +0.032 HD
ATOM     67  H   UNL     1     141.690 168.142 181.642  0.00  0.00    +0.060 HD
ATOM     68  H   UNL     1     141.606 166.080 182.957  0.00  0.00    +0.036 HD
ATOM     69  H   UNL     1     143.441 167.492 184.929  0.00  0.00    +0.074 HD
ATOM     70  H   UNL     1     145.789 164.683 182.499  0.00  0.00    +0.069 HD
ATOM     71  H   UNL     1     147.951 166.330 183.956  0.00  0.00    +0.062 HD
ATOM     72  H   UNL     1     147.857 162.972 182.940  0.00  0.00    +0.058 HD
ATOM     73  H   UNL     1     149.093 161.925 181.131  0.00  0.00    +0.033 HD
ATOM     74  H   UNL     1     150.149 163.274 180.931  0.00  0.00    +0.033 HD
ATOM     75  H   UNL     1     151.068 162.712 183.362  0.00  0.00    +0.060 HD
ATOM     76  H   UNL     1     149.654 160.128 182.551  0.00  0.00    +0.032 HD
ATOM     77  H   UNL     1     149.371 161.038 184.043  0.00  0.00    +0.032 HD
ATOM     78  H   UNL     1     152.158 159.954 183.415  0.00  0.00    +0.064 HD
ATOM     79  H   UNL     1     149.903 160.088 186.400  0.00  0.00    +0.060 HD
ATOM     80  H   UNL     1     151.491 161.651 187.518  0.00  0.00    +0.032 HD
ATOM     81  H   UNL     1     152.688 160.402 187.620  0.00  0.00    +0.032 HD
ATOM     82  H   UNL     1     151.705 160.836 189.761  0.00  0.00    +0.060 HD
ATOM     83  H   UNL     1     149.319 161.278 188.481  0.00  0.00    +0.035 HD
ATOM     84  H   UNL     1     148.285 161.755 190.517  0.00  0.00    +0.060 HD
ATOM     85  H   UNL     1     151.097 162.234 191.467  0.00  0.00    +0.032 HD
ATOM     86  H   UNL     1     150.691 162.897 189.891  0.00  0.00    +0.032 HD
ATOM     87  H   UNL     1     148.662 164.046 191.005  0.00  0.00    +0.060 HD
ATOM     88  H   UNL     1     151.564 164.586 191.579  0.00  0.00    +0.036 HD
ATOM     89  H   UNL     1     150.591 157.881 187.266  0.00  0.00    +0.033 HD
ATOM     90  H   UNL     1     152.248 158.107 186.683  0.00  0.00    +0.033 HD
ATOM     91  H   UNL     1     150.599 156.660 185.146  0.00  0.00    +0.057 HD
ATOM     92  H   UNL     1     150.632 157.970 183.105  0.00  0.00    +0.059 HD
ATOM     93  H   UNL     1     147.974 170.822 185.854  0.00  0.00    +0.033 HD
ATOM     94  H   UNL     1     147.078 170.108 184.517  0.00  0.00    +0.033 HD
ATOM     95  H   UNL     1     146.039 169.007 186.450  0.00  0.00    +0.057 HD
ATOM     96  H   UNL     1     144.634 170.348 187.885  0.00  0.00    +0.059 HD
ENDROOT
BRANCH  28  97
ATOM     97  C   UNL     1     149.594 165.815 181.856  0.00  0.00    -0.040 C 
ATOM     98  H   UNL     1     149.569 165.743 180.762  0.00  0.00    +0.028 HD
ATOM     99  H   UNL     1     150.602 165.548 182.193  0.00  0.00    +0.028 HD
ATOM    100  H   UNL     1     149.428 166.868 182.099  0.00  0.00    +0.028 HD
ENDBRANCH  28  97
BRANCH  21 101
ATOM    101  C   UNL     1     140.746 167.674 184.099  0.00  0.00    -0.057 C 
ATOM    102  H   UNL     1     141.023 168.612 184.590  0.00  0.00    +0.023 HD
ATOM    103  H   UNL     1     140.279 167.027 184.848  0.00  0.00    +0.023 HD
ATOM    104  H   UNL     1     139.975 167.895 183.352  0.00  0.00    +0.023 HD
ENDBRANCH  21 101
BRANCH  42 105
ATOM    105  C   UNL     1     150.454 165.612 193.061  0.00  0.00    -0.057 C 
ATOM    106  H   UNL     1     151.352 165.394 193.649  0.00  0.00    +0.023 HD
ATOM    107  H   UNL     1     150.335 166.700 193.001  0.00  0.00    +0.023 HD
ATOM    108  H   UNL     1     149.608 165.209 193.630  0.00  0.00    +0.023 HD
ENDBRANCH  42 105
BRANCH  17 109
ATOM    109  C   UNL     1     144.018 172.466 180.786  0.00  0.00    -0.058 C 
ATOM    110  H   UNL     1     144.968 172.999 180.685  0.00  0.00    +0.023 HD
ATOM    111  H   UNL     1     143.861 171.895 179.864  0.00  0.00    +0.023 HD
ATOM    112  H   UNL     1     143.211 173.203 180.852  0.00  0.00    +0.023 HD
ENDBRANCH  17 109
BRANCH  38 113
ATOM    113  C   UNL     1     148.658 159.377 189.203  0.00  0.00    -0.058 C 
ATOM    114  H   UNL     1     148.535 158.880 190.172  0.00  0.00    +0.023 HD
ATOM    115  H   UNL     1     149.027 158.635 188.489  0.00  0.00    +0.023 HD
ATOM    116  H   UNL     1     147.660 159.685 188.871  0.00  0.00    +0.023 HD
ENDBRANCH  38 113
BRANCH   7 117
ATOM    117  C   UNL     1     144.439 168.491 190.389  0.00  0.00    -0.040 C 
ATOM    118  H   UNL     1     143.555 169.056 190.706  0.00  0.00    +0.028 HD
ATOM    119  H   UNL     1     144.497 167.574 190.978  0.00  0.00    +0.028 HD
ATOM    120  H   UNL     1     144.271 168.216 189.345  0.00  0.00    +0.028 HD
ENDBRANCH   7 117
BRANCH   1 121
ATOM    121  C   UNL     1     150.606 165.770 189.046  0.00  0.00    +0.020 C 
ATOM    122  H   UNL     1     150.838 166.749 188.596  0.00  0.00    +0.036 HD
BRANCH 121 123
ATOM    123  C   UNL     1     151.857 164.886 188.892  0.00  0.00    -0.057 C 
ATOM    124  H   UNL     1     152.731 165.483 188.621  0.00  0.00    +0.023 HD
ATOM    125  H   UNL     1     151.728 164.113 188.132  0.00  0.00    +0.023 HD
ATOM    126  H   UNL     1     152.130 164.391 189.829  0.00  0.00    +0.023 HD
ENDBRANCH 121 123
BRANCH 121 127
ATOM    127  C   UNL     1     149.359 165.252 188.251  0.00  0.00    +0.064 C 
ATOM    128  H   UNL     1     149.547 164.225 187.952  0.00  0.00    +0.060 HD
BRANCH 127 129
ATOM    129  C   UNL     1     148.893 166.028 186.973  0.00  0.00    -0.017 C 
ATOM    130  H   UNL     1     148.029 165.496 186.554  0.00  0.00    +0.032 HD
BRANCH 129 131
ATOM    131  C   UNL     1     148.449 167.475 187.180  0.00  0.00    -0.060 C 
ATOM    132  H   UNL     1     147.953 167.597 188.147  0.00  0.00    +0.023 HD
ATOM    133  H   UNL     1     149.284 168.174 187.095  0.00  0.00    +0.023 HD
ATOM    134  H   UNL     1     147.705 167.763 186.425  0.00  0.00    +0.023 HD
ENDBRANCH 129 131
BRANCH 129 135
ATOM    135  C   UNL     1     150.009 166.030 185.885  0.00  0.00    -0.046 C 
ATOM    136  H   UNL     1     150.822 166.697 186.193  0.00  0.00    +0.027 HD
ATOM    137  H   UNL     1     149.606 166.467 184.968  0.00  0.00    +0.027 HD
BRANCH 135 138
ATOM    138  C   UNL     1     150.561 164.646 185.541  0.00  0.00    -0.026 C 
ATOM    139  H   UNL     1     150.012 164.240 184.687  0.00  0.00    +0.029 HD
ATOM    140  H   UNL     1     150.376 163.958 186.369  0.00  0.00    +0.029 HD
BRANCH 138 143
ATOM    141  C   UNL     1     154.046 163.315 185.399  0.00  0.00    +0.059 C 
ATOM    142  O   UNL     1     152.681 163.507 185.801  0.00  0.00    -0.373 OA
ATOM    143  C   UNL     1     152.065 164.661 185.221  0.00  0.00    +0.061 C 
ATOM    144  C   UNL     1     152.746 165.922 185.756  0.00  0.00    -0.000 C 
ATOM    145  C   UNL     1     154.243 165.721 186.024  0.00  0.00    +0.063 C 
ATOM    146  C   UNL     1     154.785 164.623 185.119  0.00  0.00    -0.000 C 
ATOM    147  H   UNL     1     154.533 162.822 186.250  0.00  0.00    +0.059 HD
ATOM    148  H   UNL     1     152.198 164.601 184.136  0.00  0.00    +0.060 HD
ATOM    149  H   UNL     1     152.580 166.743 185.053  0.00  0.00    +0.032 HD
ATOM    150  H   UNL     1     152.289 166.240 186.700  0.00  0.00    +0.032 HD
ATOM    151  H   UNL     1     154.375 165.437 187.076  0.00  0.00    +0.060 HD
ATOM    152  H   UNL     1     154.666 164.935 184.072  0.00  0.00    +0.032 HD
ATOM    153  H   UNL     1     155.863 164.474 185.253  0.00  0.00    +0.032 HD
BRANCH 141 154
ATOM    154  C   UNL     1     154.113 162.365 184.208  0.00  0.00    -0.039 C 
ATOM    155  H   UNL     1     155.147 162.121 183.952  0.00  0.00    +0.025 HD
ATOM    156  H   UNL     1     153.578 161.433 184.420  0.00  0.00    +0.025 HD
ATOM    157  H   UNL     1     153.668 162.826 183.322  0.00  0.00    +0.025 HD
ENDBRANCH 141 154
BRANCH 145 158
ATOM    158  O   UNL     1     154.890 166.976 185.790  0.00  0.00    -0.380 OA
BRANCH 158 159
ATOM    159  C   UNL     1     155.457 167.092 184.490  0.00  0.00    +0.037 C 
ATOM    160  H   UNL     1     154.729 167.593 183.846  0.00  0.00    +0.052 HD
ATOM    161  H   UNL     1     155.658 166.103 184.067  0.00  0.00    +0.052 HD
ATOM    162  H   UNL     1     156.374 167.688 184.508  0.00  0.00    +0.052 HD
ENDBRANCH 158 159
ENDBRANCH 145 158
ENDBRANCH 138 143
ENDBRANCH 135 138
ENDBRANCH 129 135
ENDBRANCH 127 129
BRANCH 127 163
ATOM    163  O   UNL     1     148.199 165.193 189.091  0.00  0.00    -0.391 OA
ATOM    164  H   UNL     1     148.479 165.183 190.022  0.00  0.00    +0.210 HD
ENDBRANCH 127 163
ENDBRANCH 121 127
ENDBRANCH   1 121
BRANCH  41 165
ATOM    165  O   UNL     1     149.163 163.311 192.836  0.00  0.00    -0.391 OA
ATOM    166  H   UNL     1     148.187 163.350 192.895  0.00  0.00    +0.210 HD
ENDBRANCH  41 165
BRANCH  39 167
ATOM    167  O   UNL     1     149.350 160.557 191.757  0.00  0.00    -0.391 OA
ATOM    168  H   UNL     1     150.274 160.516 192.071  0.00  0.00    +0.210 HD
ENDBRANCH  39 167
BRANCH  31 169
ATOM    169  O   UNL     1     151.779 161.629 181.772  0.00  0.00    -0.391 OA
ATOM    170  H   UNL     1     151.440 161.580 180.861  0.00  0.00    +0.210 HD
ENDBRANCH  31 169
BRANCH  22 171
ATOM    171  C   UNL     1     142.467 165.705 185.698  0.00  0.00    +0.020 C 
ATOM    172  H   UNL     1     141.382 165.850 185.705  0.00  0.00    +0.036 HD
BRANCH 171 173
ATOM    173  C   UNL     1     142.755 164.214 185.507  0.00  0.00    -0.057 C 
ATOM    174  H   UNL     1     142.489 163.889 184.501  0.00  0.00    +0.023 HD
ATOM    175  H   UNL     1     142.194 163.599 186.218  0.00  0.00    +0.023 HD
ATOM    176  H   UNL     1     143.812 163.982 185.667  0.00  0.00    +0.023 HD
ENDBRANCH 171 173
BRANCH 171 177
ATOM    177  C   UNL     1     142.995 166.221 187.063  0.00  0.00    +0.064 C 
ATOM    178  H   UNL     1     143.294 167.269 186.953  0.00  0.00    +0.060 HD
BRANCH 177 179
ATOM    179  O   UNL     1     141.911 166.175 187.993  0.00  0.00    -0.391 OA
ATOM    180  H   UNL     1     141.339 166.949 187.790  0.00  0.00    +0.210 HD
ENDBRANCH 177 179
BRANCH 177 181
ATOM    181  C   UNL     1     144.213 165.477 187.682  0.00  0.00    -0.017 C 
ATOM    182  H   UNL     1     144.596 164.775 186.929  0.00  0.00    +0.032 HD
BRANCH 181 183
ATOM    183  C   UNL     1     145.337 166.491 187.963  0.00  0.00    -0.060 C 
ATOM    184  H   UNL     1     145.490 167.165 187.113  0.00  0.00    +0.023 HD
ATOM    185  H   UNL     1     145.119 167.101 188.844  0.00  0.00    +0.023 HD
ATOM    186  H   UNL     1     146.282 165.983 188.157  0.00  0.00    +0.023 HD
ENDBRANCH 181 183
BRANCH 181 187
ATOM    187  C   UNL     1     143.882 164.685 188.967  0.00  0.00    -0.046 C 
ATOM    188  H   UNL     1     142.871 164.928 189.310  0.00  0.00    +0.027 HD
ATOM    189  H   UNL     1     144.568 164.985 189.769  0.00  0.00    +0.027 HD
BRANCH 187 190
ATOM    190  C   UNL     1     143.952 163.162 188.756  0.00  0.00    -0.026 C 
ATOM    191  H   UNL     1     143.664 162.925 187.729  0.00  0.00    +0.029 HD
ATOM    192  H   UNL     1     143.217 162.676 189.408  0.00  0.00    +0.029 HD
BRANCH 190 193
ATOM    193  C   UNL     1     145.346 162.578 189.048  0.00  0.00    +0.061 C 
ATOM    194  O   UNL     1     146.318 162.963 188.072  0.00  0.00    -0.373 OA
ATOM    195  C   UNL     1     146.140 162.376 186.780  0.00  0.00    +0.059 C 
ATOM    196  C   UNL     1     146.174 160.851 186.861  0.00  0.00    -0.000 C 
ATOM    197  C   UNL     1     145.145 160.337 187.868  0.00  0.00    +0.063 C 
ATOM    198  C   UNL     1     145.328 161.057 189.205  0.00  0.00    -0.000 C 
ATOM    199  H   UNL     1     145.686 163.005 189.999  0.00  0.00    +0.060 HD
ATOM    200  H   UNL     1     145.188 162.715 186.356  0.00  0.00    +0.059 HD
ATOM    201  H   UNL     1     147.170 160.508 187.169  0.00  0.00    +0.032 HD
ATOM    202  H   UNL     1     145.994 160.421 185.869  0.00  0.00    +0.032 HD
ATOM    203  H   UNL     1     144.129 160.518 187.497  0.00  0.00    +0.060 HD
ATOM    204  H   UNL     1     146.283 160.732 189.642  0.00  0.00    +0.032 HD
ATOM    205  H   UNL     1     144.554 160.739 189.914  0.00  0.00    +0.032 HD
BRANCH 195 206
ATOM    206  C   UNL     1     147.260 162.897 185.886  0.00  0.00    -0.039 C 
ATOM    207  H   UNL     1     146.982 162.799 184.831  0.00  0.00    +0.025 HD
ATOM    208  H   UNL     1     148.190 162.344 186.055  0.00  0.00    +0.025 HD
ATOM    209  H   UNL     1     147.443 163.961 186.066  0.00  0.00    +0.025 HD
ENDBRANCH 195 206
BRANCH 197 210
ATOM    210  O   UNL     1     145.306 158.934 188.116  0.00  0.00    -0.380 OA
BRANCH 210 211
ATOM    211  C   UNL     1     145.018 158.551 189.455  0.00  0.00    +0.037 C 
ATOM    212  H   UNL     1     144.265 157.757 189.425  0.00  0.00    +0.052 HD
ATOM    213  H   UNL     1     144.604 159.390 190.021  0.00  0.00    +0.052 HD
ATOM    214  H   UNL     1     145.913 158.164 189.949  0.00  0.00    +0.052 HD
ENDBRANCH 210 211
ENDBRANCH 197 210
ENDBRANCH 190 193
ENDBRANCH 187 190
ENDBRANCH 181 187
ENDBRANCH 177 181
ENDBRANCH 171 177
ENDBRANCH  22 171
BRANCH  20 215
ATOM    215  O   UNL     1     143.467 167.176 181.501  0.00  0.00    -0.391 OA
ATOM    216  H   UNL     1     144.358 167.386 181.834  0.00  0.00    +0.210 HD
ENDBRANCH  20 215
BRANCH  18 217
ATOM    217  O   UNL     1     144.550 169.498 180.773  0.00  0.00    -0.391 OA
ATOM    218  H   UNL     1     144.594 170.014 179.942  0.00  0.00    +0.210 HD
ENDBRANCH  18 217
BRANCH  10 219
ATOM    219  O   UNL     1     143.684 173.607 189.426  0.00  0.00    -0.391 OA
ATOM    220  H   UNL     1     142.946 173.029 189.692  0.00  0.00    +0.210 HD
ENDBRANCH  10 219
BRANCH  37 221
ATOM    221  O   UNL     1     151.326 158.863 189.465  0.00  0.00    -0.379 OA
BRANCH 221 222
ATOM    222  C   UNL     1     152.071 158.703 190.664  0.00  0.00    +0.037 C 
ATOM    223  H   UNL     1     153.026 158.235 190.407  0.00  0.00    +0.052 HD
ATOM    224  H   UNL     1     152.281 159.668 191.130  0.00  0.00    +0.052 HD
ATOM    225  H   UNL     1     151.542 158.051 191.366  0.00  0.00    +0.052 HD
ENDBRANCH 221 222
ENDBRANCH  37 221
BRANCH  16 226
ATOM    226  O   UNL     1     146.377 172.269 182.100  0.00  0.00    -0.379 OA
BRANCH 226 227
ATOM    227  C   UNL     1     147.318 171.441 181.428  0.00  0.00    +0.037 C 
ATOM    228  H   UNL     1     148.004 172.027 180.810  0.00  0.00    +0.052 HD
ATOM    229  H   UNL     1     146.787 170.709 180.810  0.00  0.00    +0.052 HD
ATOM    230  H   UNL     1     147.905 170.903 182.180  0.00  0.00    +0.052 HD
ENDBRANCH 226 227
ENDBRANCH  16 226
TORSDOF 40
ENDMDL
MODEL 10
REMARK VINA RESULT:      -4.4      2.400     11.166
REMARK  Name = Swinholide A_conf1
REMARK  40 active torsions:
REMARK  status: ('A' for Active; 'I' for Inactive)
REMARK    1  A    between atoms: C_1  and  C_2
REMARK    2  A    between atoms: C_4  and  C_10
REMARK    3  A    between atoms: C_6  and  O_8
REMARK    4  A    between atoms: O_8  and  C_9
REMARK    5  A    between atoms: C_10  and  C_11
REMARK    6  A    between atoms: C_11  and  C_12
REMARK    7  A    between atoms: C_12  and  C_13
REMARK    8  A    between atoms: C_12  and  C_98
REMARK    9  A    between atoms: C_13  and  O_14
REMARK   10  A    between atoms: C_13  and  C_15
REMARK   11  A    between atoms: C_15  and  C_16
REMARK   12  A    between atoms: C_15  and  C_97
REMARK   13  A    between atoms: C_22  and  C_96
REMARK   14  A    between atoms: C_25  and  O_95
REMARK   15  A    between atoms: C_31  and  O_90
REMARK   16  A    between atoms: C_32  and  C_89
REMARK   17  A    between atoms: C_33  and  O_88
REMARK   18  A    between atoms: C_35  and  O_87
REMARK   19  A    between atoms: C_36  and  C_86
REMARK   20  A    between atoms: C_37  and  C_69
REMARK   21  A    between atoms: C_43  and  C_68
REMARK   22  A    between atoms: C_46  and  O_67
REMARK   23  A    between atoms: C_52  and  O_62
REMARK   24  A    between atoms: C_53  and  C_61
REMARK   25  A    between atoms: C_54  and  O_60
REMARK   26  A    between atoms: C_56  and  O_59
REMARK   27  A    between atoms: C_57  and  C_58
REMARK   28  A    between atoms: O_62  and  C_63
REMARK   29  A    between atoms: C_69  and  C_70
REMARK   30  A    between atoms: C_69  and  C_85
REMARK   31  A    between atoms: C_70  and  O_71
REMARK   32  A    between atoms: C_70  and  C_72
REMARK   33  A    between atoms: C_72  and  C_73
REMARK   34  A    between atoms: C_72  and  C_84
REMARK   35  A    between atoms: C_73  and  C_74
REMARK   36  A    between atoms: C_74  and  C_75
REMARK   37  A    between atoms: C_77  and  C_83
REMARK   38  A    between atoms: C_79  and  O_81
REMARK   39  A    between atoms: O_81  and  C_82
REMARK   40  A    between atoms: O_90  and  C_91
REMARK                            x       y       z     vdW  Elec       q    Type
REMARK                         _______ _______ _______ _____ _____    ______ ____
ROOT
ATOM      1  C   UNL     1     150.545 166.068 190.433  0.00  0.00    +0.113 C 
ATOM      2  O   UNL     1     149.319 166.822 190.639  0.00  0.00    -0.458 OA
ATOM      3  C   UNL     1     149.464 168.058 191.190  0.00  0.00    +0.332 C 
ATOM      4  O   UNL     1     150.517 168.565 191.562  0.00  0.00    -0.246 OA
ATOM      5  C   UNL     1     148.191 168.783 191.319  0.00  0.00    +0.023 C 
ATOM      6  C   UNL     1     147.104 168.553 190.568  0.00  0.00    -0.052 C 
ATOM      7  C   UNL     1     145.888 169.359 190.599  0.00  0.00    -0.054 C 
ATOM      8  C   UNL     1     145.937 170.706 190.631  0.00  0.00    -0.079 C 
ATOM      9  C   UNL     1     144.768 171.641 190.440  0.00  0.00    -0.008 C 
ATOM     10  C   UNL     1     145.121 172.981 189.767  0.00  0.00    +0.061 C 
ATOM     11  C   UNL     1     146.019 172.955 188.521  0.00  0.00    +0.003 C 
ATOM     12  C   UNL     1     145.457 172.356 187.218  0.00  0.00    +0.080 C 
ATOM     13  O   UNL     1     146.337 172.869 186.187  0.00  0.00    -0.369 OA
ATOM     14  C   UNL     1     146.449 172.090 184.985  0.00  0.00    +0.065 C 
ATOM     15  C   UNL     1     145.136 172.130 184.174  0.00  0.00    +0.000 C 
ATOM     16  C   UNL     1     145.239 171.450 182.792  0.00  0.00    +0.066 C 
ATOM     17  C   UNL     1     143.852 171.474 182.079  0.00  0.00    +0.009 C 
ATOM     18  C   UNL     1     143.347 170.058 181.698  0.00  0.00    +0.063 C 
ATOM     19  C   UNL     1     143.035 169.172 182.924  0.00  0.00    -0.000 C 
ATOM     20  C   UNL     1     142.326 167.865 182.512  0.00  0.00    +0.064 C 
ATOM     21  C   UNL     1     141.800 166.993 183.695  0.00  0.00    +0.020 C 
ATOM     22  C   UNL     1     142.909 166.567 184.708  0.00  0.00    +0.113 C 
ATOM     23  O   UNL     1     143.889 165.792 183.969  0.00  0.00    -0.458 OA
ATOM     24  C   UNL     1     145.195 166.109 184.177  0.00  0.00    +0.332 C 
ATOM     25  O   UNL     1     145.622 166.897 185.005  0.00  0.00    -0.246 OA
ATOM     26  C   UNL     1     146.037 165.310 183.259  0.00  0.00    +0.023 C 
ATOM     27  C   UNL     1     147.367 165.489 183.268  0.00  0.00    -0.052 C 
ATOM     28  C   UNL     1     148.334 164.766 182.452  0.00  0.00    -0.054 C 
ATOM     29  C   UNL     1     148.356 163.417 182.418  0.00  0.00    -0.079 C 
ATOM     30  C   UNL     1     149.317 162.538 181.666  0.00  0.00    -0.008 C 
ATOM     31  C   UNL     1     150.395 161.852 182.539  0.00  0.00    +0.061 C 
ATOM     32  C   UNL     1     149.865 160.611 183.286  0.00  0.00    +0.003 C 
ATOM     33  C   UNL     1     150.981 159.766 183.941  0.00  0.00    +0.080 C 
ATOM     34  O   UNL     1     151.405 160.328 185.195  0.00  0.00    -0.369 OA
ATOM     35  C   UNL     1     150.826 159.760 186.392  0.00  0.00    +0.065 C 
ATOM     36  C   UNL     1     151.524 160.473 187.564  0.00  0.00    +0.000 C 
ATOM     37  C   UNL     1     151.082 160.159 189.014  0.00  0.00    +0.066 C 
ATOM     38  C   UNL     1     149.596 160.557 189.276  0.00  0.00    +0.009 C 
ATOM     39  C   UNL     1     149.384 161.374 190.582  0.00  0.00    +0.063 C 
ATOM     40  C   UNL     1     150.363 162.547 190.759  0.00  0.00    -0.000 C 
ATOM     41  C   UNL     1     149.723 163.753 191.474  0.00  0.00    +0.064 C 
ATOM     42  C   UNL     1     150.712 164.955 191.529  0.00  0.00    +0.020 C 
ATOM     43  C   UNL     1     151.027 158.239 186.437  0.00  0.00    -0.008 C 
ATOM     44  C   UNL     1     150.597 157.600 185.158  0.00  0.00    -0.083 C 
ATOM     45  C   UNL     1     150.582 158.312 184.028  0.00  0.00    -0.059 C 
ATOM     46  C   UNL     1     146.963 170.687 185.348  0.00  0.00    -0.008 C 
ATOM     47  C   UNL     1     146.101 170.069 186.400  0.00  0.00    -0.083 C 
ATOM     48  C   UNL     1     145.394 170.847 187.230  0.00  0.00    -0.059 C 
ATOM     49  H   UNL     1     151.398 166.743 190.601  0.00  0.00    +0.074 HD
ATOM     50  H   UNL     1     148.226 169.603 192.029  0.00  0.00    +0.069 HD
ATOM     51  H   UNL     1     147.093 167.749 189.835  0.00  0.00    +0.062 HD
ATOM     52  H   UNL     1     146.904 171.197 190.725  0.00  0.00    +0.058 HD
ATOM     53  H   UNL     1     143.954 171.167 189.880  0.00  0.00    +0.033 HD
ATOM     54  H   UNL     1     144.345 171.864 191.430  0.00  0.00    +0.033 HD
ATOM     55  H   UNL     1     145.642 173.584 190.521  0.00  0.00    +0.060 HD
ATOM     56  H   UNL     1     146.983 172.485 188.753  0.00  0.00    +0.032 HD
ATOM     57  H   UNL     1     146.273 174.003 188.301  0.00  0.00    +0.032 HD
ATOM     58  H   UNL     1     144.459 172.760 187.015  0.00  0.00    +0.064 HD
ATOM     59  H   UNL     1     147.229 172.584 184.393  0.00  0.00    +0.060 HD
ATOM     60  H   UNL     1     144.865 173.187 184.038  0.00  0.00    +0.032 HD
ATOM     61  H   UNL     1     144.316 171.679 184.746  0.00  0.00    +0.032 HD
ATOM     62  H   UNL     1     145.567 170.417 182.943  0.00  0.00    +0.060 HD
ATOM     63  H   UNL     1     143.104 171.880 182.775  0.00  0.00    +0.035 HD
ATOM     64  H   UNL     1     142.427 170.165 181.110  0.00  0.00    +0.060 HD
ATOM     65  H   UNL     1     143.977 168.916 183.423  0.00  0.00    +0.032 HD
ATOM     66  H   UNL     1     142.410 169.734 183.628  0.00  0.00    +0.032 HD
ATOM     67  H   UNL     1     141.467 168.119 181.878  0.00  0.00    +0.060 HD
ATOM     68  H   UNL     1     141.410 166.079 183.229  0.00  0.00    +0.036 HD
ATOM     69  H   UNL     1     143.357 167.491 185.091  0.00  0.00    +0.074 HD
ATOM     70  H   UNL     1     145.545 164.605 182.603  0.00  0.00    +0.069 HD
ATOM     71  H   UNL     1     147.798 166.239 183.933  0.00  0.00    +0.062 HD
ATOM     72  H   UNL     1     147.603 162.867 182.977  0.00  0.00    +0.058 HD
ATOM     73  H   UNL     1     148.738 161.771 181.132  0.00  0.00    +0.033 HD
ATOM     74  H   UNL     1     149.805 163.099 180.861  0.00  0.00    +0.033 HD
ATOM     75  H   UNL     1     150.826 162.560 183.257  0.00  0.00    +0.060 HD
ATOM     76  H   UNL     1     149.334 159.988 182.553  0.00  0.00    +0.032 HD
ATOM     77  H   UNL     1     149.135 160.925 184.042  0.00  0.00    +0.032 HD
ATOM     78  H   UNL     1     151.873 159.784 183.305  0.00  0.00    +0.064 HD
ATOM     79  H   UNL     1     149.759 160.004 186.388  0.00  0.00    +0.060 HD
ATOM     80  H   UNL     1     151.422 161.557 187.406  0.00  0.00    +0.032 HD
ATOM     81  H   UNL     1     152.602 160.289 187.474  0.00  0.00    +0.032 HD
ATOM     82  H   UNL     1     151.725 160.774 189.650  0.00  0.00    +0.060 HD
ATOM     83  H   UNL     1     149.290 161.236 188.473  0.00  0.00    +0.035 HD
ATOM     84  H   UNL     1     148.358 161.762 190.546  0.00  0.00    +0.060 HD
ATOM     85  H   UNL     1     151.219 162.208 191.359  0.00  0.00    +0.032 HD
ATOM     86  H   UNL     1     150.752 162.853 189.793  0.00  0.00    +0.032 HD
ATOM     87  H   UNL     1     148.795 164.054 190.979  0.00  0.00    +0.060 HD
ATOM     88  H   UNL     1     151.728 164.554 191.411  0.00  0.00    +0.036 HD
ATOM     89  H   UNL     1     150.450 157.799 187.257  0.00  0.00    +0.033 HD
ATOM     90  H   UNL     1     152.082 157.988 186.596  0.00  0.00    +0.033 HD
ATOM     91  H   UNL     1     150.342 156.545 185.159  0.00  0.00    +0.057 HD
ATOM     92  H   UNL     1     150.301 157.823 183.098  0.00  0.00    +0.059 HD
ATOM     93  H   UNL     1     147.980 170.758 185.754  0.00  0.00    +0.033 HD
ATOM     94  H   UNL     1     147.013 170.039 184.471  0.00  0.00    +0.033 HD
ATOM     95  H   UNL     1     146.046 168.986 186.468  0.00  0.00    +0.057 HD
ATOM     96  H   UNL     1     144.729 170.373 187.943  0.00  0.00    +0.059 HD
ENDROOT
BRANCH  28  97
ATOM     97  C   UNL     1     149.334 165.663 181.768  0.00  0.00    -0.040 C 
ATOM     98  H   UNL     1     149.470 165.370 180.720  0.00  0.00    +0.028 HD
ATOM     99  H   UNL     1     150.305 165.594 182.271  0.00  0.00    +0.028 HD
ATOM    100  H   UNL     1     149.037 166.715 181.759  0.00  0.00    +0.028 HD
ENDBRANCH  28  97
BRANCH  21 101
ATOM    101  C   UNL     1     140.629 167.705 184.382  0.00  0.00    -0.057 C 
ATOM    102  H   UNL     1     140.822 168.777 184.502  0.00  0.00    +0.023 HD
ATOM    103  H   UNL     1     140.436 167.285 185.374  0.00  0.00    +0.023 HD
ATOM    104  H   UNL     1     139.704 167.588 183.807  0.00  0.00    +0.023 HD
ENDBRANCH  21 101
BRANCH  42 105
ATOM    105  C   UNL     1     150.704 165.622 192.925  0.00  0.00    -0.057 C 
ATOM    106  H   UNL     1     149.700 165.607 193.363  0.00  0.00    +0.023 HD
ATOM    107  H   UNL     1     151.390 165.119 193.616  0.00  0.00    +0.023 HD
ATOM    108  H   UNL     1     150.997 166.676 192.861  0.00  0.00    +0.023 HD
ENDBRANCH  42 105
BRANCH  17 109
ATOM    109  C   UNL     1     143.823 172.389 180.846  0.00  0.00    -0.058 C 
ATOM    110  H   UNL     1     144.194 171.884 179.948  0.00  0.00    +0.023 HD
ATOM    111  H   UNL     1     142.799 172.718 180.637  0.00  0.00    +0.023 HD
ATOM    112  H   UNL     1     144.425 173.288 181.012  0.00  0.00    +0.023 HD
ENDBRANCH  17 109
BRANCH  38 113
ATOM    113  C   UNL     1     148.633 159.358 189.256  0.00  0.00    -0.058 C 
ATOM    114  H   UNL     1     147.962 159.349 190.122  0.00  0.00    +0.023 HD
ATOM    115  H   UNL     1     149.177 158.410 189.243  0.00  0.00    +0.023 HD
ATOM    116  H   UNL     1     148.001 159.386 188.360  0.00  0.00    +0.023 HD
ENDBRANCH  38 113
BRANCH   7 117
ATOM    117  C   UNL     1     144.620 168.559 190.483  0.00  0.00    -0.040 C 
ATOM    118  H   UNL     1     144.368 168.384 189.431  0.00  0.00    +0.028 HD
ATOM    119  H   UNL     1     143.793 169.092 190.956  0.00  0.00    +0.028 HD
ATOM    120  H   UNL     1     144.701 167.574 190.949  0.00  0.00    +0.028 HD
ENDBRANCH   7 117
BRANCH   1 121
ATOM    121  C   UNL     1     150.674 165.714 188.905  0.00  0.00    +0.020 C 
ATOM    122  H   UNL     1     151.201 164.747 188.903  0.00  0.00    +0.036 HD
BRANCH 121 123
ATOM    123  C   UNL     1     149.266 165.470 188.332  0.00  0.00    -0.057 C 
ATOM    124  H   UNL     1     149.186 165.846 187.309  0.00  0.00    +0.023 HD
ATOM    125  H   UNL     1     148.486 165.948 188.928  0.00  0.00    +0.023 HD
ATOM    126  H   UNL     1     149.028 164.404 188.262  0.00  0.00    +0.023 HD
ENDBRANCH 121 123
BRANCH 121 127
ATOM    127  C   UNL     1     151.565 166.655 188.024  0.00  0.00    +0.064 C 
ATOM    128  H   UNL     1     150.942 167.084 187.245  0.00  0.00    +0.060 HD
BRANCH 127 129
ATOM    129  C   UNL     1     152.839 166.068 187.329  0.00  0.00    -0.017 C 
ATOM    130  H   UNL     1     152.574 165.827 186.291  0.00  0.00    +0.032 HD
BRANCH 129 131
ATOM    131  C   UNL     1     154.059 166.984 187.260  0.00  0.00    -0.060 C 
ATOM    132  H   UNL     1     154.483 166.997 186.252  0.00  0.00    +0.023 HD
ATOM    133  H   UNL     1     153.823 168.002 187.581  0.00  0.00    +0.023 HD
ATOM    134  H   UNL     1     154.859 166.615 187.915  0.00  0.00    +0.023 HD
ENDBRANCH 129 131
BRANCH 129 135
ATOM    135  C   UNL     1     153.285 164.741 188.013  0.00  0.00    -0.046 C 
ATOM    136  H   UNL     1     153.665 164.046 187.256  0.00  0.00    +0.027 HD
ATOM    137  H   UNL     1     152.407 164.252 188.441  0.00  0.00    +0.027 HD
BRANCH 135 138
ATOM    138  C   UNL     1     154.314 164.919 189.130  0.00  0.00    -0.026 C 
ATOM    139  H   UNL     1     153.801 165.214 190.050  0.00  0.00    +0.029 HD
ATOM    140  H   UNL     1     154.987 165.744 188.886  0.00  0.00    +0.029 HD
BRANCH 138 143
ATOM    141  C   UNL     1     157.346 162.742 189.098  0.00  0.00    +0.059 C 
ATOM    142  O   UNL     1     156.417 163.781 188.754  0.00  0.00    -0.373 OA
ATOM    143  C   UNL     1     155.143 163.650 189.393  0.00  0.00    +0.061 C 
ATOM    144  C   UNL     1     154.441 162.396 188.872  0.00  0.00    -0.000 C 
ATOM    145  C   UNL     1     155.418 161.261 188.541  0.00  0.00    +0.063 C 
ATOM    146  C   UNL     1     156.675 161.400 189.390  0.00  0.00    -0.000 C 
ATOM    147  H   UNL     1     157.985 162.619 188.214  0.00  0.00    +0.059 HD
ATOM    148  H   UNL     1     155.317 163.556 190.470  0.00  0.00    +0.060 HD
ATOM    149  H   UNL     1     153.698 162.071 189.605  0.00  0.00    +0.032 HD
ATOM    150  H   UNL     1     153.880 162.617 187.956  0.00  0.00    +0.032 HD
ATOM    151  H   UNL     1     155.678 161.322 187.475  0.00  0.00    +0.060 HD
ATOM    152  H   UNL     1     156.398 161.312 190.449  0.00  0.00    +0.032 HD
ATOM    153  H   UNL     1     157.385 160.585 189.210  0.00  0.00    +0.032 HD
BRANCH 141 154
ATOM    154  C   UNL     1     158.231 163.191 190.256  0.00  0.00    -0.039 C 
ATOM    155  H   UNL     1     157.755 163.987 190.834  0.00  0.00    +0.025 HD
ATOM    156  H   UNL     1     158.450 162.355 190.928  0.00  0.00    +0.025 HD
ATOM    157  H   UNL     1     159.178 163.593 189.883  0.00  0.00    +0.025 HD
ENDBRANCH 141 154
BRANCH 145 158
ATOM    158  O   UNL     1     154.738 160.027 188.789  0.00  0.00    -0.380 OA
BRANCH 158 159
ATOM    159  C   UNL     1     155.610 158.948 189.104  0.00  0.00    +0.037 C 
ATOM    160  H   UNL     1     155.121 158.325 189.857  0.00  0.00    +0.052 HD
ATOM    161  H   UNL     1     156.546 159.321 189.531  0.00  0.00    +0.052 HD
ATOM    162  H   UNL     1     155.816 158.333 188.223  0.00  0.00    +0.052 HD
ENDBRANCH 158 159
ENDBRANCH 145 158
ENDBRANCH 138 143
ENDBRANCH 135 138
ENDBRANCH 129 135
ENDBRANCH 127 129
BRANCH 127 163
ATOM    163  O   UNL     1     152.040 167.774 188.783  0.00  0.00    -0.391 OA
ATOM    164  H   UNL     1     152.180 167.499 189.705  0.00  0.00    +0.210 HD
ENDBRANCH 127 163
ENDBRANCH 121 127
ENDBRANCH   1 121
BRANCH  41 165
ATOM    165  O   UNL     1     149.367 163.339 192.797  0.00  0.00    -0.391 OA
ATOM    166  H   UNL     1     149.752 163.967 193.443  0.00  0.00    +0.210 HD
ENDBRANCH  41 165
BRANCH  39 167
ATOM    167  O   UNL     1     149.460 160.566 191.755  0.00  0.00    -0.391 OA
ATOM    168  H   UNL     1     148.980 159.733 191.582  0.00  0.00    +0.210 HD
ENDBRANCH  39 167
BRANCH  31 169
ATOM    169  O   UNL     1     151.446 161.440 181.654  0.00  0.00    -0.391 OA
ATOM    170  H   UNL     1     151.062 160.799 181.031  0.00  0.00    +0.210 HD
ENDBRANCH  31 169
BRANCH  22 171
ATOM    171  C   UNL     1     142.391 165.733 185.934  0.00  0.00    +0.020 C 
ATOM    172  H   UNL     1     141.329 165.976 186.050  0.00  0.00    +0.036 HD
BRANCH 171 173
ATOM    173  C   UNL     1     142.519 164.227 185.695  0.00  0.00    -0.057 C 
ATOM    174  H   UNL     1     141.943 163.663 186.431  0.00  0.00    +0.023 HD
ATOM    175  H   UNL     1     143.559 163.894 185.757  0.00  0.00    +0.023 HD
ATOM    176  H   UNL     1     142.164 163.943 184.701  0.00  0.00    +0.023 HD
ENDBRANCH 171 173
BRANCH 171 177
ATOM    177  C   UNL     1     143.095 166.169 187.246  0.00  0.00    +0.064 C 
ATOM    178  H   UNL     1     143.487 167.183 187.117  0.00  0.00    +0.060 HD
BRANCH 177 179
ATOM    179  O   UNL     1     142.104 166.215 188.274  0.00  0.00    -0.391 OA
ATOM    180  H   UNL     1     142.457 166.812 188.972  0.00  0.00    +0.210 HD
ENDBRANCH 177 179
BRANCH 177 181
ATOM    181  C   UNL     1     144.283 165.294 187.739  0.00  0.00    -0.017 C 
ATOM    182  H   UNL     1     144.548 164.600 186.930  0.00  0.00    +0.032 HD
BRANCH 181 183
ATOM    183  C   UNL     1     145.509 166.194 187.978  0.00  0.00    -0.060 C 
ATOM    184  H   UNL     1     146.423 165.739 187.583  0.00  0.00    +0.023 HD
ATOM    185  H   UNL     1     145.388 167.175 187.509  0.00  0.00    +0.023 HD
ATOM    186  H   UNL     1     145.662 166.372 189.043  0.00  0.00    +0.023 HD
ENDBRANCH 181 183
BRANCH 181 187
ATOM    187  C   UNL     1     143.975 164.471 189.011  0.00  0.00    -0.046 C 
ATOM    188  H   UNL     1     142.977 164.719 189.387  0.00  0.00    +0.027 HD
ATOM    189  H   UNL     1     144.687 164.739 189.802  0.00  0.00    +0.027 HD
BRANCH 187 190
ATOM    190  C   UNL     1     144.018 162.954 188.756  0.00  0.00    -0.026 C 
ATOM    191  H   UNL     1     143.779 162.756 187.708  0.00  0.00    +0.029 HD
ATOM    192  H   UNL     1     143.236 162.469 189.352  0.00  0.00    +0.029 HD
BRANCH 190 193
ATOM    193  C   UNL     1     145.379 162.324 189.102  0.00  0.00    +0.061 C 
ATOM    194  O   UNL     1     146.427 162.771 188.238  0.00  0.00    -0.373 OA
ATOM    195  C   UNL     1     146.342 162.295 186.891  0.00  0.00    +0.059 C 
ATOM    196  C   UNL     1     146.352 160.768 186.848  0.00  0.00    -0.000 C 
ATOM    197  C   UNL     1     145.244 160.191 187.729  0.00  0.00    +0.063 C 
ATOM    198  C   UNL     1     145.332 160.796 189.131  0.00  0.00    -0.000 C 
ATOM    199  H   UNL     1     145.650 162.666 190.108  0.00  0.00    +0.060 HD
ATOM    200  H   UNL     1     145.428 162.684 186.426  0.00  0.00    +0.059 HD
ATOM    201  H   UNL     1     147.318 160.384 187.201  0.00  0.00    +0.032 HD
ATOM    202  H   UNL     1     146.244 160.423 185.814  0.00  0.00    +0.032 HD
ATOM    203  H   UNL     1     144.261 160.420 187.299  0.00  0.00    +0.060 HD
ATOM    204  H   UNL     1     146.247 160.420 189.610  0.00  0.00    +0.032 HD
ATOM    205  H   UNL     1     144.503 160.434 189.751  0.00  0.00    +0.032 HD
BRANCH 195 206
ATOM    206  C   UNL     1     147.533 162.868 186.131  0.00  0.00    -0.039 C 
ATOM    207  H   UNL     1     148.422 162.881 186.770  0.00  0.00    +0.025 HD
ATOM    208  H   UNL     1     147.331 163.888 185.791  0.00  0.00    +0.025 HD
ATOM    209  H   UNL     1     147.778 162.247 185.262  0.00  0.00    +0.025 HD
ENDBRANCH 195 206
BRANCH 197 210
ATOM    210  O   UNL     1     145.370 158.770 187.871  0.00  0.00    -0.380 OA
BRANCH 210 211
ATOM    211  C   UNL     1     145.012 158.288 189.160  0.00  0.00    +0.037 C 
ATOM    212  H   UNL     1     145.682 158.751 189.892  0.00  0.00    +0.052 HD
ATOM    213  H   UNL     1     145.139 157.204 189.222  0.00  0.00    +0.052 HD
ATOM    214  H   UNL     1     143.983 158.565 189.406  0.00  0.00    +0.052 HD
ENDBRANCH 210 211
ENDBRANCH 197 210
ENDBRANCH 190 193
ENDBRANCH 187 190
ENDBRANCH 181 187
ENDBRANCH 177 181
ENDBRANCH 171 177
ENDBRANCH  22 171
BRANCH  20 215
ATOM    215  O   UNL     1     143.220 167.122 181.671  0.00  0.00    -0.391 OA
ATOM    216  H   UNL     1     143.640 167.753 181.059  0.00  0.00    +0.210 HD
ENDBRANCH  20 215
BRANCH  18 217
ATOM    217  O   UNL     1     144.305 169.413 180.856  0.00  0.00    -0.391 OA
ATOM    218  H   UNL     1     144.428 169.995 180.078  0.00  0.00    +0.210 HD
ENDBRANCH  18 217
BRANCH  10 219
ATOM    219  O   UNL     1     143.904 173.671 189.471  0.00  0.00    -0.391 OA
ATOM    220  H   UNL     1     143.168 173.088 189.733  0.00  0.00    +0.210 HD
ENDBRANCH  10 219
BRANCH  37 221
ATOM    221  O   UNL     1     151.301 158.803 189.404  0.00  0.00    -0.379 OA
BRANCH 221 222
ATOM    222  C   UNL     1     152.067 158.650 190.592  0.00  0.00    +0.037 C 
ATOM    223  H   UNL     1     151.718 157.748 191.103  0.00  0.00    +0.052 HD
ATOM    224  H   UNL     1     153.126 158.522 190.363  0.00  0.00    +0.052 HD
ATOM    225  H   UNL     1     151.924 159.505 191.259  0.00  0.00    +0.052 HD
ENDBRANCH 221 222
ENDBRANCH  37 221
BRANCH  16 226
ATOM    226  O   UNL     1     146.236 172.173 182.053  0.00  0.00    -0.379 OA
BRANCH 226 227
ATOM    227  C   UNL     1     147.207 171.322 181.458  0.00  0.00    +0.037 C 
ATOM    228  H   UNL     1     147.768 170.759 182.210  0.00  0.00    +0.052 HD
ATOM    229  H   UNL     1     147.893 171.918 180.847  0.00  0.00    +0.052 HD
ATOM    230  H   UNL     1     146.690 170.609 180.807  0.00  0.00    +0.052 HD
ENDBRANCH 226 227
ENDBRANCH  16 226
TORSDOF 40
ENDMDL
