MODEL 1
REMARK VINA RESULT:      -5.0      0.000      0.000
REMARK  Name = Swinholide A_conf2
REMARK  40 active torsions:
REMARK  status: ('A' for Active; 'I' for Inactive)
REMARK    1  A    between atoms: C_1  and  C_2
REMARK    2  A    between atoms: C_4  and  C_10
REMARK    3  A    between atoms: C_6  and  O_8
REMARK    4  A    between atoms: O_8  and  C_9
REMARK    5  A    between atoms: C_10  and  C_11
REMARK    6  A    between atoms: C_11  and  C_12
REMARK    7  A    between atoms: C_12  and  C_13
REMARK    8  A    between atoms: C_12  and  C_98
REMARK    9  A    between atoms: C_13  and  O_14
REMARK   10  A    between atoms: C_13  and  C_15
REMARK   11  A    between atoms: C_15  and  C_16
REMARK   12  A    between atoms: C_15  and  C_97
REMARK   13  A    between atoms: C_22  and  C_96
REMARK   14  A    between atoms: C_25  and  O_95
REMARK   15  A    between atoms: C_31  and  O_90
REMARK   16  A    between atoms: C_32  and  C_89
REMARK   17  A    between atoms: C_33  and  O_88
REMARK   18  A    between atoms: C_35  and  O_87
REMARK   19  A    between atoms: C_36  and  C_86
REMARK   20  A    between atoms: C_37  and  C_69
REMARK   21  A    between atoms: C_43  and  C_68
REMARK   22  A    between atoms: C_46  and  O_67
REMARK   23  A    between atoms: C_52  and  O_62
REMARK   24  A    between atoms: C_53  and  C_61
REMARK   25  A    between atoms: C_54  and  O_60
REMARK   26  A    between atoms: C_56  and  O_59
REMARK   27  A    between atoms: C_57  and  C_58
REMARK   28  A    between atoms: O_62  and  C_63
REMARK   29  A    between atoms: C_69  and  C_70
REMARK   30  A    between atoms: C_69  and  C_85
REMARK   31  A    between atoms: C_70  and  O_71
REMARK   32  A    between atoms: C_70  and  C_72
REMARK   33  A    between atoms: C_72  and  C_73
REMARK   34  A    between atoms: C_72  and  C_84
REMARK   35  A    between atoms: C_73  and  C_74
REMARK   36  A    between atoms: C_74  and  C_75
REMARK   37  A    between atoms: C_77  and  C_83
REMARK   38  A    between atoms: C_79  and  O_81
REMARK   39  A    between atoms: O_81  and  C_82
REMARK   40  A    between atoms: O_90  and  C_91
REMARK                            x       y       z     vdW  Elec       q    Type
REMARK                         _______ _______ _______ _____ _____    ______ ____
ROOT
ATOM      1  C   UNL     1     150.903 166.614 190.853  0.00  0.00    +0.113 C 
ATOM      2  O   UNL     1     152.196 166.020 190.564  0.00  0.00    -0.458 OA
ATOM      3  C   UNL     1     152.650 166.172 189.296  0.00  0.00    +0.332 C 
ATOM      4  O   UNL     1     152.110 166.780 188.390  0.00  0.00    -0.246 OA
ATOM      5  C   UNL     1     153.923 165.429 189.160  0.00  0.00    +0.023 C 
ATOM      6  C   UNL     1     154.610 165.514 188.011  0.00  0.00    -0.052 C 
ATOM      7  C   UNL     1     155.829 164.785 187.679  0.00  0.00    -0.054 C 
ATOM      8  C   UNL     1     156.746 164.447 188.607  0.00  0.00    -0.079 C 
ATOM      9  C   UNL     1     158.063 163.758 188.351  0.00  0.00    -0.008 C 
ATOM     10  C   UNL     1     158.169 162.346 188.961  0.00  0.00    +0.061 C 
ATOM     11  C   UNL     1     157.287 161.322 188.229  0.00  0.00    +0.003 C 
ATOM     12  C   UNL     1     157.525 159.857 188.651  0.00  0.00    +0.080 C 
ATOM     13  O   UNL     1     156.331 159.069 188.439  0.00  0.00    -0.369 OA
ATOM     14  C   UNL     1     156.123 158.676 187.069  0.00  0.00    +0.065 C 
ATOM     15  C   UNL     1     154.751 157.980 187.011  0.00  0.00    +0.000 C 
ATOM     16  C   UNL     1     154.388 157.371 185.638  0.00  0.00    +0.066 C 
ATOM     17  C   UNL     1     152.891 156.917 185.536  0.00  0.00    +0.009 C 
ATOM     18  C   UNL     1     151.868 158.044 185.826  0.00  0.00    +0.063 C 
ATOM     19  C   UNL     1     150.394 157.603 185.639  0.00  0.00    -0.000 C 
ATOM     20  C   UNL     1     149.464 158.820 185.768  0.00  0.00    +0.064 C 
ATOM     21  C   UNL     1     148.004 158.468 186.157  0.00  0.00    +0.020 C 
ATOM     22  C   UNL     1     147.203 159.709 186.666  0.00  0.00    +0.113 C 
ATOM     23  O   UNL     1     147.188 160.624 185.535  0.00  0.00    -0.458 OA
ATOM     24  C   UNL     1     146.055 161.277 185.202  0.00  0.00    +0.332 C 
ATOM     25  O   UNL     1     145.011 161.318 185.856  0.00  0.00    -0.246 OA
ATOM     26  C   UNL     1     146.208 161.980 183.910  0.00  0.00    +0.023 C 
ATOM     27  C   UNL     1     147.377 162.066 183.241  0.00  0.00    -0.052 C 
ATOM     28  C   UNL     1     147.634 162.748 181.976  0.00  0.00    -0.054 C 
ATOM     29  C   UNL     1     148.908 162.799 181.532  0.00  0.00    -0.079 C 
ATOM     30  C   UNL     1     149.444 163.503 180.318  0.00  0.00    -0.008 C 
ATOM     31  C   UNL     1     150.699 164.371 180.546  0.00  0.00    +0.061 C 
ATOM     32  C   UNL     1     150.542 165.585 181.484  0.00  0.00    +0.003 C 
ATOM     33  C   UNL     1     150.740 165.441 183.007  0.00  0.00    +0.080 C 
ATOM     34  O   UNL     1     149.645 164.725 183.585  0.00  0.00    -0.369 OA
ATOM     35  C   UNL     1     149.794 164.394 184.969  0.00  0.00    +0.065 C 
ATOM     36  C   UNL     1     149.777 165.619 185.901  0.00  0.00    +0.000 C 
ATOM     37  C   UNL     1     148.383 166.291 185.942  0.00  0.00    +0.066 C 
ATOM     38  C   UNL     1     148.174 167.066 187.274  0.00  0.00    +0.009 C 
ATOM     39  C   UNL     1     147.710 166.143 188.440  0.00  0.00    +0.063 C 
ATOM     40  C   UNL     1     147.918 166.805 189.828  0.00  0.00    -0.000 C 
ATOM     41  C   UNL     1     148.390 165.906 190.979  0.00  0.00    +0.064 C 
ATOM     42  C   UNL     1     149.868 165.448 190.919  0.00  0.00    +0.020 C 
ATOM     43  C   UNL     1     151.027 163.496 185.169  0.00  0.00    -0.008 C 
ATOM     44  C   UNL     1     152.215 163.957 184.380  0.00  0.00    -0.083 C 
ATOM     45  C   UNL     1     152.071 164.855 183.402  0.00  0.00    -0.059 C 
ATOM     46  C   UNL     1     157.261 157.758 186.600  0.00  0.00    -0.008 C 
ATOM     47  C   UNL     1     158.602 158.283 187.013  0.00  0.00    -0.083 C 
ATOM     48  C   UNL     1     158.710 159.223 187.959  0.00  0.00    -0.059 C 
ATOM     49  H   UNL     1     150.594 167.227 190.008  0.00  0.00    +0.074 HD
ATOM     50  H   UNL     1     154.230 164.814 189.993  0.00  0.00    +0.069 HD
ATOM     51  H   UNL     1     154.218 166.139 187.209  0.00  0.00    +0.062 HD
ATOM     52  H   UNL     1     156.585 164.728 189.647  0.00  0.00    +0.058 HD
ATOM     53  H   UNL     1     158.848 164.393 188.782  0.00  0.00    +0.033 HD
ATOM     54  H   UNL     1     158.310 163.711 187.286  0.00  0.00    +0.033 HD
ATOM     55  H   UNL     1     157.880 162.380 190.015  0.00  0.00    +0.060 HD
ATOM     56  H   UNL     1     156.234 161.577 188.391  0.00  0.00    +0.032 HD
ATOM     57  H   UNL     1     157.449 161.407 187.148  0.00  0.00    +0.032 HD
ATOM     58  H   UNL     1     157.698 159.817 189.730  0.00  0.00    +0.064 HD
ATOM     59  H   UNL     1     156.081 159.580 186.450  0.00  0.00    +0.060 HD
ATOM     60  H   UNL     1     154.696 157.202 187.781  0.00  0.00    +0.032 HD
ATOM     61  H   UNL     1     154.013 158.737 187.303  0.00  0.00    +0.032 HD
ATOM     62  H   UNL     1     155.016 156.479 185.497  0.00  0.00    +0.060 HD
ATOM     63  H   UNL     1     152.726 156.601 184.501  0.00  0.00    +0.035 HD
ATOM     64  H   UNL     1     151.966 158.369 186.869  0.00  0.00    +0.060 HD
ATOM     65  H   UNL     1     150.138 156.853 186.399  0.00  0.00    +0.032 HD
ATOM     66  H   UNL     1     150.272 157.147 184.653  0.00  0.00    +0.032 HD
ATOM     67  H   UNL     1     149.890 159.464 186.538  0.00  0.00    +0.060 HD
ATOM     68  H   UNL     1     148.059 157.729 186.962  0.00  0.00    +0.036 HD
ATOM     69  H   UNL     1     146.178 159.395 186.899  0.00  0.00    +0.074 HD
ATOM     70  H   UNL     1     145.300 162.451 183.552  0.00  0.00    +0.069 HD
ATOM     71  H   UNL     1     148.258 161.613 183.696  0.00  0.00    +0.062 HD
ATOM     72  H   UNL     1     149.682 162.316 182.132  0.00  0.00    +0.058 HD
ATOM     73  H   UNL     1     149.697 162.722 179.588  0.00  0.00    +0.033 HD
ATOM     74  H   UNL     1     148.685 164.134 179.853  0.00  0.00    +0.033 HD
ATOM     75  H   UNL     1     150.910 164.801 179.559  0.00  0.00    +0.060 HD
ATOM     76  H   UNL     1     149.554 166.030 181.305  0.00  0.00    +0.032 HD
ATOM     77  H   UNL     1     151.275 166.328 181.154  0.00  0.00    +0.032 HD
ATOM     78  H   UNL     1     150.700 166.462 183.401  0.00  0.00    +0.064 HD
ATOM     79  H   UNL     1     148.924 163.777 185.229  0.00  0.00    +0.060 HD
ATOM     80  H   UNL     1     150.530 166.354 185.595  0.00  0.00    +0.032 HD
ATOM     81  H   UNL     1     150.074 165.282 186.901  0.00  0.00    +0.032 HD
ATOM     82  H   UNL     1     147.589 165.539 185.844  0.00  0.00    +0.060 HD
ATOM     83  H   UNL     1     149.141 167.513 187.539  0.00  0.00    +0.035 HD
ATOM     84  H   UNL     1     146.634 165.956 188.315  0.00  0.00    +0.060 HD
ATOM     85  H   UNL     1     146.944 167.232 190.115  0.00  0.00    +0.032 HD
ATOM     86  H   UNL     1     148.573 167.675 189.741  0.00  0.00    +0.032 HD
ATOM     87  H   UNL     1     148.236 166.433 191.926  0.00  0.00    +0.060 HD
ATOM     88  H   UNL     1     150.014 164.871 189.995  0.00  0.00    +0.036 HD
ATOM     89  H   UNL     1     151.289 163.427 186.231  0.00  0.00    +0.033 HD
ATOM     90  H   UNL     1     150.794 162.481 184.821  0.00  0.00    +0.033 HD
ATOM     91  H   UNL     1     153.182 163.513 184.594  0.00  0.00    +0.057 HD
ATOM     92  H   UNL     1     152.945 165.177 182.835  0.00  0.00    +0.059 HD
ATOM     93  H   UNL     1     157.145 156.753 187.018  0.00  0.00    +0.033 HD
ATOM     94  H   UNL     1     157.235 157.664 185.508  0.00  0.00    +0.033 HD
ATOM     95  H   UNL     1     159.485 157.864 186.547  0.00  0.00    +0.057 HD
ATOM     96  H   UNL     1     159.696 159.581 188.243  0.00  0.00    +0.059 HD
ENDROOT
BRANCH  28  97
ATOM     97  C   UNL     1     146.459 163.366 181.259  0.00  0.00    -0.040 C 
ATOM     98  H   UNL     1     145.711 163.707 181.981  0.00  0.00    +0.028 HD
ATOM     99  H   UNL     1     145.935 162.671 180.597  0.00  0.00    +0.028 HD
ATOM    100  H   UNL     1     146.779 164.219 180.650  0.00  0.00    +0.028 HD
ENDBRANCH  28  97
BRANCH  21 101
ATOM    101  C   UNL     1     147.240 157.790 185.011  0.00  0.00    -0.057 C 
ATOM    102  H   UNL     1     147.231 158.416 184.116  0.00  0.00    +0.023 HD
ATOM    103  H   UNL     1     147.715 156.844 184.747  0.00  0.00    +0.023 HD
ATOM    104  H   UNL     1     146.201 157.571 185.273  0.00  0.00    +0.023 HD
ENDBRANCH  21 101
BRANCH  42 105
ATOM    105  C   UNL     1     150.154 164.415 192.023  0.00  0.00    -0.057 C 
ATOM    106  H   UNL     1     149.234 164.063 192.492  0.00  0.00    +0.023 HD
ATOM    107  H   UNL     1     150.826 164.810 192.789  0.00  0.00    +0.023 HD
ATOM    108  H   UNL     1     150.636 163.533 191.593  0.00  0.00    +0.023 HD
ENDBRANCH  42 105
BRANCH  17 109
ATOM    109  C   UNL     1     152.639 155.691 186.421  0.00  0.00    -0.058 C 
ATOM    110  H   UNL     1     152.174 155.971 187.366  0.00  0.00    +0.023 HD
ATOM    111  H   UNL     1     153.584 155.198 186.668  0.00  0.00    +0.023 HD
ATOM    112  H   UNL     1     152.001 154.959 185.926  0.00  0.00    +0.023 HD
ENDBRANCH  17 109
BRANCH  38 113
ATOM    113  C   UNL     1     147.176 168.231 187.143  0.00  0.00    -0.058 C 
ATOM    114  H   UNL     1     146.810 168.350 186.117  0.00  0.00    +0.023 HD
ATOM    115  H   UNL     1     146.304 168.072 187.797  0.00  0.00    +0.023 HD
ATOM    116  H   UNL     1     147.634 169.181 187.429  0.00  0.00    +0.023 HD
ENDBRANCH  38 113
BRANCH   7 117
ATOM    117  C   UNL     1     155.990 164.480 186.212  0.00  0.00    -0.040 C 
ATOM    118  H   UNL     1     155.247 163.744 185.894  0.00  0.00    +0.028 HD
ATOM    119  H   UNL     1     156.982 164.072 185.996  0.00  0.00    +0.028 HD
ATOM    120  H   UNL     1     155.882 165.377 185.591  0.00  0.00    +0.028 HD
ENDBRANCH   7 117
BRANCH   1 121
ATOM    121  C   UNL     1     151.011 167.576 192.071  0.00  0.00    +0.020 C 
ATOM    122  H   UNL     1     150.151 167.411 192.727  0.00  0.00    +0.036 HD
BRANCH 121 123
ATOM    123  C   UNL     1     152.263 167.344 192.939  0.00  0.00    -0.057 C 
ATOM    124  H   UNL     1     152.412 168.135 193.678  0.00  0.00    +0.023 HD
ATOM    125  H   UNL     1     152.202 166.389 193.470  0.00  0.00    +0.023 HD
ATOM    126  H   UNL     1     153.160 167.267 192.321  0.00  0.00    +0.023 HD
ENDBRANCH 121 123
BRANCH 121 127
ATOM    127  C   UNL     1     150.994 169.085 191.651  0.00  0.00    +0.064 C 
ATOM    128  H   UNL     1     151.542 169.662 192.408  0.00  0.00    +0.060 HD
BRANCH 127 129
ATOM    129  C   UNL     1     149.586 169.733 191.516  0.00  0.00    -0.017 C 
ATOM    130  H   UNL     1     149.207 169.572 190.502  0.00  0.00    +0.032 HD
BRANCH 129 131
ATOM    131  C   UNL     1     148.589 169.122 192.506  0.00  0.00    -0.060 C 
ATOM    132  H   UNL     1     148.894 168.127 192.842  0.00  0.00    +0.023 HD
ATOM    133  H   UNL     1     148.472 169.755 193.392  0.00  0.00    +0.023 HD
ATOM    134  H   UNL     1     147.603 169.007 192.042  0.00  0.00    +0.023 HD
ENDBRANCH 129 131
BRANCH 129 135
ATOM    135  C   UNL     1     149.593 171.267 191.743  0.00  0.00    -0.046 C 
ATOM    136  H   UNL     1     150.259 171.476 192.589  0.00  0.00    +0.027 HD
ATOM    137  H   UNL     1     150.027 171.780 190.876  0.00  0.00    +0.027 HD
BRANCH 135 138
ATOM    138  C   UNL     1     148.215 171.869 192.047  0.00  0.00    -0.026 C 
ATOM    139  H   UNL     1     147.576 171.116 192.517  0.00  0.00    +0.029 HD
ATOM    140  H   UNL     1     148.334 172.684 192.773  0.00  0.00    +0.029 HD
BRANCH 138 143
ATOM    141  C   UNL     1     145.345 172.879 191.755  0.00  0.00    +0.059 C 
ATOM    142  O   UNL     1     146.509 173.366 191.077  0.00  0.00    -0.373 OA
ATOM    143  C   UNL     1     147.499 172.375 190.783  0.00  0.00    +0.061 C 
ATOM    144  C   UNL     1     146.883 171.244 189.957  0.00  0.00    -0.000 C 
ATOM    145  C   UNL     1     145.643 170.660 190.631  0.00  0.00    +0.063 C 
ATOM    146  C   UNL     1     144.662 171.785 190.945  0.00  0.00    -0.000 C 
ATOM    147  H   UNL     1     145.638 172.503 192.741  0.00  0.00    +0.059 HD
ATOM    148  H   UNL     1     148.250 172.877 190.159  0.00  0.00    +0.060 HD
ATOM    149  H   UNL     1     146.593 171.641 188.973  0.00  0.00    +0.032 HD
ATOM    150  H   UNL     1     147.620 170.458 189.757  0.00  0.00    +0.032 HD
ATOM    151  H   UNL     1     145.941 170.147 191.553  0.00  0.00    +0.060 HD
ATOM    152  H   UNL     1     143.788 171.402 191.486  0.00  0.00    +0.032 HD
ATOM    153  H   UNL     1     144.281 172.195 189.998  0.00  0.00    +0.032 HD
BRANCH 141 154
ATOM    154  C   UNL     1     144.418 174.066 191.966  0.00  0.00    -0.039 C 
ATOM    155  H   UNL     1     143.738 173.901 192.808  0.00  0.00    +0.025 HD
ATOM    156  H   UNL     1     144.998 174.977 192.159  0.00  0.00    +0.025 HD
ATOM    157  H   UNL     1     143.823 174.261 191.067  0.00  0.00    +0.025 HD
ENDBRANCH 141 154
BRANCH 145 158
ATOM    158  O   UNL     1     145.086 169.695 189.733  0.00  0.00    -0.380 OA
BRANCH 158 159
ATOM    159  C   UNL     1     144.666 168.500 190.380  0.00  0.00    +0.037 C 
ATOM    160  H   UNL     1     143.958 168.772 191.167  0.00  0.00    +0.052 HD
ATOM    161  H   UNL     1     145.514 167.995 190.846  0.00  0.00    +0.052 HD
ATOM    162  H   UNL     1     144.159 167.824 189.684  0.00  0.00    +0.052 HD
ENDBRANCH 158 159
ENDBRANCH 145 158
ENDBRANCH 138 143
ENDBRANCH 135 138
ENDBRANCH 129 135
ENDBRANCH 127 129
BRANCH 127 163
ATOM    163  O   UNL     1     151.707 169.243 190.426  0.00  0.00    -0.391 OA
ATOM    164  H   UNL     1     151.107 169.022 189.695  0.00  0.00    +0.210 HD
ENDBRANCH 127 163
ENDBRANCH 121 127
ENDBRANCH   1 121
BRANCH  41 165
ATOM    165  O   UNL     1     147.538 164.750 191.005  0.00  0.00    -0.391 OA
ATOM    166  H   UNL     1     146.678 165.033 191.366  0.00  0.00    +0.210 HD
ENDBRANCH  41 165
BRANCH  39 167
ATOM    167  O   UNL     1     148.318 164.868 188.363  0.00  0.00    -0.391 OA
ATOM    168  H   UNL     1     147.626 164.234 188.078  0.00  0.00    +0.210 HD
ENDBRANCH  39 167
BRANCH  31 169
ATOM    169  O   UNL     1     151.859 163.602 180.845  0.00  0.00    -0.391 OA
ATOM    170  H   UNL     1     152.576 163.875 180.244  0.00  0.00    +0.210 HD
ENDBRANCH  31 169
BRANCH  22 171
ATOM    171  C   UNL     1     147.812 160.436 187.909  0.00  0.00    +0.020 C 
ATOM    172  H   UNL     1     148.577 159.776 188.323  0.00  0.00    +0.036 HD
BRANCH 171 173
ATOM    173  C   UNL     1     148.603 161.690 187.488  0.00  0.00    -0.057 C 
ATOM    174  H   UNL     1     149.544 161.766 188.045  0.00  0.00    +0.023 HD
ATOM    175  H   UNL     1     148.858 161.657 186.422  0.00  0.00    +0.023 HD
ATOM    176  H   UNL     1     148.023 162.604 187.647  0.00  0.00    +0.023 HD
ENDBRANCH 171 173
BRANCH 171 177
ATOM    177  C   UNL     1     146.822 160.857 189.050  0.00  0.00    +0.064 C 
ATOM    178  H   UNL     1     146.875 161.947 189.182  0.00  0.00    +0.060 HD
BRANCH 177 179
ATOM    179  O   UNL     1     145.471 160.597 188.672  0.00  0.00    -0.391 OA
ATOM    180  H   UNL     1     145.186 161.315 188.079  0.00  0.00    +0.210 HD
ENDBRANCH 177 179
BRANCH 177 181
ATOM    181  C   UNL     1     147.118 160.190 190.438  0.00  0.00    -0.017 C 
ATOM    182  H   UNL     1     146.872 160.920 191.223  0.00  0.00    +0.032 HD
BRANCH 181 183
ATOM    183  C   UNL     1     146.261 158.930 190.643  0.00  0.00    -0.060 C 
ATOM    184  H   UNL     1     146.609 158.136 189.974  0.00  0.00    +0.023 HD
ATOM    185  H   UNL     1     145.199 159.100 190.448  0.00  0.00    +0.023 HD
ATOM    186  H   UNL     1     146.310 158.570 191.673  0.00  0.00    +0.023 HD
ENDBRANCH 181 183
BRANCH 181 187
ATOM    187  C   UNL     1     148.628 159.838 190.587  0.00  0.00    -0.046 C 
ATOM    188  H   UNL     1     148.987 159.405 189.649  0.00  0.00    +0.027 HD
ATOM    189  H   UNL     1     148.718 159.068 191.363  0.00  0.00    +0.027 HD
BRANCH 187 190
ATOM    190  C   UNL     1     149.528 161.036 190.949  0.00  0.00    -0.026 C 
ATOM    191  H   UNL     1     149.247 161.383 191.947  0.00  0.00    +0.029 HD
ATOM    192  H   UNL     1     149.316 161.856 190.252  0.00  0.00    +0.029 HD
BRANCH 190 193
ATOM    193  C   UNL     1     151.055 160.815 191.006  0.00  0.00    +0.061 C 
ATOM    194  O   UNL     1     151.781 161.669 190.122  0.00  0.00    -0.373 OA
ATOM    195  C   UNL     1     151.951 161.206 188.787  0.00  0.00    +0.059 C 
ATOM    196  C   UNL     1     152.594 159.827 188.750  0.00  0.00    -0.000 C 
ATOM    197  C   UNL     1     151.760 158.830 189.561  0.00  0.00    +0.063 C 
ATOM    198  C   UNL     1     151.547 159.368 190.974  0.00  0.00    -0.000 C 
ATOM    199  H   UNL     1     151.333 161.193 192.000  0.00  0.00    +0.060 HD
ATOM    200  H   UNL     1     150.976 161.190 188.288  0.00  0.00    +0.059 HD
ATOM    201  H   UNL     1     152.695 159.487 187.714  0.00  0.00    +0.032 HD
ATOM    202  H   UNL     1     153.606 159.855 189.169  0.00  0.00    +0.032 HD
ATOM    203  H   UNL     1     150.797 158.675 189.069  0.00  0.00    +0.060 HD
ATOM    204  H   UNL     1     152.522 159.332 191.482  0.00  0.00    +0.032 HD
ATOM    205  H   UNL     1     150.891 158.707 191.553  0.00  0.00    +0.032 HD
BRANCH 195 206
ATOM    206  C   UNL     1     152.835 162.216 188.065  0.00  0.00    -0.039 C 
ATOM    207  H   UNL     1     152.238 163.031 187.653  0.00  0.00    +0.025 HD
ATOM    208  H   UNL     1     153.578 162.637 188.744  0.00  0.00    +0.025 HD
ATOM    209  H   UNL     1     153.386 161.743 187.249  0.00  0.00    +0.025 HD
ENDBRANCH 195 206
BRANCH 197 210
ATOM    210  O   UNL     1     152.391 157.550 189.692  0.00  0.00    -0.380 OA
BRANCH 210 211
ATOM    211  C   UNL     1     153.582 157.566 190.464  0.00  0.00    +0.037 C 
ATOM    212  H   UNL     1     153.379 157.201 191.471  0.00  0.00    +0.052 HD
ATOM    213  H   UNL     1     154.299 156.883 190.001  0.00  0.00    +0.052 HD
ATOM    214  H   UNL     1     154.021 158.565 190.499  0.00  0.00    +0.052 HD
ENDBRANCH 210 211
ENDBRANCH 197 210
ENDBRANCH 190 193
ENDBRANCH 187 190
ENDBRANCH 181 187
ENDBRANCH 177 181
ENDBRANCH 171 177
ENDBRANCH  22 171
BRANCH  20 215
ATOM    215  O   UNL     1     149.560 159.544 184.534  0.00  0.00    -0.391 OA
ATOM    216  H   UNL     1     150.105 159.033 183.912  0.00  0.00    +0.210 HD
ENDBRANCH  20 215
BRANCH  18 217
ATOM    217  O   UNL     1     152.171 159.170 185.008  0.00  0.00    -0.391 OA
ATOM    218  H   UNL     1     152.817 159.752 185.463  0.00  0.00    +0.210 HD
ENDBRANCH  18 217
BRANCH  10 219
ATOM    219  O   UNL     1     159.543 161.956 188.918  0.00  0.00    -0.391 OA
ATOM    220  H   UNL     1     159.647 161.169 189.483  0.00  0.00    +0.210 HD
ENDBRANCH  10 219
BRANCH  37 221
ATOM    221  O   UNL     1     148.332 167.217 184.845  0.00  0.00    -0.379 OA
BRANCH 221 222
ATOM    222  C   UNL     1     147.247 166.956 183.964  0.00  0.00    +0.037 C 
ATOM    223  H   UNL     1     147.602 166.458 183.056  0.00  0.00    +0.052 HD
ATOM    224  H   UNL     1     146.724 167.879 183.697  0.00  0.00    +0.052 HD
ATOM    225  H   UNL     1     146.537 166.293 184.469  0.00  0.00    +0.052 HD
ENDBRANCH 221 222
ENDBRANCH  37 221
BRANCH  16 226
ATOM    226  O   UNL     1     154.770 158.315 184.630  0.00  0.00    -0.379 OA
BRANCH 226 227
ATOM    227  C   UNL     1     155.037 157.751 183.355  0.00  0.00    +0.037 C 
ATOM    228  H   UNL     1     155.758 156.941 183.492  0.00  0.00    +0.052 HD
ATOM    229  H   UNL     1     154.129 157.326 182.912  0.00  0.00    +0.052 HD
ATOM    230  H   UNL     1     155.483 158.486 182.680  0.00  0.00    +0.052 HD
ENDBRANCH 226 227
ENDBRANCH  16 226
TORSDOF 40
ENDMDL
MODEL 2
REMARK VINA RESULT:      -5.0      1.949      2.647
REMARK  Name = Swinholide A_conf2
REMARK  40 active torsions:
REMARK  status: ('A' for Active; 'I' for Inactive)
REMARK    1  A    between atoms: C_1  and  C_2
REMARK    2  A    between atoms: C_4  and  C_10
REMARK    3  A    between atoms: C_6  and  O_8
REMARK    4  A    between atoms: O_8  and  C_9
REMARK    5  A    between atoms: C_10  and  C_11
REMARK    6  A    between atoms: C_11  and  C_12
REMARK    7  A    between atoms: C_12  and  C_13
REMARK    8  A    between atoms: C_12  and  C_98
REMARK    9  A    between atoms: C_13  and  O_14
REMARK   10  A    between atoms: C_13  and  C_15
REMARK   11  A    between atoms: C_15  and  C_16
REMARK   12  A    between atoms: C_15  and  C_97
REMARK   13  A    between atoms: C_22  and  C_96
REMARK   14  A    between atoms: C_25  and  O_95
REMARK   15  A    between atoms: C_31  and  O_90
REMARK   16  A    between atoms: C_32  and  C_89
REMARK   17  A    between atoms: C_33  and  O_88
REMARK   18  A    between atoms: C_35  and  O_87
REMARK   19  A    between atoms: C_36  and  C_86
REMARK   20  A    between atoms: C_37  and  C_69
REMARK   21  A    between atoms: C_43  and  C_68
REMARK   22  A    between atoms: C_46  and  O_67
REMARK   23  A    between atoms: C_52  and  O_62
REMARK   24  A    between atoms: C_53  and  C_61
REMARK   25  A    between atoms: C_54  and  O_60
REMARK   26  A    between atoms: C_56  and  O_59
REMARK   27  A    between atoms: C_57  and  C_58
REMARK   28  A    between atoms: O_62  and  C_63
REMARK   29  A    between atoms: C_69  and  C_70
REMARK   30  A    between atoms: C_69  and  C_85
REMARK   31  A    between atoms: C_70  and  O_71
REMARK   32  A    between atoms: C_70  and  C_72
REMARK   33  A    between atoms: C_72  and  C_73
REMARK   34  A    between atoms: C_72  and  C_84
REMARK   35  A    between atoms: C_73  and  C_74
REMARK   36  A    between atoms: C_74  and  C_75
REMARK   37  A    between atoms: C_77  and  C_83
REMARK   38  A    between atoms: C_79  and  O_81
REMARK   39  A    between atoms: O_81  and  C_82
REMARK   40  A    between atoms: O_90  and  C_91
REMARK                            x       y       z     vdW  Elec       q    Type
REMARK                         _______ _______ _______ _____ _____    ______ ____
ROOT
ATOM      1  C   UNL     1     150.670 166.571 190.829  0.00  0.00    +0.113 C 
ATOM      2  O   UNL     1     151.789 166.106 190.030  0.00  0.00    -0.458 OA
ATOM      3  C   UNL     1     151.763 166.441 188.717  0.00  0.00    +0.332 C 
ATOM      4  O   UNL     1     150.924 167.117 188.149  0.00  0.00    -0.246 OA
ATOM      5  C   UNL     1     152.920 165.809 188.046  0.00  0.00    +0.023 C 
ATOM      6  C   UNL     1     153.155 166.079 186.753  0.00  0.00    -0.052 C 
ATOM      7  C   UNL     1     154.192 165.481 185.921  0.00  0.00    -0.054 C 
ATOM      8  C   UNL     1     155.385 165.096 186.416  0.00  0.00    -0.079 C 
ATOM      9  C   UNL     1     156.540 164.534 185.626  0.00  0.00    -0.008 C 
ATOM     10  C   UNL     1     156.884 163.068 185.961  0.00  0.00    +0.061 C 
ATOM     11  C   UNL     1     155.822 162.084 185.447  0.00  0.00    +0.003 C 
ATOM     12  C   UNL     1     156.223 160.597 185.554  0.00  0.00    +0.080 C 
ATOM     13  O   UNL     1     155.048 159.762 185.664  0.00  0.00    -0.369 OA
ATOM     14  C   UNL     1     154.377 159.525 184.412  0.00  0.00    +0.065 C 
ATOM     15  C   UNL     1     153.088 158.751 184.739  0.00  0.00    +0.000 C 
ATOM     16  C   UNL     1     152.275 158.290 183.508  0.00  0.00    +0.066 C 
ATOM     17  C   UNL     1     150.849 157.751 183.871  0.00  0.00    +0.009 C 
ATOM     18  C   UNL     1     149.972 158.762 184.651  0.00  0.00    +0.063 C 
ATOM     19  C   UNL     1     148.536 158.248 184.929  0.00  0.00    -0.000 C 
ATOM     20  C   UNL     1     147.687 159.374 185.540  0.00  0.00    +0.064 C 
ATOM     21  C   UNL     1     146.467 158.880 186.359  0.00  0.00    +0.020 C 
ATOM     22  C   UNL     1     145.872 159.992 187.281  0.00  0.00    +0.113 C 
ATOM     23  O   UNL     1     145.439 161.035 186.363  0.00  0.00    -0.458 OA
ATOM     24  C   UNL     1     144.248 161.646 186.539  0.00  0.00    +0.332 C 
ATOM     25  O   UNL     1     143.503 161.536 187.513  0.00  0.00    -0.246 OA
ATOM     26  C   UNL     1     143.920 162.509 185.384  0.00  0.00    +0.023 C 
ATOM     27  C   UNL     1     144.775 162.755 184.369  0.00  0.00    -0.052 C 
ATOM     28  C   UNL     1     144.553 163.602 183.200  0.00  0.00    -0.054 C 
ATOM     29  C   UNL     1     145.587 163.793 182.353  0.00  0.00    -0.079 C 
ATOM     30  C   UNL     1     145.645 164.674 181.138  0.00  0.00    -0.008 C 
ATOM     31  C   UNL     1     146.881 165.591 181.032  0.00  0.00    +0.061 C 
ATOM     32  C   UNL     1     147.041 166.668 182.125  0.00  0.00    +0.003 C 
ATOM     33  C   UNL     1     147.768 166.354 183.448  0.00  0.00    +0.080 C 
ATOM     34  O   UNL     1     146.962 165.500 184.266  0.00  0.00    -0.369 OA
ATOM     35  C   UNL     1     147.598 165.014 185.452  0.00  0.00    +0.065 C 
ATOM     36  C   UNL     1     147.887 166.113 186.491  0.00  0.00    +0.000 C 
ATOM     37  C   UNL     1     146.584 166.678 187.106  0.00  0.00    +0.066 C 
ATOM     38  C   UNL     1     146.843 167.269 188.521  0.00  0.00    +0.009 C 
ATOM     39  C   UNL     1     146.840 166.183 189.637  0.00  0.00    +0.063 C 
ATOM     40  C   UNL     1     147.512 166.683 190.943  0.00  0.00    -0.000 C 
ATOM     41  C   UNL     1     148.379 165.685 191.722  0.00  0.00    +0.064 C 
ATOM     42  C   UNL     1     149.750 165.338 191.090  0.00  0.00    +0.020 C 
ATOM     43  C   UNL     1     148.840 164.184 185.085  0.00  0.00    -0.008 C 
ATOM     44  C   UNL     1     149.663 164.817 184.004  0.00  0.00    -0.083 C 
ATOM     45  C   UNL     1     149.164 165.816 183.271  0.00  0.00    -0.059 C 
ATOM     46  C   UNL     1     155.295 158.750 183.454  0.00  0.00    -0.008 C 
ATOM     47  C   UNL     1     156.684 159.311 183.444  0.00  0.00    -0.083 C 
ATOM     48  C   UNL     1     157.100 160.135 184.413  0.00  0.00    -0.059 C 
ATOM     49  H   UNL     1     150.070 167.260 190.237  0.00  0.00    +0.074 HD
ATOM     50  H   UNL     1     153.514 165.120 188.628  0.00  0.00    +0.069 HD
ATOM     51  H   UNL     1     152.491 166.769 186.232  0.00  0.00    +0.062 HD
ATOM     52  H   UNL     1     155.596 165.236 187.476  0.00  0.00    +0.058 HD
ATOM     53  H   UNL     1     157.414 165.163 185.841  0.00  0.00    +0.033 HD
ATOM     54  H   UNL     1     156.396 164.633 184.546  0.00  0.00    +0.033 HD
ATOM     55  H   UNL     1     156.985 162.954 187.043  0.00  0.00    +0.060 HD
ATOM     56  H   UNL     1     154.889 162.245 185.999  0.00  0.00    +0.032 HD
ATOM     57  H   UNL     1     155.589 162.310 184.400  0.00  0.00    +0.032 HD
ATOM     58  H   UNL     1     156.768 160.438 186.490  0.00  0.00    +0.064 HD
ATOM     59  H   UNL     1     154.100 160.494 183.977  0.00  0.00    +0.060 HD
ATOM     60  H   UNL     1     153.325 157.882 185.364  0.00  0.00    +0.032 HD
ATOM     61  H   UNL     1     152.485 159.414 185.371  0.00  0.00    +0.032 HD
ATOM     62  H   UNL     1     152.832 157.466 183.036  0.00  0.00    +0.060 HD
ATOM     63  H   UNL     1     150.335 157.553 182.925  0.00  0.00    +0.035 HD
ATOM     64  H   UNL     1     150.425 158.964 185.629  0.00  0.00    +0.060 HD
ATOM     65  H   UNL     1     148.581 157.395 185.619  0.00  0.00    +0.032 HD
ATOM     66  H   UNL     1     148.082 157.908 183.994  0.00  0.00    +0.032 HD
ATOM     67  H   UNL     1     148.344 159.947 186.194  0.00  0.00    +0.060 HD
ATOM     68  H   UNL     1     146.818 158.054 186.986  0.00  0.00    +0.036 HD
ATOM     69  H   UNL     1     145.002 159.583 187.810  0.00  0.00    +0.074 HD
ATOM     70  H   UNL     1     142.935 162.957 185.432  0.00  0.00    +0.069 HD
ATOM     71  H   UNL     1     145.769 162.311 184.422  0.00  0.00    +0.062 HD
ATOM     72  H   UNL     1     146.533 163.294 182.573  0.00  0.00    +0.058 HD
ATOM     73  H   UNL     1     145.639 164.006 180.265  0.00  0.00    +0.033 HD
ATOM     74  H   UNL     1     144.758 165.303 181.057  0.00  0.00    +0.033 HD
ATOM     75  H   UNL     1     146.720 166.151 180.103  0.00  0.00    +0.060 HD
ATOM     76  H   UNL     1     146.045 167.063 182.363  0.00  0.00    +0.032 HD
ATOM     77  H   UNL     1     147.594 167.494 181.666  0.00  0.00    +0.032 HD
ATOM     78  H   UNL     1     147.849 167.314 183.968  0.00  0.00    +0.064 HD
ATOM     79  H   UNL     1     146.889 164.312 185.910  0.00  0.00    +0.060 HD
ATOM     80  H   UNL     1     148.467 166.929 186.047  0.00  0.00    +0.032 HD
ATOM     81  H   UNL     1     148.525 165.677 187.269  0.00  0.00    +0.032 HD
ATOM     82  H   UNL     1     145.822 165.892 187.188  0.00  0.00    +0.060 HD
ATOM     83  H   UNL     1     147.832 167.746 188.493  0.00  0.00    +0.035 HD
ATOM     84  H   UNL     1     145.794 165.939 189.869  0.00  0.00    +0.060 HD
ATOM     85  H   UNL     1     146.694 167.004 191.606  0.00  0.00    +0.032 HD
ATOM     86  H   UNL     1     148.076 167.599 190.754  0.00  0.00    +0.032 HD
ATOM     87  H   UNL     1     148.559 166.081 192.727  0.00  0.00    +0.060 HD
ATOM     88  H   UNL     1     149.571 164.890 190.103  0.00  0.00    +0.036 HD
ATOM     89  H   UNL     1     149.462 164.004 185.969  0.00  0.00    +0.033 HD
ATOM     90  H   UNL     1     148.520 163.206 184.704  0.00  0.00    +0.033 HD
ATOM     91  H   UNL     1     150.652 164.417 183.806  0.00  0.00    +0.057 HD
ATOM     92  H   UNL     1     149.774 166.263 182.486  0.00  0.00    +0.059 HD
ATOM     93  H   UNL     1     155.354 157.697 183.744  0.00  0.00    +0.033 HD
ATOM     94  H   UNL     1     154.886 158.789 182.438  0.00  0.00    +0.033 HD
ATOM     95  H   UNL     1     157.353 159.013 182.647  0.00  0.00    +0.057 HD
ATOM     96  H   UNL     1     158.115 160.521 184.383  0.00  0.00    +0.059 HD
ENDROOT
BRANCH  28  97
ATOM     97  C   UNL     1     143.189 164.221 183.029  0.00  0.00    -0.040 C 
ATOM     98  H   UNL     1     142.532 163.926 183.853  0.00  0.00    +0.028 HD
ATOM     99  H   UNL     1     142.676 163.907 182.116  0.00  0.00    +0.028 HD
ATOM    100  H   UNL     1     143.257 165.314 183.005  0.00  0.00    +0.028 HD
ENDBRANCH  28  97
BRANCH  21 101
ATOM    101  C   UNL     1     145.360 158.296 185.469  0.00  0.00    -0.057 C 
ATOM    102  H   UNL     1     145.519 158.554 184.419  0.00  0.00    +0.023 HD
ATOM    103  H   UNL     1     145.351 157.207 185.544  0.00  0.00    +0.023 HD
ATOM    104  H   UNL     1     144.365 158.651 185.752  0.00  0.00    +0.023 HD
ENDBRANCH  21 101
BRANCH  42 105
ATOM    105  C   UNL     1     150.429 164.201 191.873  0.00  0.00    -0.057 C 
ATOM    106  H   UNL     1     149.708 163.445 192.188  0.00  0.00    +0.023 HD
ATOM    107  H   UNL     1     150.975 164.572 192.743  0.00  0.00    +0.023 HD
ATOM    108  H   UNL     1     151.151 163.688 191.232  0.00  0.00    +0.023 HD
ENDBRANCH  42 105
BRANCH  17 109
ATOM    109  C   UNL     1     150.952 156.412 184.610  0.00  0.00    -0.058 C 
ATOM    110  H   UNL     1     150.097 156.254 185.268  0.00  0.00    +0.023 HD
ATOM    111  H   UNL     1     151.845 156.392 185.242  0.00  0.00    +0.023 HD
ATOM    112  H   UNL     1     151.014 155.572 183.919  0.00  0.00    +0.023 HD
ENDBRANCH  17 109
BRANCH  38 113
ATOM    113  C   UNL     1     145.839 168.371 188.907  0.00  0.00    -0.058 C 
ATOM    114  H   UNL     1     146.324 169.220 189.403  0.00  0.00    +0.023 HD
ATOM    115  H   UNL     1     145.318 168.753 188.015  0.00  0.00    +0.023 HD
ATOM    116  H   UNL     1     145.080 167.993 189.597  0.00  0.00    +0.023 HD
ENDBRANCH  38 113
BRANCH   7 117
ATOM    117  C   UNL     1     153.830 165.368 184.463  0.00  0.00    -0.040 C 
ATOM    118  H   UNL     1     152.821 165.750 184.292  0.00  0.00    +0.028 HD
ATOM    119  H   UNL     1     153.859 164.328 184.124  0.00  0.00    +0.028 HD
ATOM    120  H   UNL     1     154.527 165.922 183.822  0.00  0.00    +0.028 HD
ENDBRANCH   7 117
BRANCH   1 121
ATOM    121  C   UNL     1     151.182 167.383 192.054  0.00  0.00    +0.020 C 
ATOM    122  H   UNL     1     150.455 167.290 192.867  0.00  0.00    +0.036 HD
BRANCH 121 123
ATOM    123  C   UNL     1     152.523 166.877 192.620  0.00  0.00    -0.057 C 
ATOM    124  H   UNL     1     153.356 167.041 191.931  0.00  0.00    +0.023 HD
ATOM    125  H   UNL     1     152.764 167.371 193.566  0.00  0.00    +0.023 HD
ATOM    126  H   UNL     1     152.470 165.814 192.861  0.00  0.00    +0.023 HD
ENDBRANCH 121 123
BRANCH 121 127
ATOM    127  C   UNL     1     151.341 168.910 191.742  0.00  0.00    +0.064 C 
ATOM    128  H   UNL     1     152.175 169.301 192.339  0.00  0.00    +0.060 HD
BRANCH 127 129
ATOM    129  C   UNL     1     150.100 169.796 192.056  0.00  0.00    -0.017 C 
ATOM    130  H   UNL     1     149.518 169.335 192.859  0.00  0.00    +0.032 HD
BRANCH 129 131
ATOM    131  C   UNL     1     150.513 171.202 192.505  0.00  0.00    -0.060 C 
ATOM    132  H   UNL     1     151.151 171.702 191.772  0.00  0.00    +0.023 HD
ATOM    133  H   UNL     1     149.636 171.836 192.677  0.00  0.00    +0.023 HD
ATOM    134  H   UNL     1     151.085 171.158 193.439  0.00  0.00    +0.023 HD
ENDBRANCH 129 131
BRANCH 129 135
ATOM    135  C   UNL     1     149.138 169.952 190.850  0.00  0.00    -0.046 C 
ATOM    136  H   UNL     1     149.614 170.627 190.128  0.00  0.00    +0.027 HD
ATOM    137  H   UNL     1     149.011 168.992 190.336  0.00  0.00    +0.027 HD
BRANCH 135 138
ATOM    138  C   UNL     1     147.758 170.519 191.209  0.00  0.00    -0.026 C 
ATOM    139  H   UNL     1     146.976 169.917 190.738  0.00  0.00    +0.029 HD
ATOM    140  H   UNL     1     147.611 170.439 192.294  0.00  0.00    +0.029 HD
BRANCH 138 143
ATOM    141  C   UNL     1     147.043 172.975 192.881  0.00  0.00    +0.059 C 
ATOM    142  O   UNL     1     147.937 172.917 191.764  0.00  0.00    -0.373 OA
ATOM    143  C   UNL     1     147.579 171.975 190.747  0.00  0.00    +0.061 C 
ATOM    144  C   UNL     1     146.167 172.265 190.234  0.00  0.00    -0.000 C 
ATOM    145  C   UNL     1     145.150 172.323 191.373  0.00  0.00    +0.063 C 
ATOM    146  C   UNL     1     145.629 173.316 192.428  0.00  0.00    -0.000 C 
ATOM    147  H   UNL     1     147.058 172.012 193.401  0.00  0.00    +0.059 HD
ATOM    148  H   UNL     1     148.280 172.145 189.920  0.00  0.00    +0.060 HD
ATOM    149  H   UNL     1     146.170 173.236 189.719  0.00  0.00    +0.032 HD
ATOM    150  H   UNL     1     145.863 171.527 189.483  0.00  0.00    +0.032 HD
ATOM    151  H   UNL     1     145.044 171.324 191.813  0.00  0.00    +0.060 HD
ATOM    152  H   UNL     1     144.948 173.332 193.288  0.00  0.00    +0.032 HD
ATOM    153  H   UNL     1     145.602 174.328 191.996  0.00  0.00    +0.032 HD
BRANCH 141 154
ATOM    154  C   UNL     1     147.582 174.029 193.836  0.00  0.00    -0.039 C 
ATOM    155  H   UNL     1     147.737 173.621 194.839  0.00  0.00    +0.025 HD
ATOM    156  H   UNL     1     148.536 174.426 193.469  0.00  0.00    +0.025 HD
ATOM    157  H   UNL     1     146.896 174.881 193.904  0.00  0.00    +0.025 HD
ENDBRANCH 141 154
BRANCH 145 158
ATOM    158  O   UNL     1     143.895 172.706 190.804  0.00  0.00    -0.380 OA
BRANCH 158 159
ATOM    159  C   UNL     1     143.616 174.094 190.934  0.00  0.00    +0.037 C 
ATOM    160  H   UNL     1     142.531 174.222 190.944  0.00  0.00    +0.052 HD
ATOM    161  H   UNL     1     144.016 174.649 190.084  0.00  0.00    +0.052 HD
ATOM    162  H   UNL     1     144.016 174.496 191.870  0.00  0.00    +0.052 HD
ENDBRANCH 158 159
ENDBRANCH 145 158
ENDBRANCH 138 143
ENDBRANCH 135 138
ENDBRANCH 129 135
ENDBRANCH 127 129
BRANCH 127 163
ATOM    163  O   UNL     1     151.707 169.078 190.374  0.00  0.00    -0.391 OA
ATOM    164  H   UNL     1     152.393 169.763 190.325  0.00  0.00    +0.210 HD
ENDBRANCH 127 163
ENDBRANCH 121 127
ENDBRANCH   1 121
BRANCH  41 165
ATOM    165  O   UNL     1     147.615 164.478 191.883  0.00  0.00    -0.391 OA
ATOM    166  H   UNL     1     148.246 163.736 191.885  0.00  0.00    +0.210 HD
ENDBRANCH  41 165
BRANCH  39 167
ATOM    167  O   UNL     1     147.408 164.971 189.178  0.00  0.00    -0.391 OA
ATOM    168  H   UNL     1     147.310 164.956 188.202  0.00  0.00    +0.210 HD
ENDBRANCH  39 167
BRANCH  31 169
ATOM    169  O   UNL     1     148.088 164.871 180.800  0.00  0.00    -0.391 OA
ATOM    170  H   UNL     1     148.534 164.731 181.655  0.00  0.00    +0.210 HD
ENDBRANCH  31 169
BRANCH  22 171
ATOM    171  C   UNL     1     146.866 160.603 188.322  0.00  0.00    +0.020 C 
ATOM    172  H   UNL     1     147.762 159.978 188.313  0.00  0.00    +0.036 HD
BRANCH 171 173
ATOM    173  C   UNL     1     147.378 161.981 187.862  0.00  0.00    -0.057 C 
ATOM    174  H   UNL     1     148.464 162.059 187.988  0.00  0.00    +0.023 HD
ATOM    175  H   UNL     1     147.161 162.148 186.800  0.00  0.00    +0.023 HD
ATOM    176  H   UNL     1     146.897 162.794 188.415  0.00  0.00    +0.023 HD
ENDBRANCH 171 173
BRANCH 171 177
ATOM    177  C   UNL     1     146.357 160.751 189.798  0.00  0.00    +0.064 C 
ATOM    178  H   UNL     1     146.471 161.799 190.110  0.00  0.00    +0.060 HD
BRANCH 177 179
ATOM    179  O   UNL     1     144.956 160.493 189.881  0.00  0.00    -0.391 OA
ATOM    180  H   UNL     1     144.497 161.188 189.377  0.00  0.00    +0.210 HD
ENDBRANCH 177 179
BRANCH 177 181
ATOM    181  C   UNL     1     147.119 159.856 190.836  0.00  0.00    -0.017 C 
ATOM    182  H   UNL     1     147.381 160.486 191.697  0.00  0.00    +0.032 HD
BRANCH 181 183
ATOM    183  C   UNL     1     146.238 158.692 191.320  0.00  0.00    -0.060 C 
ATOM    184  H   UNL     1     145.194 159.018 191.371  0.00  0.00    +0.023 HD
ATOM    185  H   UNL     1     146.528 158.319 192.305  0.00  0.00    +0.023 HD
ATOM    186  H   UNL     1     146.306 157.829 190.654  0.00  0.00    +0.023 HD
ENDBRANCH 181 183
BRANCH 181 187
ATOM    187  C   UNL     1     148.449 159.305 190.240  0.00  0.00    -0.046 C 
ATOM    188  H   UNL     1     148.319 159.145 189.166  0.00  0.00    +0.027 HD
ATOM    189  H   UNL     1     148.644 158.329 190.700  0.00  0.00    +0.027 HD
BRANCH 187 190
ATOM    190  C   UNL     1     149.669 160.223 190.453  0.00  0.00    -0.026 C 
ATOM    191  H   UNL     1     150.014 160.097 191.484  0.00  0.00    +0.029 HD
ATOM    192  H   UNL     1     149.346 161.265 190.347  0.00  0.00    +0.029 HD
BRANCH 190 193
ATOM    193  C   UNL     1     150.919 159.999 189.573  0.00  0.00    +0.061 C 
ATOM    194  O   UNL     1     152.087 160.644 190.080  0.00  0.00    -0.373 OA
ATOM    195  C   UNL     1     152.285 161.998 189.692  0.00  0.00    +0.059 C 
ATOM    196  C   UNL     1     152.275 162.155 188.178  0.00  0.00    -0.000 C 
ATOM    197  C   UNL     1     150.963 161.617 187.597  0.00  0.00    +0.063 C 
ATOM    198  C   UNL     1     150.745 160.180 188.065  0.00  0.00    -0.000 C 
ATOM    199  H   UNL     1     151.144 158.932 189.712  0.00  0.00    +0.060 HD
ATOM    200  H   UNL     1     151.505 162.618 190.148  0.00  0.00    +0.059 HD
ATOM    201  H   UNL     1     152.409 163.208 187.908  0.00  0.00    +0.032 HD
ATOM    202  H   UNL     1     153.108 161.607 187.722  0.00  0.00    +0.032 HD
ATOM    203  H   UNL     1     150.134 162.249 187.923  0.00  0.00    +0.060 HD
ATOM    204  H   UNL     1     151.500 159.560 187.562  0.00  0.00    +0.032 HD
ATOM    205  H   UNL     1     149.776 159.797 187.723  0.00  0.00    +0.032 HD
BRANCH 195 206
ATOM    206  C   UNL     1     153.630 162.441 190.256  0.00  0.00    -0.039 C 
ATOM    207  H   UNL     1     154.446 161.869 189.811  0.00  0.00    +0.025 HD
ATOM    208  H   UNL     1     153.802 163.502 190.062  0.00  0.00    +0.025 HD
ATOM    209  H   UNL     1     153.664 162.310 191.339  0.00  0.00    +0.025 HD
ENDBRANCH 195 206
BRANCH 197 210
ATOM    210  O   UNL     1     150.954 161.596 186.164  0.00  0.00    -0.380 OA
BRANCH 210 211
ATOM    211  C   UNL     1     152.050 162.271 185.566  0.00  0.00    +0.037 C 
ATOM    212  H   UNL     1     151.802 162.552 184.543  0.00  0.00    +0.052 HD
ATOM    213  H   UNL     1     152.234 163.190 186.129  0.00  0.00    +0.052 HD
ATOM    214  H   UNL     1     152.955 161.660 185.588  0.00  0.00    +0.052 HD
ENDBRANCH 210 211
ENDBRANCH 197 210
ENDBRANCH 190 193
ENDBRANCH 187 190
ENDBRANCH 181 187
ENDBRANCH 177 181
ENDBRANCH 171 177
ENDBRANCH  22 171
BRANCH  20 215
ATOM    215  O   UNL     1     147.326 160.248 184.462  0.00  0.00    -0.391 OA
ATOM    216  H   UNL     1     146.788 159.751 183.822  0.00  0.00    +0.210 HD
ENDBRANCH  20 215
BRANCH  18 217
ATOM    217  O   UNL     1     149.943 159.997 183.942  0.00  0.00    -0.391 OA
ATOM    218  H   UNL     1     149.324 159.935 183.183  0.00  0.00    +0.210 HD
ENDBRANCH  18 217
BRANCH  10 219
ATOM    219  O   UNL     1     158.162 162.780 185.390  0.00  0.00    -0.391 OA
ATOM    220  H   UNL     1     158.843 163.057 186.029  0.00  0.00    +0.210 HD
ENDBRANCH  10 219
BRANCH  37 221
ATOM    221  O   UNL     1     146.128 167.726 186.235  0.00  0.00    -0.379 OA
BRANCH 221 222
ATOM    222  C   UNL     1     144.806 167.503 185.763  0.00  0.00    +0.037 C 
ATOM    223  H   UNL     1     144.103 167.451 186.601  0.00  0.00    +0.052 HD
ATOM    224  H   UNL     1     144.746 166.583 185.174  0.00  0.00    +0.052 HD
ATOM    225  H   UNL     1     144.518 168.342 185.120  0.00  0.00    +0.052 HD
ENDBRANCH 221 222
ENDBRANCH  37 221
BRANCH  16 226
ATOM    226  O   UNL     1     152.257 159.373 182.570  0.00  0.00    -0.379 OA
BRANCH 226 227
ATOM    227  C   UNL     1     152.069 158.987 181.217  0.00  0.00    +0.037 C 
ATOM    228  H   UNL     1     152.966 158.453 180.894  0.00  0.00    +0.052 HD
ATOM    229  H   UNL     1     151.214 158.310 181.114  0.00  0.00    +0.052 HD
ATOM    230  H   UNL     1     151.945 159.859 180.568  0.00  0.00    +0.052 HD
ENDBRANCH 226 227
ENDBRANCH  16 226
TORSDOF 40
ENDMDL
MODEL 3
REMARK VINA RESULT:      -4.9      2.063      3.240
REMARK  Name = Swinholide A_conf2
REMARK  40 active torsions:
REMARK  status: ('A' for Active; 'I' for Inactive)
REMARK    1  A    between atoms: C_1  and  C_2
REMARK    2  A    between atoms: C_4  and  C_10
REMARK    3  A    between atoms: C_6  and  O_8
REMARK    4  A    between atoms: O_8  and  C_9
REMARK    5  A    between atoms: C_10  and  C_11
REMARK    6  A    between atoms: C_11  and  C_12
REMARK    7  A    between atoms: C_12  and  C_13
REMARK    8  A    between atoms: C_12  and  C_98
REMARK    9  A    between atoms: C_13  and  O_14
REMARK   10  A    between atoms: C_13  and  C_15
REMARK   11  A    between atoms: C_15  and  C_16
REMARK   12  A    between atoms: C_15  and  C_97
REMARK   13  A    between atoms: C_22  and  C_96
REMARK   14  A    between atoms: C_25  and  O_95
REMARK   15  A    between atoms: C_31  and  O_90
REMARK   16  A    between atoms: C_32  and  C_89
REMARK   17  A    between atoms: C_33  and  O_88
REMARK   18  A    between atoms: C_35  and  O_87
REMARK   19  A    between atoms: C_36  and  C_86
REMARK   20  A    between atoms: C_37  and  C_69
REMARK   21  A    between atoms: C_43  and  C_68
REMARK   22  A    between atoms: C_46  and  O_67
REMARK   23  A    between atoms: C_52  and  O_62
REMARK   24  A    between atoms: C_53  and  C_61
REMARK   25  A    between atoms: C_54  and  O_60
REMARK   26  A    between atoms: C_56  and  O_59
REMARK   27  A    between atoms: C_57  and  C_58
REMARK   28  A    between atoms: O_62  and  C_63
REMARK   29  A    between atoms: C_69  and  C_70
REMARK   30  A    between atoms: C_69  and  C_85
REMARK   31  A    between atoms: C_70  and  O_71
REMARK   32  A    between atoms: C_70  and  C_72
REMARK   33  A    between atoms: C_72  and  C_73
REMARK   34  A    between atoms: C_72  and  C_84
REMARK   35  A    between atoms: C_73  and  C_74
REMARK   36  A    between atoms: C_74  and  C_75
REMARK   37  A    between atoms: C_77  and  C_83
REMARK   38  A    between atoms: C_79  and  O_81
REMARK   39  A    between atoms: O_81  and  C_82
REMARK   40  A    between atoms: O_90  and  C_91
REMARK                            x       y       z     vdW  Elec       q    Type
REMARK                         _______ _______ _______ _____ _____    ______ ____
ROOT
ATOM      1  C   UNL     1     150.888 165.914 190.980  0.00  0.00    +0.113 C 
ATOM      2  O   UNL     1     152.072 165.931 190.140  0.00  0.00    -0.458 OA
ATOM      3  C   UNL     1     151.866 166.197 188.827  0.00  0.00    +0.332 C 
ATOM      4  O   UNL     1     150.805 166.455 188.287  0.00  0.00    -0.246 OA
ATOM      5  C   UNL     1     153.158 166.080 188.115  0.00  0.00    +0.023 C 
ATOM      6  C   UNL     1     153.217 166.393 186.811  0.00  0.00    -0.052 C 
ATOM      7  C   UNL     1     154.381 166.255 185.943  0.00  0.00    -0.054 C 
ATOM      8  C   UNL     1     155.642 166.405 186.393  0.00  0.00    -0.079 C 
ATOM      9  C   UNL     1     156.899 166.350 185.561  0.00  0.00    -0.008 C 
ATOM     10  C   UNL     1     157.826 165.162 185.893  0.00  0.00    +0.061 C 
ATOM     11  C   UNL     1     157.246 163.817 185.428  0.00  0.00    +0.003 C 
ATOM     12  C   UNL     1     158.226 162.629 185.529  0.00  0.00    +0.080 C 
ATOM     13  O   UNL     1     157.503 161.388 185.693  0.00  0.00    -0.369 OA
ATOM     14  C   UNL     1     156.948 160.868 184.469  0.00  0.00    +0.065 C 
ATOM     15  C   UNL     1     156.103 159.640 184.853  0.00  0.00    +0.000 C 
ATOM     16  C   UNL     1     155.511 158.858 183.659  0.00  0.00    +0.066 C 
ATOM     17  C   UNL     1     154.445 157.790 184.082  0.00  0.00    +0.009 C 
ATOM     18  C   UNL     1     153.256 158.368 184.889  0.00  0.00    +0.063 C 
ATOM     19  C   UNL     1     152.169 157.317 185.228  0.00  0.00    -0.000 C 
ATOM     20  C   UNL     1     150.953 158.009 185.864  0.00  0.00    +0.064 C 
ATOM     21  C   UNL     1     150.072 157.075 186.735  0.00  0.00    +0.020 C 
ATOM     22  C   UNL     1     149.104 157.866 187.672  0.00  0.00    +0.113 C 
ATOM     23  O   UNL     1     148.250 158.618 186.765  0.00  0.00    -0.458 OA
ATOM     24  C   UNL     1     146.920 158.690 186.984  0.00  0.00    +0.332 C 
ATOM     25  O   UNL     1     146.319 158.306 187.988  0.00  0.00    -0.246 OA
ATOM     26  C   UNL     1     146.227 159.315 185.837  0.00  0.00    +0.023 C 
ATOM     27  C   UNL     1     146.871 159.868 184.787  0.00  0.00    -0.052 C 
ATOM     28  C   UNL     1     146.282 160.522 183.622  0.00  0.00    -0.054 C 
ATOM     29  C   UNL     1     147.116 161.101 182.733  0.00  0.00    -0.079 C 
ATOM     30  C   UNL     1     146.767 161.900 181.510  0.00  0.00    -0.008 C 
ATOM     31  C   UNL     1     147.511 163.241 181.348  0.00  0.00    +0.061 C 
ATOM     32  C   UNL     1     147.251 164.314 182.426  0.00  0.00    +0.003 C 
ATOM     33  C   UNL     1     148.087 164.356 183.721  0.00  0.00    +0.080 C 
ATOM     34  O   UNL     1     147.731 163.266 184.577  0.00  0.00    -0.369 OA
ATOM     35  C   UNL     1     148.550 163.111 185.741  0.00  0.00    +0.065 C 
ATOM     36  C   UNL     1     148.396 164.254 186.759  0.00  0.00    +0.000 C 
ATOM     37  C   UNL     1     146.997 164.249 187.422  0.00  0.00    +0.066 C 
ATOM     38  C   UNL     1     147.038 164.927 188.821  0.00  0.00    +0.009 C 
ATOM     39  C   UNL     1     147.519 163.960 189.944  0.00  0.00    +0.063 C 
ATOM     40  C   UNL     1     147.969 164.722 191.218  0.00  0.00    -0.000 C 
ATOM     41  C   UNL     1     149.195 164.186 191.970  0.00  0.00    +0.064 C 
ATOM     42  C   UNL     1     150.565 164.418 191.286  0.00  0.00    +0.020 C 
ATOM     43  C   UNL     1     150.011 162.856 185.330  0.00  0.00    -0.008 C 
ATOM     44  C   UNL     1     150.463 163.746 184.212  0.00  0.00    -0.083 C 
ATOM     45  C   UNL     1     149.574 164.435 183.493  0.00  0.00    -0.059 C 
ATOM     46  C   UNL     1     158.070 160.517 183.482  0.00  0.00    -0.008 C 
ATOM     47  C   UNL     1     159.105 161.598 183.412  0.00  0.00    -0.083 C 
ATOM     48  C   UNL     1     159.177 162.542 184.358  0.00  0.00    -0.059 C 
ATOM     49  H   UNL     1     150.038 166.282 190.408  0.00  0.00    +0.074 HD
ATOM     50  H   UNL     1     154.002 165.709 188.677  0.00  0.00    +0.069 HD
ATOM     51  H   UNL     1     152.311 166.738 186.313  0.00  0.00    +0.062 HD
ATOM     52  H   UNL     1     155.812 166.644 187.442  0.00  0.00    +0.058 HD
ATOM     53  H   UNL     1     157.443 167.287 185.737  0.00  0.00    +0.033 HD
ATOM     54  H   UNL     1     156.691 166.356 184.488  0.00  0.00    +0.033 HD
ATOM     55  H   UNL     1     158.001 165.124 186.971  0.00  0.00    +0.060 HD
ATOM     56  H   UNL     1     156.348 163.593 186.016  0.00  0.00    +0.032 HD
ATOM     57  H   UNL     1     156.906 163.904 184.390  0.00  0.00    +0.032 HD
ATOM     58  H   UNL     1     158.819 162.729 186.444  0.00  0.00    +0.064 HD
ATOM     59  H   UNL     1     156.283 161.627 184.039  0.00  0.00    +0.060 HD
ATOM     60  H   UNL     1     156.697 158.960 185.475  0.00  0.00    +0.032 HD
ATOM     61  H   UNL     1     155.302 160.012 185.504  0.00  0.00    +0.032 HD
ATOM     62  H   UNL     1     156.340 158.325 183.171  0.00  0.00    +0.060 HD
ATOM     63  H   UNL     1     154.027 157.376 183.159  0.00  0.00    +0.035 HD
ATOM     64  H   UNL     1     153.619 158.761 185.847  0.00  0.00    +0.060 HD
ATOM     65  H   UNL     1     152.584 156.574 185.922  0.00  0.00    +0.032 HD
ATOM     66  H   UNL     1     151.865 156.799 184.314  0.00  0.00    +0.032 HD
ATOM     67  H   UNL     1     151.338 158.816 186.488  0.00  0.00    +0.060 HD
ATOM     68  H   UNL     1     150.753 156.481 187.353  0.00  0.00    +0.036 HD
ATOM     69  H   UNL     1     148.497 157.148 188.238  0.00  0.00    +0.074 HD
ATOM     70  H   UNL     1     145.147 159.321 185.921  0.00  0.00    +0.069 HD
ATOM     71  H   UNL     1     147.961 159.872 184.803  0.00  0.00    +0.062 HD
ATOM     72  H   UNL     1     148.191 161.040 182.918  0.00  0.00    +0.058 HD
ATOM     73  H   UNL     1     147.006 161.270 180.643  0.00  0.00    +0.033 HD
ATOM     74  H   UNL     1     145.697 162.108 181.460  0.00  0.00    +0.033 HD
ATOM     75  H   UNL     1     147.104 163.665 180.422  0.00  0.00    +0.060 HD
ATOM     76  H   UNL     1     146.189 164.270 182.702  0.00  0.00    +0.032 HD
ATOM     77  H   UNL     1     147.400 165.283 181.940  0.00  0.00    +0.032 HD
ATOM     78  H   UNL     1     147.783 165.276 184.231  0.00  0.00    +0.064 HD
ATOM     79  H   UNL     1     148.208 162.190 186.232  0.00  0.00    +0.060 HD
ATOM     80  H   UNL     1     148.574 165.226 186.287  0.00  0.00    +0.032 HD
ATOM     81  H   UNL     1     149.182 164.137 187.514  0.00  0.00    +0.032 HD
ATOM     82  H   UNL     1     146.630 163.221 187.540  0.00  0.00    +0.060 HD
ATOM     83  H   UNL     1     147.741 165.766 188.750  0.00  0.00    +0.035 HD
ATOM     84  H   UNL     1     146.674 163.314 190.219  0.00  0.00    +0.060 HD
ATOM     85  H   UNL     1     147.114 164.694 191.912  0.00  0.00    +0.032 HD
ATOM     86  H   UNL     1     148.099 165.784 191.001  0.00  0.00    +0.032 HD
ATOM     87  H   UNL     1     149.230 164.644 192.963  0.00  0.00    +0.060 HD
ATOM     88  H   UNL     1     150.554 163.914 190.310  0.00  0.00    +0.036 HD
ATOM     89  H   UNL     1     150.680 162.968 186.190  0.00  0.00    +0.033 HD
ATOM     90  H   UNL     1     150.109 161.824 184.969  0.00  0.00    +0.033 HD
ATOM     91  H   UNL     1     151.522 163.783 183.978  0.00  0.00    +0.057 HD
ATOM     92  H   UNL     1     149.919 165.076 182.681  0.00  0.00    +0.059 HD
ATOM     93  H   UNL     1     158.567 159.587 183.776  0.00  0.00    +0.033 HD
ATOM     94  H   UNL     1     157.648 160.361 182.482  0.00  0.00    +0.033 HD
ATOM     95  H   UNL     1     159.810 161.583 182.591  0.00  0.00    +0.057 HD
ATOM     96  H   UNL     1     159.942 163.310 184.284  0.00  0.00    +0.059 HD
ENDROOT
BRANCH  28  97
ATOM     97  C   UNL     1     144.779 160.522 183.501  0.00  0.00    -0.040 C 
ATOM     98  H   UNL     1     144.348 161.314 184.122  0.00  0.00    +0.028 HD
ATOM     99  H   UNL     1     144.312 159.594 183.841  0.00  0.00    +0.028 HD
ATOM    100  H   UNL     1     144.471 160.680 182.461  0.00  0.00    +0.028 HD
ENDBRANCH  28  97
BRANCH  21 101
ATOM    101  C   UNL     1     149.275 156.069 185.894  0.00  0.00    -0.057 C 
ATOM    102  H   UNL     1     148.968 156.505 184.940  0.00  0.00    +0.023 HD
ATOM    103  H   UNL     1     149.887 155.192 185.674  0.00  0.00    +0.023 HD
ATOM    104  H   UNL     1     148.373 155.717 186.405  0.00  0.00    +0.023 HD
ENDBRANCH  21 101
BRANCH  42 105
ATOM    105  C   UNL     1     151.678 163.678 192.049  0.00  0.00    -0.057 C 
ATOM    106  H   UNL     1     152.198 164.340 192.742  0.00  0.00    +0.023 HD
ATOM    107  H   UNL     1     152.401 163.216 191.372  0.00  0.00    +0.023 HD
ATOM    108  H   UNL     1     151.245 162.878 192.655  0.00  0.00    +0.023 HD
ENDBRANCH  42 105
BRANCH  17 109
ATOM    109  C   UNL     1     155.114 156.628 184.826  0.00  0.00    -0.058 C 
ATOM    110  H   UNL     1     154.533 155.711 184.738  0.00  0.00    +0.023 HD
ATOM    111  H   UNL     1     155.190 156.853 185.895  0.00  0.00    +0.023 HD
ATOM    112  H   UNL     1     156.120 156.436 184.454  0.00  0.00    +0.023 HD
ENDBRANCH  17 109
BRANCH  38 113
ATOM    113  C   UNL     1     145.683 165.527 189.239  0.00  0.00    -0.058 C 
ATOM    114  H   UNL     1     144.994 165.627 188.393  0.00  0.00    +0.023 HD
ATOM    115  H   UNL     1     145.196 164.897 190.000  0.00  0.00    +0.023 HD
ATOM    116  H   UNL     1     145.805 166.526 189.667  0.00  0.00    +0.023 HD
ENDBRANCH  38 113
BRANCH   7 117
ATOM    117  C   UNL     1     154.049 165.970 184.501  0.00  0.00    -0.040 C 
ATOM    118  H   UNL     1     154.672 166.579 183.841  0.00  0.00    +0.028 HD
ATOM    119  H   UNL     1     153.002 166.198 184.281  0.00  0.00    +0.028 HD
ATOM    120  H   UNL     1     154.196 164.914 184.246  0.00  0.00    +0.028 HD
ENDBRANCH   7 117
BRANCH   1 121
ATOM    121  C   UNL     1     151.061 166.893 192.178  0.00  0.00    +0.020 C 
ATOM    122  H   UNL     1     150.735 166.389 193.094  0.00  0.00    +0.036 HD
BRANCH 121 123
ATOM    123  C   UNL     1     152.520 167.325 192.422  0.00  0.00    -0.057 C 
ATOM    124  H   UNL     1     152.960 167.821 191.554  0.00  0.00    +0.023 HD
ATOM    125  H   UNL     1     152.591 168.006 193.275  0.00  0.00    +0.023 HD
ATOM    126  H   UNL     1     153.142 166.469 192.690  0.00  0.00    +0.023 HD
ENDBRANCH 121 123
BRANCH 121 127
ATOM    127  C   UNL     1     150.197 168.191 192.026  0.00  0.00    +0.064 C 
ATOM    128  H   UNL     1     150.279 168.772 192.954  0.00  0.00    +0.060 HD
BRANCH 127 129
ATOM    129  C   UNL     1     148.680 167.965 191.763  0.00  0.00    -0.017 C 
ATOM    130  H   UNL     1     148.500 166.906 191.552  0.00  0.00    +0.032 HD
BRANCH 129 131
ATOM    131  C   UNL     1     147.834 168.365 192.976  0.00  0.00    -0.060 C 
ATOM    132  H   UNL     1     146.979 168.987 192.700  0.00  0.00    +0.023 HD
ATOM    133  H   UNL     1     147.451 167.482 193.501  0.00  0.00    +0.023 HD
ATOM    134  H   UNL     1     148.428 168.948 193.688  0.00  0.00    +0.023 HD
ENDBRANCH 129 131
BRANCH 129 135
ATOM    135  C   UNL     1     148.147 168.753 190.538  0.00  0.00    -0.046 C 
ATOM    136  H   UNL     1     149.010 169.198 190.027  0.00  0.00    +0.027 HD
ATOM    137  H   UNL     1     147.682 168.070 189.817  0.00  0.00    +0.027 HD
BRANCH 135 138
ATOM    138  C   UNL     1     147.156 169.872 190.886  0.00  0.00    -0.026 C 
ATOM    139  H   UNL     1     146.218 169.717 190.347  0.00  0.00    +0.029 HD
ATOM    140  H   UNL     1     146.922 169.819 191.957  0.00  0.00    +0.029 HD
BRANCH 138 143
ATOM    141  C   UNL     1     147.929 172.168 192.749  0.00  0.00    +0.059 C 
ATOM    142  O   UNL     1     148.565 171.797 191.521  0.00  0.00    -0.373 OA
ATOM    143  C   UNL     1     147.689 171.267 190.520  0.00  0.00    +0.061 C 
ATOM    144  C   UNL     1     146.572 172.268 190.214  0.00  0.00    -0.000 C 
ATOM    145  C   UNL     1     145.833 172.696 191.480  0.00  0.00    +0.063 C 
ATOM    146  C   UNL     1     146.842 173.207 192.506  0.00  0.00    -0.000 C 
ATOM    147  H   UNL     1     147.507 171.273 193.218  0.00  0.00    +0.059 HD
ATOM    148  H   UNL     1     148.301 171.158 189.614  0.00  0.00    +0.060 HD
ATOM    149  H   UNL     1     147.014 173.160 189.747  0.00  0.00    +0.032 HD
ATOM    150  H   UNL     1     145.871 171.860 189.477  0.00  0.00    +0.032 HD
ATOM    151  H   UNL     1     145.282 171.839 191.884  0.00  0.00    +0.060 HD
ATOM    152  H   UNL     1     146.344 173.464 193.449  0.00  0.00    +0.032 HD
ATOM    153  H   UNL     1     147.285 174.141 192.128  0.00  0.00    +0.032 HD
BRANCH 141 154
ATOM    154  C   UNL     1     149.010 172.712 193.670  0.00  0.00    -0.039 C 
ATOM    155  H   UNL     1     150.011 172.450 193.314  0.00  0.00    +0.025 HD
ATOM    156  H   UNL     1     148.939 173.804 193.742  0.00  0.00    +0.025 HD
ATOM    157  H   UNL     1     148.886 172.325 194.688  0.00  0.00    +0.025 HD
ENDBRANCH 141 154
BRANCH 145 158
ATOM    158  O   UNL     1     144.892 173.706 191.102  0.00  0.00    -0.380 OA
BRANCH 158 159
ATOM    159  C   UNL     1     143.947 174.006 192.122  0.00  0.00    +0.037 C 
ATOM    160  H   UNL     1     143.922 173.164 192.819  0.00  0.00    +0.052 HD
ATOM    161  H   UNL     1     142.949 174.127 191.699  0.00  0.00    +0.052 HD
ATOM    162  H   UNL     1     144.233 174.902 192.681  0.00  0.00    +0.052 HD
ENDBRANCH 158 159
ENDBRANCH 145 158
ENDBRANCH 138 143
ENDBRANCH 135 138
ENDBRANCH 129 135
ENDBRANCH 127 129
BRANCH 127 163
ATOM    163  O   UNL     1     150.741 169.003 190.989  0.00  0.00    -0.391 OA
ATOM    164  H   UNL     1     150.986 169.861 191.371  0.00  0.00    +0.210 HD
ENDBRANCH 127 163
ENDBRANCH 121 127
ENDBRANCH   1 121
BRANCH  41 165
ATOM    165  O   UNL     1     149.001 162.776 192.170  0.00  0.00    -0.391 OA
ATOM    166  H   UNL     1     148.040 162.613 192.155  0.00  0.00    +0.210 HD
ENDBRANCH  41 165
BRANCH  39 167
ATOM    167  O   UNL     1     148.519 163.078 189.471  0.00  0.00    -0.391 OA
ATOM    168  H   UNL     1     148.550 162.317 190.090  0.00  0.00    +0.210 HD
ENDBRANCH  39 167
BRANCH  31 169
ATOM    169  O   UNL     1     148.899 163.076 181.074  0.00  0.00    -0.391 OA
ATOM    170  H   UNL     1     149.099 163.498 180.219  0.00  0.00    +0.210 HD
ENDBRANCH  31 169
BRANCH  22 171
ATOM    171  C   UNL     1     149.793 158.855 188.668  0.00  0.00    +0.020 C 
ATOM    172  H   UNL     1     150.772 159.099 188.250  0.00  0.00    +0.036 HD
BRANCH 171 173
ATOM    173  C   UNL     1     149.063 160.211 188.703  0.00  0.00    -0.057 C 
ATOM    174  H   UNL     1     148.840 160.563 187.689  0.00  0.00    +0.023 HD
ATOM    175  H   UNL     1     148.107 160.131 189.235  0.00  0.00    +0.023 HD
ATOM    176  H   UNL     1     149.652 160.973 189.222  0.00  0.00    +0.023 HD
ENDBRANCH 171 173
BRANCH 171 177
ATOM    177  C   UNL     1     149.971 158.371 190.150  0.00  0.00    +0.064 C 
ATOM    178  H   UNL     1     149.420 159.051 190.815  0.00  0.00    +0.060 HD
BRANCH 177 179
ATOM    179  O   UNL     1     149.365 157.095 190.344  0.00  0.00    -0.391 OA
ATOM    180  H   UNL     1     149.468 156.589 189.519  0.00  0.00    +0.210 HD
ENDBRANCH 177 179
BRANCH 177 181
ATOM    181  C   UNL     1     151.461 158.327 190.638  0.00  0.00    -0.017 C 
ATOM    182  H   UNL     1     151.477 157.857 191.632  0.00  0.00    +0.032 HD
BRANCH 181 183
ATOM    183  C   UNL     1     152.335 157.497 189.681  0.00  0.00    -0.060 C 
ATOM    184  H   UNL     1     151.746 157.205 188.806  0.00  0.00    +0.023 HD
ATOM    185  H   UNL     1     152.731 156.591 190.145  0.00  0.00    +0.023 HD
ATOM    186  H   UNL     1     153.211 158.057 189.347  0.00  0.00    +0.023 HD
ENDBRANCH 181 183
BRANCH 181 187
ATOM    187  C   UNL     1     152.050 159.761 190.790  0.00  0.00    -0.046 C 
ATOM    188  H   UNL     1     152.653 159.803 191.701  0.00  0.00    +0.027 HD
ATOM    189  H   UNL     1     151.212 160.456 190.914  0.00  0.00    +0.027 HD
BRANCH 187 190
ATOM    190  C   UNL     1     152.923 160.218 189.605  0.00  0.00    -0.026 C 
ATOM    191  H   UNL     1     152.516 159.775 188.691  0.00  0.00    +0.029 HD
ATOM    192  H   UNL     1     153.933 159.812 189.736  0.00  0.00    +0.029 HD
BRANCH 190 193
ATOM    193  C   UNL     1     153.030 161.731 189.314  0.00  0.00    +0.061 C 
ATOM    194  O   UNL     1     152.879 162.051 187.931  0.00  0.00    -0.373 OA
ATOM    195  C   UNL     1     154.056 162.001 187.134  0.00  0.00    +0.059 C 
ATOM    196  C   UNL     1     155.158 162.882 187.706  0.00  0.00    -0.000 C 
ATOM    197  C   UNL     1     155.470 162.471 189.149  0.00  0.00    +0.063 C 
ATOM    198  C   UNL     1     154.186 162.483 189.976  0.00  0.00    -0.000 C 
ATOM    199  H   UNL     1     152.119 162.146 189.766  0.00  0.00    +0.060 HD
ATOM    200  H   UNL     1     154.394 160.963 187.059  0.00  0.00    +0.059 HD
ATOM    201  H   UNL     1     156.058 162.811 187.086  0.00  0.00    +0.032 HD
ATOM    202  H   UNL     1     154.859 163.937 187.702  0.00  0.00    +0.032 HD
ATOM    203  H   UNL     1     155.913 161.473 189.156  0.00  0.00    +0.060 HD
ATOM    204  H   UNL     1     153.884 163.534 190.087  0.00  0.00    +0.032 HD
ATOM    205  H   UNL     1     154.370 162.121 190.994  0.00  0.00    +0.032 HD
BRANCH 195 206
ATOM    206  C   UNL     1     153.679 162.477 185.736  0.00  0.00    -0.039 C 
ATOM    207  H   UNL     1     154.510 163.007 185.267  0.00  0.00    +0.025 HD
ATOM    208  H   UNL     1     153.401 161.634 185.100  0.00  0.00    +0.025 HD
ATOM    209  H   UNL     1     152.816 163.145 185.768  0.00  0.00    +0.025 HD
ENDBRANCH 195 206
BRANCH 197 210
ATOM    210  O   UNL     1     156.391 163.359 189.796  0.00  0.00    -0.380 OA
BRANCH 210 211
ATOM    211  C   UNL     1     157.702 163.332 189.254  0.00  0.00    +0.037 C 
ATOM    212  H   UNL     1     158.196 162.396 189.518  0.00  0.00    +0.052 HD
ATOM    213  H   UNL     1     157.623 163.370 188.164  0.00  0.00    +0.052 HD
ATOM    214  H   UNL     1     158.292 164.186 189.593  0.00  0.00    +0.052 HD
ENDBRANCH 210 211
ENDBRANCH 197 210
ENDBRANCH 190 193
ENDBRANCH 187 190
ENDBRANCH 181 187
ENDBRANCH 177 181
ENDBRANCH 171 177
ENDBRANCH  22 171
BRANCH  20 215
ATOM    215  O   UNL     1     150.228 158.632 184.796  0.00  0.00    -0.391 OA
ATOM    216  H   UNL     1     149.431 158.108 184.610  0.00  0.00    +0.210 HD
ENDBRANCH  20 215
BRANCH  18 217
ATOM    217  O   UNL     1     152.698 159.466 184.174  0.00  0.00    -0.391 OA
ATOM    218  H   UNL     1     152.158 160.021 184.776  0.00  0.00    +0.210 HD
ENDBRANCH  18 217
BRANCH  10 219
ATOM    219  O   UNL     1     159.089 165.412 185.273  0.00  0.00    -0.391 OA
ATOM    220  H   UNL     1     159.649 164.627 185.412  0.00  0.00    +0.210 HD
ENDBRANCH  10 219
BRANCH  37 221
ATOM    221  O   UNL     1     146.122 164.997 186.562  0.00  0.00    -0.379 OA
BRANCH 221 222
ATOM    222  C   UNL     1     144.997 164.238 186.140  0.00  0.00    +0.037 C 
ATOM    223  H   UNL     1     144.329 164.852 185.526  0.00  0.00    +0.052 HD
ATOM    224  H   UNL     1     144.446 163.838 186.996  0.00  0.00    +0.052 HD
ATOM    225  H   UNL     1     145.348 163.397 185.534  0.00  0.00    +0.052 HD
ENDBRANCH 221 222
ENDBRANCH  37 221
BRANCH  16 226
ATOM    226  O   UNL     1     155.017 159.817 182.715  0.00  0.00    -0.379 OA
BRANCH 226 227
ATOM    227  C   UNL     1     154.959 159.357 181.373  0.00  0.00    +0.037 C 
ATOM    228  H   UNL     1     155.777 158.647 181.227  0.00  0.00    +0.052 HD
ATOM    229  H   UNL     1     154.016 158.835 181.175  0.00  0.00    +0.052 HD
ATOM    230  H   UNL     1     155.097 160.178 180.664  0.00  0.00    +0.052 HD
ENDBRANCH 226 227
ENDBRANCH  16 226
TORSDOF 40
ENDMDL
MODEL 4
REMARK VINA RESULT:      -4.9      2.291      4.544
REMARK  Name = Swinholide A_conf2
REMARK  40 active torsions:
REMARK  status: ('A' for Active; 'I' for Inactive)
REMARK    1  A    between atoms: C_1  and  C_2
REMARK    2  A    between atoms: C_4  and  C_10
REMARK    3  A    between atoms: C_6  and  O_8
REMARK    4  A    between atoms: O_8  and  C_9
REMARK    5  A    between atoms: C_10  and  C_11
REMARK    6  A    between atoms: C_11  and  C_12
REMARK    7  A    between atoms: C_12  and  C_13
REMARK    8  A    between atoms: C_12  and  C_98
REMARK    9  A    between atoms: C_13  and  O_14
REMARK   10  A    between atoms: C_13  and  C_15
REMARK   11  A    between atoms: C_15  and  C_16
REMARK   12  A    between atoms: C_15  and  C_97
REMARK   13  A    between atoms: C_22  and  C_96
REMARK   14  A    between atoms: C_25  and  O_95
REMARK   15  A    between atoms: C_31  and  O_90
REMARK   16  A    between atoms: C_32  and  C_89
REMARK   17  A    between atoms: C_33  and  O_88
REMARK   18  A    between atoms: C_35  and  O_87
REMARK   19  A    between atoms: C_36  and  C_86
REMARK   20  A    between atoms: C_37  and  C_69
REMARK   21  A    between atoms: C_43  and  C_68
REMARK   22  A    between atoms: C_46  and  O_67
REMARK   23  A    between atoms: C_52  and  O_62
REMARK   24  A    between atoms: C_53  and  C_61
REMARK   25  A    between atoms: C_54  and  O_60
REMARK   26  A    between atoms: C_56  and  O_59
REMARK   27  A    between atoms: C_57  and  C_58
REMARK   28  A    between atoms: O_62  and  C_63
REMARK   29  A    between atoms: C_69  and  C_70
REMARK   30  A    between atoms: C_69  and  C_85
REMARK   31  A    between atoms: C_70  and  O_71
REMARK   32  A    between atoms: C_70  and  C_72
REMARK   33  A    between atoms: C_72  and  C_73
REMARK   34  A    between atoms: C_72  and  C_84
REMARK   35  A    between atoms: C_73  and  C_74
REMARK   36  A    between atoms: C_74  and  C_75
REMARK   37  A    between atoms: C_77  and  C_83
REMARK   38  A    between atoms: C_79  and  O_81
REMARK   39  A    between atoms: O_81  and  C_82
REMARK   40  A    between atoms: O_90  and  C_91
REMARK                            x       y       z     vdW  Elec       q    Type
REMARK                         _______ _______ _______ _____ _____    ______ ____
ROOT
ATOM      1  C   UNL     1     146.203 167.020 188.405  0.00  0.00    +0.113 C 
ATOM      2  O   UNL     1     147.654 167.007 188.419  0.00  0.00    -0.458 OA
ATOM      3  C   UNL     1     148.258 166.751 187.234  0.00  0.00    +0.332 C 
ATOM      4  O   UNL     1     147.717 166.566 186.159  0.00  0.00    -0.246 OA
ATOM      5  C   UNL     1     149.720 166.684 187.455  0.00  0.00    +0.023 C 
ATOM      6  C   UNL     1     150.535 166.533 186.400  0.00  0.00    -0.052 C 
ATOM      7  C   UNL     1     151.983 166.364 186.446  0.00  0.00    -0.054 C 
ATOM      8  C   UNL     1     152.749 166.936 187.396  0.00  0.00    -0.079 C 
ATOM      9  C   UNL     1     154.253 166.876 187.485  0.00  0.00    -0.008 C 
ATOM     10  C   UNL     1     154.786 166.112 188.716  0.00  0.00    +0.061 C 
ATOM     11  C   UNL     1     154.553 164.597 188.611  0.00  0.00    +0.003 C 
ATOM     12  C   UNL     1     155.262 163.765 189.701  0.00  0.00    +0.080 C 
ATOM     13  O   UNL     1     154.551 162.529 189.939  0.00  0.00    -0.369 OA
ATOM     14  C   UNL     1     154.800 161.510 188.952  0.00  0.00    +0.065 C 
ATOM     15  C   UNL     1     153.861 160.335 189.280  0.00  0.00    +0.000 C 
ATOM     16  C   UNL     1     154.058 159.079 188.402  0.00  0.00    +0.066 C 
ATOM     17  C   UNL     1     152.920 158.015 188.576  0.00  0.00    +0.009 C 
ATOM     18  C   UNL     1     151.498 158.559 188.291  0.00  0.00    +0.063 C 
ATOM     19  C   UNL     1     150.392 157.477 188.384  0.00  0.00    -0.000 C 
ATOM     20  C   UNL     1     149.051 158.058 187.913  0.00  0.00    +0.064 C 
ATOM     21  C   UNL     1     147.805 157.312 188.460  0.00  0.00    +0.020 C 
ATOM     22  C   UNL     1     146.492 158.143 188.303  0.00  0.00    +0.113 C 
ATOM     23  O   UNL     1     146.344 158.327 186.867  0.00  0.00    -0.458 OA
ATOM     24  C   UNL     1     145.138 158.173 186.281  0.00  0.00    +0.332 C 
ATOM     25  O   UNL     1     144.055 158.037 186.852  0.00  0.00    -0.246 OA
ATOM     26  C   UNL     1     145.259 158.195 184.807  0.00  0.00    +0.023 C 
ATOM     27  C   UNL     1     146.406 158.479 184.156  0.00  0.00    -0.052 C 
ATOM     28  C   UNL     1     146.622 158.543 182.713  0.00  0.00    -0.054 C 
ATOM     29  C   UNL     1     147.832 158.949 182.272  0.00  0.00    -0.079 C 
ATOM     30  C   UNL     1     148.280 159.178 180.857  0.00  0.00    -0.008 C 
ATOM     31  C   UNL     1     149.010 160.511 180.592  0.00  0.00    +0.061 C 
ATOM     32  C   UNL     1     148.196 161.804 180.805  0.00  0.00    +0.003 C 
ATOM     33  C   UNL     1     148.121 162.474 182.191  0.00  0.00    +0.080 C 
ATOM     34  O   UNL     1     147.308 161.696 183.075  0.00  0.00    -0.369 OA
ATOM     35  C   UNL     1     147.291 162.138 184.437  0.00  0.00    +0.065 C 
ATOM     36  C   UNL     1     146.599 163.498 184.635  0.00  0.00    +0.000 C 
ATOM     37  C   UNL     1     145.076 163.412 184.369  0.00  0.00    +0.066 C 
ATOM     38  C   UNL     1     144.310 164.522 185.143  0.00  0.00    +0.009 C 
ATOM     39  C   UNL     1     144.024 164.135 186.625  0.00  0.00    +0.063 C 
ATOM     40  C   UNL     1     143.665 165.369 187.493  0.00  0.00    -0.000 C 
ATOM     41  C   UNL     1     144.210 165.411 188.927  0.00  0.00    +0.064 C 
ATOM     42  C   UNL     1     145.727 165.690 189.069  0.00  0.00    +0.020 C 
ATOM     43  C   UNL     1     148.711 162.086 185.027  0.00  0.00    -0.008 C 
ATOM     44  C   UNL     1     149.751 162.612 184.085  0.00  0.00    -0.083 C 
ATOM     45  C   UNL     1     149.464 162.796 182.793  0.00  0.00    -0.059 C 
ATOM     46  C   UNL     1     156.279 161.097 188.975  0.00  0.00    -0.008 C 
ATOM     47  C   UNL     1     157.186 162.288 189.039  0.00  0.00    -0.083 C 
ATOM     48  C   UNL     1     156.715 163.491 189.388  0.00  0.00    -0.059 C 
ATOM     49  H   UNL     1     145.854 166.970 187.375  0.00  0.00    +0.074 HD
ATOM     50  H   UNL     1     150.069 166.726 188.476  0.00  0.00    +0.069 HD
ATOM     51  H   UNL     1     150.099 166.475 185.403  0.00  0.00    +0.062 HD
ATOM     52  H   UNL     1     152.282 167.553 188.162  0.00  0.00    +0.058 HD
ATOM     53  H   UNL     1     154.615 167.911 187.524  0.00  0.00    +0.033 HD
ATOM     54  H   UNL     1     154.710 166.465 186.581  0.00  0.00    +0.033 HD
ATOM     55  H   UNL     1     154.299 166.488 189.619  0.00  0.00    +0.060 HD
ATOM     56  H   UNL     1     153.476 164.397 188.651  0.00  0.00    +0.032 HD
ATOM     57  H   UNL     1     154.884 164.242 187.628  0.00  0.00    +0.032 HD
ATOM     58  H   UNL     1     155.213 164.303 190.653  0.00  0.00    +0.064 HD
ATOM     59  H   UNL     1     154.529 161.907 187.966  0.00  0.00    +0.060 HD
ATOM     60  H   UNL     1     153.965 160.061 190.337  0.00  0.00    +0.032 HD
ATOM     61  H   UNL     1     152.840 160.722 189.175  0.00  0.00    +0.032 HD
ATOM     62  H   UNL     1     155.003 158.608 188.710  0.00  0.00    +0.060 HD
ATOM     63  H   UNL     1     153.109 157.227 187.840  0.00  0.00    +0.035 HD
ATOM     64  H   UNL     1     151.244 159.328 189.031  0.00  0.00    +0.060 HD
ATOM     65  H   UNL     1     150.307 157.130 189.423  0.00  0.00    +0.032 HD
ATOM     66  H   UNL     1     150.665 156.621 187.759  0.00  0.00    +0.032 HD
ATOM     67  H   UNL     1     149.018 159.094 188.249  0.00  0.00    +0.060 HD
ATOM     68  H   UNL     1     147.984 157.134 189.525  0.00  0.00    +0.036 HD
ATOM     69  H   UNL     1     145.651 157.549 188.686  0.00  0.00    +0.074 HD
ATOM     70  H   UNL     1     144.332 157.990 184.284  0.00  0.00    +0.069 HD
ATOM     71  H   UNL     1     147.282 158.729 184.755  0.00  0.00    +0.062 HD
ATOM     72  H   UNL     1     148.595 159.195 183.014  0.00  0.00    +0.058 HD
ATOM     73  H   UNL     1     148.965 158.357 180.607  0.00  0.00    +0.033 HD
ATOM     74  H   UNL     1     147.444 159.114 180.158  0.00  0.00    +0.033 HD
ATOM     75  H   UNL     1     149.229 160.487 179.517  0.00  0.00    +0.060 HD
ATOM     76  H   UNL     1     147.172 161.624 180.452  0.00  0.00    +0.032 HD
ATOM     77  H   UNL     1     148.623 162.553 180.131  0.00  0.00    +0.032 HD
ATOM     78  H   UNL     1     147.598 163.422 182.026  0.00  0.00    +0.064 HD
ATOM     79  H   UNL     1     146.705 161.391 184.990  0.00  0.00    +0.060 HD
ATOM     80  H   UNL     1     147.042 164.261 183.986  0.00  0.00    +0.032 HD
ATOM     81  H   UNL     1     146.795 163.825 185.662  0.00  0.00    +0.032 HD
ATOM     82  H   UNL     1     144.685 162.434 184.679  0.00  0.00    +0.060 HD
ATOM     83  H   UNL     1     144.943 165.419 185.127  0.00  0.00    +0.035 HD
ATOM     84  H   UNL     1     143.162 163.454 186.636  0.00  0.00    +0.060 HD
ATOM     85  H   UNL     1     142.565 165.394 187.553  0.00  0.00    +0.032 HD
ATOM     86  H   UNL     1     143.922 166.292 186.969  0.00  0.00    +0.032 HD
ATOM     87  H   UNL     1     143.670 166.179 189.490  0.00  0.00    +0.060 HD
ATOM     88  H   UNL     1     146.275 164.890 188.551  0.00  0.00    +0.036 HD
ATOM     89  H   UNL     1     148.756 162.633 185.976  0.00  0.00    +0.033 HD
ATOM     90  H   UNL     1     148.977 161.042 185.237  0.00  0.00    +0.033 HD
ATOM     91  H   UNL     1     150.748 162.799 184.469  0.00  0.00    +0.057 HD
ATOM     92  H   UNL     1     150.233 163.176 182.121  0.00  0.00    +0.059 HD
ATOM     93  H   UNL     1     156.489 160.461 189.840  0.00  0.00    +0.033 HD
ATOM     94  H   UNL     1     156.515 160.516 188.076  0.00  0.00    +0.033 HD
ATOM     95  H   UNL     1     158.236 162.147 188.822  0.00  0.00    +0.057 HD
ATOM     96  H   UNL     1     157.398 164.336 189.433  0.00  0.00    +0.059 HD
ENDROOT
BRANCH  28  97
ATOM     97  C   UNL     1     145.472 158.169 181.813  0.00  0.00    -0.040 C 
ATOM     98  H   UNL     1     145.266 157.097 181.885  0.00  0.00    +0.028 HD
ATOM     99  H   UNL     1     145.664 158.361 180.753  0.00  0.00    +0.028 HD
ATOM    100  H   UNL     1     144.567 158.723 182.086  0.00  0.00    +0.028 HD
ENDBRANCH  28  97
BRANCH  21 101
ATOM    101  C   UNL     1     147.624 155.928 187.823  0.00  0.00    -0.057 C 
ATOM    102  H   UNL     1     146.581 155.605 187.867  0.00  0.00    +0.023 HD
ATOM    103  H   UNL     1     147.916 155.955 186.771  0.00  0.00    +0.023 HD
ATOM    104  H   UNL     1     148.231 155.159 188.310  0.00  0.00    +0.023 HD
ENDBRANCH  21 101
BRANCH  42 105
ATOM    105  C   UNL     1     146.169 165.524 190.533  0.00  0.00    -0.057 C 
ATOM    106  H   UNL     1     147.250 165.408 190.615  0.00  0.00    +0.023 HD
ATOM    107  H   UNL     1     145.672 164.679 191.017  0.00  0.00    +0.023 HD
ATOM    108  H   UNL     1     145.912 166.421 191.103  0.00  0.00    +0.023 HD
ENDBRANCH  42 105
BRANCH  17 109
ATOM    109  C   UNL     1     153.003 157.360 189.960  0.00  0.00    -0.058 C 
ATOM    110  H   UNL     1     153.967 157.546 190.431  0.00  0.00    +0.023 HD
ATOM    111  H   UNL     1     152.895 156.274 189.876  0.00  0.00    +0.023 HD
ATOM    112  H   UNL     1     152.219 157.722 190.625  0.00  0.00    +0.023 HD
ENDBRANCH  17 109
BRANCH  38 113
ATOM    113  C   UNL     1     142.980 164.915 184.474  0.00  0.00    -0.058 C 
ATOM    114  H   UNL     1     142.798 164.352 183.551  0.00  0.00    +0.023 HD
ATOM    115  H   UNL     1     142.133 164.733 185.154  0.00  0.00    +0.023 HD
ATOM    116  H   UNL     1     142.967 165.975 184.207  0.00  0.00    +0.023 HD
ENDBRANCH  38 113
BRANCH   7 117
ATOM    117  C   UNL     1     152.547 165.533 185.322  0.00  0.00    -0.040 C 
ATOM    118  H   UNL     1     153.553 165.187 185.575  0.00  0.00    +0.028 HD
ATOM    119  H   UNL     1     152.612 166.109 184.394  0.00  0.00    +0.028 HD
ATOM    120  H   UNL     1     151.921 164.661 185.103  0.00  0.00    +0.028 HD
ENDBRANCH   7 117
BRANCH   1 121
ATOM    121  C   UNL     1     145.668 168.364 188.980  0.00  0.00    +0.020 C 
ATOM    122  H   UNL     1     144.609 168.462 188.720  0.00  0.00    +0.036 HD
BRANCH 121 123
ATOM    123  C   UNL     1     145.744 168.458 190.516  0.00  0.00    -0.057 C 
ATOM    124  H   UNL     1     145.589 169.477 190.880  0.00  0.00    +0.023 HD
ATOM    125  H   UNL     1     144.998 167.812 190.987  0.00  0.00    +0.023 HD
ATOM    126  H   UNL     1     146.706 168.096 190.884  0.00  0.00    +0.023 HD
ENDBRANCH 121 123
BRANCH 121 127
ATOM    127  C   UNL     1     146.411 169.611 188.388  0.00  0.00    +0.064 C 
ATOM    128  H   UNL     1     147.304 169.803 188.995  0.00  0.00    +0.060 HD
BRANCH 127 129
ATOM    129  C   UNL     1     145.590 170.933 188.353  0.00  0.00    -0.017 C 
ATOM    130  H   UNL     1     145.885 171.521 187.479  0.00  0.00    +0.032 HD
BRANCH 129 131
ATOM    131  C   UNL     1     144.085 170.657 188.264  0.00  0.00    -0.060 C 
ATOM    132  H   UNL     1     143.583 170.772 189.228  0.00  0.00    +0.023 HD
ATOM    133  H   UNL     1     143.601 171.333 187.550  0.00  0.00    +0.023 HD
ATOM    134  H   UNL     1     143.898 169.629 187.934  0.00  0.00    +0.023 HD
ENDBRANCH 129 131
BRANCH 129 135
ATOM    135  C   UNL     1     145.830 171.834 189.591  0.00  0.00    -0.046 C 
ATOM    136  H   UNL     1     145.614 172.869 189.298  0.00  0.00    +0.027 HD
ATOM    137  H   UNL     1     145.120 171.586 190.389  0.00  0.00    +0.027 HD
BRANCH 135 138
ATOM    138  C   UNL     1     147.258 171.775 190.151  0.00  0.00    -0.026 C 
ATOM    139  H   UNL     1     147.896 171.195 189.479  0.00  0.00    +0.029 HD
ATOM    140  H   UNL     1     147.670 172.792 190.184  0.00  0.00    +0.029 HD
BRANCH 138 143
ATOM    141  C   UNL     1     147.908 173.076 192.839  0.00  0.00    +0.059 C 
ATOM    142  O   UNL     1     146.959 172.034 192.587  0.00  0.00    -0.373 OA
ATOM    143  C   UNL     1     147.320 171.123 191.543  0.00  0.00    +0.061 C 
ATOM    144  C   UNL     1     148.681 170.491 191.842  0.00  0.00    -0.000 C 
ATOM    145  C   UNL     1     149.752 171.548 192.102  0.00  0.00    +0.063 C 
ATOM    146  C   UNL     1     149.270 172.497 193.196  0.00  0.00    -0.000 C 
ATOM    147  H   UNL     1     147.981 173.714 191.952  0.00  0.00    +0.059 HD
ATOM    148  H   UNL     1     146.566 170.326 191.566  0.00  0.00    +0.060 HD
ATOM    149  H   UNL     1     148.589 169.859 192.736  0.00  0.00    +0.032 HD
ATOM    150  H   UNL     1     148.989 169.821 191.031  0.00  0.00    +0.032 HD
ATOM    151  H   UNL     1     149.945 172.103 191.176  0.00  0.00    +0.060 HD
ATOM    152  H   UNL     1     149.995 173.304 193.361  0.00  0.00    +0.032 HD
ATOM    153  H   UNL     1     149.211 171.941 194.143  0.00  0.00    +0.032 HD
BRANCH 141 154
ATOM    154  C   UNL     1     147.356 173.922 193.976  0.00  0.00    -0.039 C 
ATOM    155  H   UNL     1     146.939 174.865 193.610  0.00  0.00    +0.025 HD
ATOM    156  H   UNL     1     146.570 173.378 194.513  0.00  0.00    +0.025 HD
ATOM    157  H   UNL     1     148.138 174.145 194.711  0.00  0.00    +0.025 HD
ENDBRANCH 141 154
BRANCH 145 158
ATOM    158  O   UNL     1     150.949 170.859 192.477  0.00  0.00    -0.380 OA
BRANCH 158 159
ATOM    159  C   UNL     1     151.688 170.367 191.366  0.00  0.00    +0.037 C 
ATOM    160  H   UNL     1     151.601 169.277 191.357  0.00  0.00    +0.052 HD
ATOM    161  H   UNL     1     152.743 170.623 191.462  0.00  0.00    +0.052 HD
ATOM    162  H   UNL     1     151.290 170.748 190.420  0.00  0.00    +0.052 HD
ENDBRANCH 158 159
ENDBRANCH 145 158
ENDBRANCH 138 143
ENDBRANCH 135 138
ENDBRANCH 129 135
ENDBRANCH 127 129
BRANCH 127 163
ATOM    163  O   UNL     1     146.871 169.306 187.073  0.00  0.00    -0.391 OA
ATOM    164  H   UNL     1     147.284 170.103 186.704  0.00  0.00    +0.210 HD
ENDBRANCH 127 163
ENDBRANCH 121 127
ENDBRANCH   1 121
BRANCH  41 165
ATOM    165  O   UNL     1     143.902 164.151 189.546  0.00  0.00    -0.391 OA
ATOM    166  H   UNL     1     143.513 164.346 190.418  0.00  0.00    +0.210 HD
ENDBRANCH  41 165
BRANCH  39 167
ATOM    167  O   UNL     1     145.091 163.388 187.178  0.00  0.00    -0.391 OA
ATOM    168  H   UNL     1     145.897 163.610 186.664  0.00  0.00    +0.210 HD
ENDBRANCH  39 167
BRANCH  31 169
ATOM    169  O   UNL     1     150.293 160.572 181.206  0.00  0.00    -0.391 OA
ATOM    170  H   UNL     1     150.190 160.397 182.159  0.00  0.00    +0.210 HD
ENDBRANCH  31 169
BRANCH  22 171
ATOM    171  C   UNL     1     146.494 159.541 189.003  0.00  0.00    +0.020 C 
ATOM    172  H   UNL     1     145.612 160.077 188.648  0.00  0.00    +0.036 HD
BRANCH 171 173
ATOM    173  C   UNL     1     146.253 159.405 190.519  0.00  0.00    -0.057 C 
ATOM    174  H   UNL     1     145.842 160.331 190.936  0.00  0.00    +0.023 HD
ATOM    175  H   UNL     1     145.533 158.605 190.734  0.00  0.00    +0.023 HD
ATOM    176  H   UNL     1     147.174 159.154 191.053  0.00  0.00    +0.023 HD
ENDBRANCH 171 173
BRANCH 171 177
ATOM    177  C   UNL     1     147.761 160.442 188.801  0.00  0.00    +0.064 C 
ATOM    178  H   UNL     1     148.574 159.827 188.388  0.00  0.00    +0.060 HD
BRANCH 177 179
ATOM    179  O   UNL     1     147.521 161.444 187.815  0.00  0.00    -0.391 OA
ATOM    180  H   UNL     1     148.060 162.221 188.045  0.00  0.00    +0.210 HD
ENDBRANCH 177 179
BRANCH 177 181
ATOM    181  C   UNL     1     148.291 161.113 190.116  0.00  0.00    -0.017 C 
ATOM    182  H   UNL     1     147.572 160.898 190.919  0.00  0.00    +0.032 HD
BRANCH 181 183
ATOM    183  C   UNL     1     149.665 160.549 190.514  0.00  0.00    -0.060 C 
ATOM    184  H   UNL     1     149.777 160.587 191.602  0.00  0.00    +0.023 HD
ATOM    185  H   UNL     1     150.497 161.099 190.066  0.00  0.00    +0.023 HD
ATOM    186  H   UNL     1     149.790 159.517 190.182  0.00  0.00    +0.023 HD
ENDBRANCH 181 183
BRANCH 181 187
ATOM    187  C   UNL     1     148.373 162.662 189.967  0.00  0.00    -0.046 C 
ATOM    188  H   UNL     1     147.455 163.107 190.359  0.00  0.00    +0.027 HD
ATOM    189  H   UNL     1     148.424 162.894 188.897  0.00  0.00    +0.027 HD
BRANCH 187 190
ATOM    190  C   UNL     1     149.575 163.306 190.686  0.00  0.00    -0.026 C 
ATOM    191  H   UNL     1     150.378 163.438 189.955  0.00  0.00    +0.029 HD
ATOM    192  H   UNL     1     149.944 162.607 191.446  0.00  0.00    +0.029 HD
BRANCH 190 193
ATOM    193  C   UNL     1     149.383 164.693 191.339  0.00  0.00    +0.061 C 
ATOM    194  O   UNL     1     150.379 165.640 190.954  0.00  0.00    -0.373 OA
ATOM    195  C   UNL     1     151.578 165.650 191.720  0.00  0.00    +0.059 C 
ATOM    196  C   UNL     1     151.292 165.838 193.203  0.00  0.00    -0.000 C 
ATOM    197  C   UNL     1     150.344 164.744 193.705  0.00  0.00    +0.063 C 
ATOM    198  C   UNL     1     149.087 164.716 192.839  0.00  0.00    -0.000 C 
ATOM    199  H   UNL     1     148.473 165.080 190.859  0.00  0.00    +0.060 HD
ATOM    200  H   UNL     1     152.119 164.714 191.549  0.00  0.00    +0.059 HD
ATOM    201  H   UNL     1     152.228 165.823 193.772  0.00  0.00    +0.032 HD
ATOM    202  H   UNL     1     150.829 166.813 193.393  0.00  0.00    +0.032 HD
ATOM    203  H   UNL     1     150.850 163.777 193.665  0.00  0.00    +0.060 HD
ATOM    204  H   UNL     1     148.526 165.636 193.057  0.00  0.00    +0.032 HD
ATOM    205  H   UNL     1     148.425 163.893 193.131  0.00  0.00    +0.032 HD
BRANCH 195 206
ATOM    206  C   UNL     1     152.438 166.796 191.203  0.00  0.00    -0.039 C 
ATOM    207  H   UNL     1     152.887 167.350 192.028  0.00  0.00    +0.025 HD
ATOM    208  H   UNL     1     153.238 166.422 190.560  0.00  0.00    +0.025 HD
ATOM    209  H   UNL     1     151.849 167.489 190.599  0.00  0.00    +0.025 HD
ENDBRANCH 195 206
BRANCH 197 210
ATOM    210  O   UNL     1     149.916 164.953 195.057  0.00  0.00    -0.380 OA
BRANCH 210 211
ATOM    211  C   UNL     1     150.845 165.668 195.857  0.00  0.00    +0.037 C 
ATOM    212  H   UNL     1     151.358 166.418 195.254  0.00  0.00    +0.052 HD
ATOM    213  H   UNL     1     150.290 166.193 196.639  0.00  0.00    +0.052 HD
ATOM    214  H   UNL     1     151.565 164.996 196.327  0.00  0.00    +0.052 HD
ENDBRANCH 210 211
ENDBRANCH 197 210
ENDBRANCH 190 193
ENDBRANCH 187 190
ENDBRANCH 181 187
ENDBRANCH 177 181
ENDBRANCH 171 177
ENDBRANCH  22 171
BRANCH  20 215
ATOM    215  O   UNL     1     149.099 158.097 186.480  0.00  0.00    -0.391 OA
ATOM    216  H   UNL     1     148.777 158.964 186.179  0.00  0.00    +0.210 HD
ENDBRANCH  20 215
BRANCH  18 217
ATOM    217  O   UNL     1     151.488 159.190 187.015  0.00  0.00    -0.391 OA
ATOM    218  H   UNL     1     151.688 158.533 186.313  0.00  0.00    +0.210 HD
ENDBRANCH  18 217
BRANCH  10 219
ATOM    219  O   UNL     1     156.179 166.405 188.839  0.00  0.00    -0.391 OA
ATOM    220  H   UNL     1     156.264 167.239 189.335  0.00  0.00    +0.210 HD
ENDBRANCH  10 219
BRANCH  37 221
ATOM    221  O   UNL     1     144.885 163.604 182.959  0.00  0.00    -0.379 OA
BRANCH 221 222
ATOM    222  C   UNL     1     144.201 162.517 182.350  0.00  0.00    +0.037 C 
ATOM    223  H   UNL     1     143.334 162.224 182.952  0.00  0.00    +0.052 HD
ATOM    224  H   UNL     1     144.865 161.657 182.218  0.00  0.00    +0.052 HD
ATOM    225  H   UNL     1     143.847 162.833 181.363  0.00  0.00    +0.052 HD
ENDBRANCH 221 222
ENDBRANCH  37 221
BRANCH  16 226
ATOM    226  O   UNL     1     154.229 159.518 187.049  0.00  0.00    -0.379 OA
BRANCH 226 227
ATOM    227  C   UNL     1     154.948 158.620 186.217  0.00  0.00    +0.037 C 
ATOM    228  H   UNL     1     154.598 158.761 185.192  0.00  0.00    +0.052 HD
ATOM    229  H   UNL     1     156.023 158.834 186.242  0.00  0.00    +0.052 HD
ATOM    230  H   UNL     1     154.759 157.580 186.497  0.00  0.00    +0.052 HD
ENDBRANCH 226 227
ENDBRANCH  16 226
TORSDOF 40
ENDMDL
MODEL 5
REMARK VINA RESULT:      -4.9      2.619     10.637
REMARK  Name = Swinholide A_conf2
REMARK  40 active torsions:
REMARK  status: ('A' for Active; 'I' for Inactive)
REMARK    1  A    between atoms: C_1  and  C_2
REMARK    2  A    between atoms: C_4  and  C_10
REMARK    3  A    between atoms: C_6  and  O_8
REMARK    4  A    between atoms: O_8  and  C_9
REMARK    5  A    between atoms: C_10  and  C_11
REMARK    6  A    between atoms: C_11  and  C_12
REMARK    7  A    between atoms: C_12  and  C_13
REMARK    8  A    between atoms: C_12  and  C_98
REMARK    9  A    between atoms: C_13  and  O_14
REMARK   10  A    between atoms: C_13  and  C_15
REMARK   11  A    between atoms: C_15  and  C_16
REMARK   12  A    between atoms: C_15  and  C_97
REMARK   13  A    between atoms: C_22  and  C_96
REMARK   14  A    between atoms: C_25  and  O_95
REMARK   15  A    between atoms: C_31  and  O_90
REMARK   16  A    between atoms: C_32  and  C_89
REMARK   17  A    between atoms: C_33  and  O_88
REMARK   18  A    between atoms: C_35  and  O_87
REMARK   19  A    between atoms: C_36  and  C_86
REMARK   20  A    between atoms: C_37  and  C_69
REMARK   21  A    between atoms: C_43  and  C_68
REMARK   22  A    between atoms: C_46  and  O_67
REMARK   23  A    between atoms: C_52  and  O_62
REMARK   24  A    between atoms: C_53  and  C_61
REMARK   25  A    between atoms: C_54  and  O_60
REMARK   26  A    between atoms: C_56  and  O_59
REMARK   27  A    between atoms: C_57  and  C_58
REMARK   28  A    between atoms: O_62  and  C_63
REMARK   29  A    between atoms: C_69  and  C_70
REMARK   30  A    between atoms: C_69  and  C_85
REMARK   31  A    between atoms: C_70  and  O_71
REMARK   32  A    between atoms: C_70  and  C_72
REMARK   33  A    between atoms: C_72  and  C_73
REMARK   34  A    between atoms: C_72  and  C_84
REMARK   35  A    between atoms: C_73  and  C_74
REMARK   36  A    between atoms: C_74  and  C_75
REMARK   37  A    between atoms: C_77  and  C_83
REMARK   38  A    between atoms: C_79  and  O_81
REMARK   39  A    between atoms: O_81  and  C_82
REMARK   40  A    between atoms: O_90  and  C_91
REMARK                            x       y       z     vdW  Elec       q    Type
REMARK                         _______ _______ _______ _____ _____    ______ ____
ROOT
ATOM      1  C   UNL     1     154.938 163.226 188.566  0.00  0.00    +0.113 C 
ATOM      2  O   UNL     1     154.003 164.130 189.211  0.00  0.00    -0.458 OA
ATOM      3  C   UNL     1     153.060 163.552 189.993  0.00  0.00    +0.332 C 
ATOM      4  O   UNL     1     152.935 162.366 190.238  0.00  0.00    -0.246 OA
ATOM      5  C   UNL     1     152.146 164.607 190.486  0.00  0.00    +0.023 C 
ATOM      6  C   UNL     1     151.182 164.281 191.361  0.00  0.00    -0.052 C 
ATOM      7  C   UNL     1     150.151 165.172 191.880  0.00  0.00    -0.054 C 
ATOM      8  C   UNL     1     150.361 166.489 192.071  0.00  0.00    -0.079 C 
ATOM      9  C   UNL     1     149.384 167.473 192.664  0.00  0.00    -0.008 C 
ATOM     10  C   UNL     1     148.900 168.558 191.680  0.00  0.00    +0.061 C 
ATOM     11  C   UNL     1     147.958 167.997 190.604  0.00  0.00    +0.003 C 
ATOM     12  C   UNL     1     147.269 169.071 189.735  0.00  0.00    +0.080 C 
ATOM     13  O   UNL     1     146.938 168.535 188.434  0.00  0.00    -0.369 OA
ATOM     14  C   UNL     1     145.752 167.717 188.422  0.00  0.00    +0.065 C 
ATOM     15  C   UNL     1     145.638 167.122 187.007  0.00  0.00    +0.000 C 
ATOM     16  C   UNL     1     144.356 166.301 186.747  0.00  0.00    +0.066 C 
ATOM     17  C   UNL     1     144.397 165.492 185.405  0.00  0.00    +0.009 C 
ATOM     18  C   UNL     1     145.598 164.520 185.291  0.00  0.00    +0.063 C 
ATOM     19  C   UNL     1     145.580 163.665 183.998  0.00  0.00    -0.000 C 
ATOM     20  C   UNL     1     146.697 162.611 184.053  0.00  0.00    +0.064 C 
ATOM     21  C   UNL     1     147.148 162.088 182.664  0.00  0.00    +0.020 C 
ATOM     22  C   UNL     1     148.520 161.343 182.721  0.00  0.00    +0.113 C 
ATOM     23  O   UNL     1     148.287 160.211 183.604  0.00  0.00    -0.458 OA
ATOM     24  C   UNL     1     148.766 158.989 183.287  0.00  0.00    +0.332 C 
ATOM     25  O   UNL     1     149.547 158.721 182.373  0.00  0.00    -0.246 OA
ATOM     26  C   UNL     1     148.235 157.957 184.204  0.00  0.00    +0.023 C 
ATOM     27  C   UNL     1     147.491 158.239 185.293  0.00  0.00    -0.052 C 
ATOM     28  C   UNL     1     146.937 157.299 186.264  0.00  0.00    -0.054 C 
ATOM     29  C   UNL     1     146.306 157.804 187.345  0.00  0.00    -0.079 C 
ATOM     30  C   UNL     1     145.728 157.065 188.518  0.00  0.00    -0.008 C 
ATOM     31  C   UNL     1     146.106 157.614 189.909  0.00  0.00    +0.061 C 
ATOM     32  C   UNL     1     147.599 157.560 190.295  0.00  0.00    +0.003 C 
ATOM     33  C   UNL     1     148.556 158.709 189.920  0.00  0.00    +0.080 C 
ATOM     34  O   UNL     1     148.816 158.700 188.513  0.00  0.00    -0.369 OA
ATOM     35  C   UNL     1     149.568 159.814 188.023  0.00  0.00    +0.065 C 
ATOM     36  C   UNL     1     151.025 159.841 188.519  0.00  0.00    +0.000 C 
ATOM     37  C   UNL     1     151.856 158.681 187.919  0.00  0.00    +0.066 C 
ATOM     38  C   UNL     1     153.369 159.039 187.880  0.00  0.00    +0.009 C 
ATOM     39  C   UNL     1     153.753 159.893 186.635  0.00  0.00    +0.063 C 
ATOM     40  C   UNL     1     155.122 160.602 186.812  0.00  0.00    -0.000 C 
ATOM     41  C   UNL     1     155.258 162.029 186.264  0.00  0.00    +0.064 C 
ATOM     42  C   UNL     1     154.525 163.135 187.064  0.00  0.00    +0.020 C 
ATOM     43  C   UNL     1     148.810 161.125 188.295  0.00  0.00    -0.008 C 
ATOM     44  C   UNL     1     148.211 161.175 189.668  0.00  0.00    -0.083 C 
ATOM     45  C   UNL     1     148.112 160.065 190.404  0.00  0.00    -0.059 C 
ATOM     46  C   UNL     1     144.523 168.555 188.802  0.00  0.00    -0.008 C 
ATOM     47  C   UNL     1     144.794 169.430 189.987  0.00  0.00    -0.083 C 
ATOM     48  C   UNL     1     146.046 169.672 190.391  0.00  0.00    -0.059 C 
ATOM     49  H   UNL     1     154.799 162.223 188.966  0.00  0.00    +0.074 HD
ATOM     50  H   UNL     1     152.277 165.602 190.087  0.00  0.00    +0.069 HD
ATOM     51  H   UNL     1     151.105 163.247 191.695  0.00  0.00    +0.062 HD
ATOM     52  H   UNL     1     151.336 166.916 191.837  0.00  0.00    +0.058 HD
ATOM     53  H   UNL     1     149.887 167.957 193.511  0.00  0.00    +0.033 HD
ATOM     54  H   UNL     1     148.516 166.981 193.113  0.00  0.00    +0.033 HD
ATOM     55  H   UNL     1     149.763 169.023 191.195  0.00  0.00    +0.060 HD
ATOM     56  H   UNL     1     148.521 167.317 189.955  0.00  0.00    +0.032 HD
ATOM     57  H   UNL     1     147.185 167.381 191.079  0.00  0.00    +0.032 HD
ATOM     58  H   UNL     1     147.979 169.879 189.532  0.00  0.00    +0.064 HD
ATOM     59  H   UNL     1     145.889 166.894 189.135  0.00  0.00    +0.060 HD
ATOM     60  H   UNL     1     145.716 167.922 186.261  0.00  0.00    +0.032 HD
ATOM     61  H   UNL     1     146.529 166.499 186.865  0.00  0.00    +0.032 HD
ATOM     62  H   UNL     1     143.518 167.011 186.681  0.00  0.00    +0.060 HD
ATOM     63  H   UNL     1     143.491 164.877 185.378  0.00  0.00    +0.035 HD
ATOM     64  H   UNL     1     146.533 165.092 185.273  0.00  0.00    +0.060 HD
ATOM     65  H   UNL     1     145.723 164.318 183.127  0.00  0.00    +0.032 HD
ATOM     66  H   UNL     1     144.609 163.172 183.900  0.00  0.00    +0.032 HD
ATOM     67  H   UNL     1     147.548 163.076 184.550  0.00  0.00    +0.060 HD
ATOM     68  H   UNL     1     147.248 162.961 182.013  0.00  0.00    +0.036 HD
ATOM     69  H   UNL     1     148.767 160.981 181.715  0.00  0.00    +0.074 HD
ATOM     70  H   UNL     1     148.519 156.945 183.943  0.00  0.00    +0.069 HD
ATOM     71  H   UNL     1     147.295 159.288 185.519  0.00  0.00    +0.062 HD
ATOM     72  H   UNL     1     146.224 158.890 187.433  0.00  0.00    +0.058 HD
ATOM     73  H   UNL     1     144.636 157.116 188.415  0.00  0.00    +0.033 HD
ATOM     74  H   UNL     1     145.997 156.007 188.495  0.00  0.00    +0.033 HD
ATOM     75  H   UNL     1     145.608 156.933 190.610  0.00  0.00    +0.060 HD
ATOM     76  H   UNL     1     148.018 156.622 189.909  0.00  0.00    +0.032 HD
ATOM     77  H   UNL     1     147.634 157.484 191.386  0.00  0.00    +0.032 HD
ATOM     78  H   UNL     1     149.501 158.474 190.421  0.00  0.00    +0.064 HD
ATOM     79  H   UNL     1     149.598 159.704 186.931  0.00  0.00    +0.060 HD
ATOM     80  H   UNL     1     151.067 159.795 189.612  0.00  0.00    +0.032 HD
ATOM     81  H   UNL     1     151.454 160.810 188.240  0.00  0.00    +0.032 HD
ATOM     82  H   UNL     1     151.523 158.454 186.899  0.00  0.00    +0.060 HD
ATOM     83  H   UNL     1     153.585 159.618 188.787  0.00  0.00    +0.035 HD
ATOM     84  H   UNL     1     153.834 159.216 185.773  0.00  0.00    +0.060 HD
ATOM     85  H   UNL     1     155.864 159.974 186.294  0.00  0.00    +0.032 HD
ATOM     86  H   UNL     1     155.435 160.572 187.858  0.00  0.00    +0.032 HD
ATOM     87  H   UNL     1     156.319 162.292 186.218  0.00  0.00    +0.060 HD
ATOM     88  H   UNL     1     153.451 162.904 187.068  0.00  0.00    +0.036 HD
ATOM     89  H   UNL     1     149.465 161.991 188.143  0.00  0.00    +0.033 HD
ATOM     90  H   UNL     1     147.977 161.214 187.586  0.00  0.00    +0.033 HD
ATOM     91  H   UNL     1     147.824 162.122 190.029  0.00  0.00    +0.057 HD
ATOM     92  H   UNL     1     147.670 160.118 191.400  0.00  0.00    +0.059 HD
ATOM     93  H   UNL     1     144.219 169.196 187.968  0.00  0.00    +0.033 HD
ATOM     94  H   UNL     1     143.680 167.894 189.031  0.00  0.00    +0.033 HD
ATOM     95  H   UNL     1     143.953 169.884 190.495  0.00  0.00    +0.057 HD
ATOM     96  H   UNL     1     146.213 170.316 191.251  0.00  0.00    +0.059 HD
ENDROOT
BRANCH  28  97
ATOM     97  C   UNL     1     147.128 155.826 186.004  0.00  0.00    -0.040 C 
ATOM     98  H   UNL     1     148.061 155.654 185.459  0.00  0.00    +0.028 HD
ATOM     99  H   UNL     1     146.340 155.385 185.386  0.00  0.00    +0.028 HD
ATOM    100  H   UNL     1     147.158 155.264 186.944  0.00  0.00    +0.028 HD
ENDBRANCH  28  97
BRANCH  21 101
ATOM    101  C   UNL     1     146.095 161.186 182.006  0.00  0.00    -0.057 C 
ATOM    102  H   UNL     1     145.617 160.534 182.742  0.00  0.00    +0.023 HD
ATOM    103  H   UNL     1     145.313 161.792 181.545  0.00  0.00    +0.023 HD
ATOM    104  H   UNL     1     146.518 160.550 181.223  0.00  0.00    +0.023 HD
ENDBRANCH  21 101
BRANCH  42 105
ATOM    105  C   UNL     1     154.592 164.475 186.311  0.00  0.00    -0.057 C 
ATOM    106  H   UNL     1     154.992 165.270 186.942  0.00  0.00    +0.023 HD
ATOM    107  H   UNL     1     153.617 164.774 185.919  0.00  0.00    +0.023 HD
ATOM    108  H   UNL     1     155.271 164.389 185.459  0.00  0.00    +0.023 HD
ENDBRANCH  42 105
BRANCH  17 109
ATOM    109  C   UNL     1     144.327 166.440 184.203  0.00  0.00    -0.058 C 
ATOM    110  H   UNL     1     144.029 167.443 184.504  0.00  0.00    +0.023 HD
ATOM    111  H   UNL     1     143.581 166.090 183.483  0.00  0.00    +0.023 HD
ATOM    112  H   UNL     1     145.284 166.506 183.684  0.00  0.00    +0.023 HD
ENDBRANCH  17 109
BRANCH  38 113
ATOM    113  C   UNL     1     154.283 157.801 187.926  0.00  0.00    -0.058 C 
ATOM    114  H   UNL     1     154.793 157.626 186.972  0.00  0.00    +0.023 HD
ATOM    115  H   UNL     1     155.053 157.913 188.706  0.00  0.00    +0.023 HD
ATOM    116  H   UNL     1     153.714 156.895 188.152  0.00  0.00    +0.023 HD
ENDBRANCH  38 113
BRANCH   7 117
ATOM    117  C   UNL     1     148.852 164.488 192.217  0.00  0.00    -0.040 C 
ATOM    118  H   UNL     1     148.322 165.042 192.997  0.00  0.00    +0.028 HD
ATOM    119  H   UNL     1     149.020 163.470 192.582  0.00  0.00    +0.028 HD
ATOM    120  H   UNL     1     148.195 164.399 191.344  0.00  0.00    +0.028 HD
ENDBRANCH   7 117
BRANCH   1 121
ATOM    121  C   UNL     1     156.402 163.630 188.907  0.00  0.00    +0.020 C 
ATOM    122  H   UNL     1     157.027 163.465 188.023  0.00  0.00    +0.036 HD
BRANCH 121 123
ATOM    123  C   UNL     1     156.568 165.115 189.278  0.00  0.00    -0.057 C 
ATOM    124  H   UNL     1     156.204 165.338 190.285  0.00  0.00    +0.023 HD
ATOM    125  H   UNL     1     157.616 165.422 189.221  0.00  0.00    +0.023 HD
ATOM    126  H   UNL     1     156.045 165.758 188.566  0.00  0.00    +0.023 HD
ENDBRANCH 121 123
BRANCH 121 127
ATOM    127  C   UNL     1     157.008 162.775 190.072  0.00  0.00    +0.064 C 
ATOM    128  H   UNL     1     157.313 163.455 190.878  0.00  0.00    +0.060 HD
BRANCH 127 129
ATOM    129  C   UNL     1     158.253 161.917 189.704  0.00  0.00    -0.017 C 
ATOM    130  H   UNL     1     158.125 160.903 190.097  0.00  0.00    +0.032 HD
BRANCH 129 131
ATOM    131  C   UNL     1     158.444 161.826 188.187  0.00  0.00    -0.060 C 
ATOM    132  H   UNL     1     157.909 162.615 187.652  0.00  0.00    +0.023 HD
ATOM    133  H   UNL     1     159.504 161.895 187.916  0.00  0.00    +0.023 HD
ATOM    134  H   UNL     1     158.060 160.873 187.804  0.00  0.00    +0.023 HD
ENDBRANCH 129 131
BRANCH 129 135
ATOM    135  C   UNL     1     159.572 162.459 190.312  0.00  0.00    -0.046 C 
ATOM    136  H   UNL     1     160.391 161.822 189.956  0.00  0.00    +0.027 HD
ATOM    137  H   UNL     1     159.780 163.468 189.936  0.00  0.00    +0.027 HD
BRANCH 135 138
ATOM    138  C   UNL     1     159.602 162.478 191.847  0.00  0.00    -0.026 C 
ATOM    139  H   UNL     1     160.030 163.421 192.198  0.00  0.00    +0.029 HD
ATOM    140  H   UNL     1     158.573 162.434 192.224  0.00  0.00    +0.029 HD
BRANCH 138 143
ATOM    141  C   UNL     1     158.673 159.717 192.769  0.00  0.00    +0.059 C 
ATOM    142  O   UNL     1     159.903 160.043 192.112  0.00  0.00    -0.373 OA
ATOM    143  C   UNL     1     160.440 161.330 192.435  0.00  0.00    +0.061 C 
ATOM    144  C   UNL     1     160.639 161.454 193.946  0.00  0.00    -0.000 C 
ATOM    145  C   UNL     1     159.358 161.139 194.715  0.00  0.00    +0.063 C 
ATOM    146  C   UNL     1     158.832 159.772 194.282  0.00  0.00    -0.000 C 
ATOM    147  H   UNL     1     157.895 160.413 192.438  0.00  0.00    +0.059 HD
ATOM    148  H   UNL     1     161.429 161.369 191.960  0.00  0.00    +0.060 HD
ATOM    149  H   UNL     1     161.419 160.746 194.261  0.00  0.00    +0.032 HD
ATOM    150  H   UNL     1     161.013 162.449 194.212  0.00  0.00    +0.032 HD
ATOM    151  H   UNL     1     158.611 161.915 194.508  0.00  0.00    +0.060 HD
ATOM    152  H   UNL     1     157.878 159.547 194.774  0.00  0.00    +0.032 HD
ATOM    153  H   UNL     1     159.541 159.001 194.619  0.00  0.00    +0.032 HD
BRANCH 141 154
ATOM    154  C   UNL     1     158.274 158.322 192.311  0.00  0.00    -0.039 C 
ATOM    155  H   UNL     1     157.942 158.321 191.268  0.00  0.00    +0.025 HD
ATOM    156  H   UNL     1     159.118 157.630 192.409  0.00  0.00    +0.025 HD
ATOM    157  H   UNL     1     157.468 157.921 192.937  0.00  0.00    +0.025 HD
ENDBRANCH 141 154
BRANCH 145 158
ATOM    158  O   UNL     1     159.677 161.175 196.109  0.00  0.00    -0.380 OA
BRANCH 158 159
ATOM    159  C   UNL     1     158.535 161.087 196.952  0.00  0.00    +0.037 C 
ATOM    160  H   UNL     1     157.648 161.043 196.316  0.00  0.00    +0.052 HD
ATOM    161  H   UNL     1     158.456 161.970 197.587  0.00  0.00    +0.052 HD
ATOM    162  H   UNL     1     158.560 160.181 197.566  0.00  0.00    +0.052 HD
ENDBRANCH 158 159
ENDBRANCH 145 158
ENDBRANCH 138 143
ENDBRANCH 135 138
ENDBRANCH 129 135
ENDBRANCH 127 129
BRANCH 127 163
ATOM    163  O   UNL     1     155.995 161.931 190.615  0.00  0.00    -0.391 OA
ATOM    164  H   UNL     1     156.294 161.618 191.484  0.00  0.00    +0.210 HD
ENDBRANCH 127 163
ENDBRANCH 121 127
ENDBRANCH   1 121
BRANCH  41 165
ATOM    165  O   UNL     1     154.772 162.024 184.912  0.00  0.00    -0.391 OA
ATOM    166  H   UNL     1     153.939 161.519 184.907  0.00  0.00    +0.210 HD
ENDBRANCH  41 165
BRANCH  39 167
ATOM    167  O   UNL     1     152.724 160.802 186.296  0.00  0.00    -0.391 OA
ATOM    168  H   UNL     1     152.331 160.494 185.451  0.00  0.00    +0.210 HD
ENDBRANCH  39 167
BRANCH  31 169
ATOM    169  O   UNL     1     145.522 158.884 190.182  0.00  0.00    -0.391 OA
ATOM    170  H   UNL     1     146.233 159.510 190.408  0.00  0.00    +0.210 HD
ENDBRANCH  31 169
BRANCH  22 171
ATOM    171  C   UNL     1     149.718 162.185 183.270  0.00  0.00    +0.020 C 
ATOM    172  H   UNL     1     149.292 163.001 183.858  0.00  0.00    +0.036 HD
BRANCH 171 173
ATOM    173  C   UNL     1     150.538 161.383 184.299  0.00  0.00    -0.057 C 
ATOM    174  H   UNL     1     149.957 161.207 185.212  0.00  0.00    +0.023 HD
ATOM    175  H   UNL     1     150.821 160.402 183.899  0.00  0.00    +0.023 HD
ATOM    176  H   UNL     1     151.467 161.898 184.563  0.00  0.00    +0.023 HD
ENDBRANCH 171 173
BRANCH 171 177
ATOM    177  C   UNL     1     150.720 162.777 182.219  0.00  0.00    +0.064 C 
ATOM    178  H   UNL     1     151.728 162.390 182.430  0.00  0.00    +0.060 HD
BRANCH 177 179
ATOM    179  O   UNL     1     150.415 162.309 180.906  0.00  0.00    -0.391 OA
ATOM    180  H   UNL     1     150.646 163.016 180.278  0.00  0.00    +0.210 HD
ENDBRANCH 177 179
BRANCH 177 181
ATOM    181  C   UNL     1     150.800 164.343 182.214  0.00  0.00    -0.017 C 
ATOM    182  H   UNL     1     151.429 164.647 181.366  0.00  0.00    +0.032 HD
BRANCH 181 183
ATOM    183  C   UNL     1     149.404 164.970 182.048  0.00  0.00    -0.060 C 
ATOM    184  H   UNL     1     149.251 165.734 182.817  0.00  0.00    +0.023 HD
ATOM    185  H   UNL     1     148.597 164.238 182.129  0.00  0.00    +0.023 HD
ATOM    186  H   UNL     1     149.281 165.428 181.065  0.00  0.00    +0.023 HD
ENDBRANCH 181 183
BRANCH 181 187
ATOM    187  C   UNL     1     151.474 164.880 183.512  0.00  0.00    -0.046 C 
ATOM    188  H   UNL     1     152.027 165.793 183.274  0.00  0.00    +0.027 HD
ATOM    189  H   UNL     1     152.200 164.130 183.847  0.00  0.00    +0.027 HD
BRANCH 187 190
ATOM    190  C   UNL     1     150.491 165.188 184.658  0.00  0.00    -0.026 C 
ATOM    191  H   UNL     1     149.587 164.592 184.501  0.00  0.00    +0.029 HD
ATOM    192  H   UNL     1     150.196 166.242 184.593  0.00  0.00    +0.029 HD
BRANCH 190 193
ATOM    193  C   UNL     1     150.934 164.885 186.106  0.00  0.00    +0.061 C 
ATOM    194  O   UNL     1     149.856 164.490 186.955  0.00  0.00    -0.373 OA
ATOM    195  C   UNL     1     149.132 165.536 187.591  0.00  0.00    +0.059 C 
ATOM    196  C   UNL     1     150.051 166.450 188.387  0.00  0.00    -0.000 C 
ATOM    197  C   UNL     1     151.141 167.029 187.479  0.00  0.00    +0.063 C 
ATOM    198  C   UNL     1     151.874 165.894 186.768  0.00  0.00    -0.000 C 
ATOM    199  H   UNL     1     151.523 163.962 186.008  0.00  0.00    +0.060 HD
ATOM    200  H   UNL     1     148.586 166.106 186.832  0.00  0.00    +0.059 HD
ATOM    201  H   UNL     1     149.473 167.256 188.851  0.00  0.00    +0.032 HD
ATOM    202  H   UNL     1     150.535 165.904 189.206  0.00  0.00    +0.032 HD
ATOM    203  H   UNL     1     150.687 167.701 186.747  0.00  0.00    +0.060 HD
ATOM    204  H   UNL     1     152.458 165.360 187.530  0.00  0.00    +0.032 HD
ATOM    205  H   UNL     1     152.610 166.285 186.055  0.00  0.00    +0.032 HD
BRANCH 195 206
ATOM    206  C   UNL     1     148.112 164.884 188.517  0.00  0.00    -0.039 C 
ATOM    207  H   UNL     1     148.591 164.161 189.178  0.00  0.00    +0.025 HD
ATOM    208  H   UNL     1     147.608 165.635 189.129  0.00  0.00    +0.025 HD
ATOM    209  H   UNL     1     147.335 164.371 187.947  0.00  0.00    +0.025 HD
ENDBRANCH 195 206
BRANCH 197 210
ATOM    210  O   UNL     1     152.129 167.777 188.199  0.00  0.00    -0.380 OA
BRANCH 210 211
ATOM    211  C   UNL     1     153.459 167.321 188.004  0.00  0.00    +0.037 C 
ATOM    212  H   UNL     1     153.478 166.536 187.248  0.00  0.00    +0.052 HD
ATOM    213  H   UNL     1     154.056 168.157 187.629  0.00  0.00    +0.052 HD
ATOM    214  H   UNL     1     153.900 166.967 188.937  0.00  0.00    +0.052 HD
ENDBRANCH 210 211
ENDBRANCH 197 210
ENDBRANCH 190 193
ENDBRANCH 187 190
ENDBRANCH 181 187
ENDBRANCH 177 181
ENDBRANCH 171 177
ENDBRANCH  22 171
BRANCH  20 215
ATOM    215  O   UNL     1     146.237 161.570 184.925  0.00  0.00    -0.391 OA
ATOM    216  H   UNL     1     146.980 160.973 185.120  0.00  0.00    +0.210 HD
ENDBRANCH  20 215
BRANCH  18 217
ATOM    217  O   UNL     1     145.639 163.692 186.449  0.00  0.00    -0.391 OA
ATOM    218  H   UNL     1     144.732 163.560 186.801  0.00  0.00    +0.210 HD
ENDBRANCH  18 217
BRANCH  10 219
ATOM    219  O   UNL     1     148.251 169.578 192.443  0.00  0.00    -0.391 OA
ATOM    220  H   UNL     1     147.348 169.273 192.639  0.00  0.00    +0.210 HD
ENDBRANCH  10 219
BRANCH  37 221
ATOM    221  O   UNL     1     151.664 157.542 188.773  0.00  0.00    -0.379 OA
BRANCH 221 222
ATOM    222  C   UNL     1     151.874 157.850 190.145  0.00  0.00    +0.037 C 
ATOM    223  H   UNL     1     150.937 157.763 190.706  0.00  0.00    +0.052 HD
ATOM    224  H   UNL     1     152.283 158.857 190.266  0.00  0.00    +0.052 HD
ATOM    225  H   UNL     1     152.593 157.135 190.559  0.00  0.00    +0.052 HD
ENDBRANCH 221 222
ENDBRANCH  37 221
BRANCH  16 226
ATOM    226  O   UNL     1     144.122 165.485 187.901  0.00  0.00    -0.379 OA
BRANCH 226 227
ATOM    227  C   UNL     1     142.762 165.143 188.124  0.00  0.00    +0.037 C 
ATOM    228  H   UNL     1     142.574 164.183 187.636  0.00  0.00    +0.052 HD
ATOM    229  H   UNL     1     142.554 165.027 189.194  0.00  0.00    +0.052 HD
ATOM    230  H   UNL     1     142.088 165.881 187.682  0.00  0.00    +0.052 HD
ENDBRANCH 226 227
ENDBRANCH  16 226
TORSDOF 40
ENDMDL
MODEL 6
REMARK VINA RESULT:      -4.8      6.964     14.837
REMARK  Name = Swinholide A_conf2
REMARK  40 active torsions:
REMARK  status: ('A' for Active; 'I' for Inactive)
REMARK    1  A    between atoms: C_1  and  C_2
REMARK    2  A    between atoms: C_4  and  C_10
REMARK    3  A    between atoms: C_6  and  O_8
REMARK    4  A    between atoms: O_8  and  C_9
REMARK    5  A    between atoms: C_10  and  C_11
REMARK    6  A    between atoms: C_11  and  C_12
REMARK    7  A    between atoms: C_12  and  C_13
REMARK    8  A    between atoms: C_12  and  C_98
REMARK    9  A    between atoms: C_13  and  O_14
REMARK   10  A    between atoms: C_13  and  C_15
REMARK   11  A    between atoms: C_15  and  C_16
REMARK   12  A    between atoms: C_15  and  C_97
REMARK   13  A    between atoms: C_22  and  C_96
REMARK   14  A    between atoms: C_25  and  O_95
REMARK   15  A    between atoms: C_31  and  O_90
REMARK   16  A    between atoms: C_32  and  C_89
REMARK   17  A    between atoms: C_33  and  O_88
REMARK   18  A    between atoms: C_35  and  O_87
REMARK   19  A    between atoms: C_36  and  C_86
REMARK   20  A    between atoms: C_37  and  C_69
REMARK   21  A    between atoms: C_43  and  C_68
REMARK   22  A    between atoms: C_46  and  O_67
REMARK   23  A    between atoms: C_52  and  O_62
REMARK   24  A    between atoms: C_53  and  C_61
REMARK   25  A    between atoms: C_54  and  O_60
REMARK   26  A    between atoms: C_56  and  O_59
REMARK   27  A    between atoms: C_57  and  C_58
REMARK   28  A    between atoms: O_62  and  C_63
REMARK   29  A    between atoms: C_69  and  C_70
REMARK   30  A    between atoms: C_69  and  C_85
REMARK   31  A    between atoms: C_70  and  O_71
REMARK   32  A    between atoms: C_70  and  C_72
REMARK   33  A    between atoms: C_72  and  C_73
REMARK   34  A    between atoms: C_72  and  C_84
REMARK   35  A    between atoms: C_73  and  C_74
REMARK   36  A    between atoms: C_74  and  C_75
REMARK   37  A    between atoms: C_77  and  C_83
REMARK   38  A    between atoms: C_79  and  O_81
REMARK   39  A    between atoms: O_81  and  C_82
REMARK   40  A    between atoms: O_90  and  C_91
REMARK                            x       y       z     vdW  Elec       q    Type
REMARK                         _______ _______ _______ _____ _____    ______ ____
ROOT
ATOM      1  C   UNL     1     145.399 168.058 189.350  0.00  0.00    +0.113 C 
ATOM      2  O   UNL     1     144.868 169.247 189.993  0.00  0.00    -0.458 OA
ATOM      3  C   UNL     1     143.519 169.316 190.094  0.00  0.00    +0.332 C 
ATOM      4  O   UNL     1     142.711 168.477 189.737  0.00  0.00    -0.246 OA
ATOM      5  C   UNL     1     143.158 170.625 190.683  0.00  0.00    +0.023 C 
ATOM      6  C   UNL     1     141.872 170.882 190.967  0.00  0.00    -0.052 C 
ATOM      7  C   UNL     1     141.334 172.142 191.468  0.00  0.00    -0.054 C 
ATOM      8  C   UNL     1     142.038 172.959 192.277  0.00  0.00    -0.079 C 
ATOM      9  C   UNL     1     141.544 174.241 192.898  0.00  0.00    -0.008 C 
ATOM     10  C   UNL     1     142.269 175.508 192.398  0.00  0.00    +0.061 C 
ATOM     11  C   UNL     1     141.903 175.860 190.947  0.00  0.00    +0.003 C 
ATOM     12  C   UNL     1     142.419 177.235 190.474  0.00  0.00    +0.080 C 
ATOM     13  O   UNL     1     142.605 177.240 189.040  0.00  0.00    -0.369 OA
ATOM     14  C   UNL     1     141.385 177.404 188.292  0.00  0.00    +0.065 C 
ATOM     15  C   UNL     1     141.751 177.240 186.806  0.00  0.00    +0.000 C 
ATOM     16  C   UNL     1     140.592 177.501 185.817  0.00  0.00    +0.066 C 
ATOM     17  C   UNL     1     140.918 177.066 184.347  0.00  0.00    +0.009 C 
ATOM     18  C   UNL     1     141.321 175.577 184.204  0.00  0.00    +0.063 C 
ATOM     19  C   UNL     1     141.559 175.140 182.737  0.00  0.00    -0.000 C 
ATOM     20  C   UNL     1     141.773 173.620 182.672  0.00  0.00    +0.064 C 
ATOM     21  C   UNL     1     142.551 173.138 181.419  0.00  0.00    +0.020 C 
ATOM     22  C   UNL     1     143.095 171.682 181.574  0.00  0.00    +0.113 C 
ATOM     23  O   UNL     1     141.905 170.862 181.741  0.00  0.00    -0.458 OA
ATOM     24  C   UNL     1     141.791 169.686 181.088  0.00  0.00    +0.332 C 
ATOM     25  O   UNL     1     142.674 169.111 180.451  0.00  0.00    -0.246 OA
ATOM     26  C   UNL     1     140.429 169.129 181.233  0.00  0.00    +0.023 C 
ATOM     27  C   UNL     1     139.485 169.665 182.036  0.00  0.00    -0.052 C 
ATOM     28  C   UNL     1     138.125 169.183 182.260  0.00  0.00    -0.054 C 
ATOM     29  C   UNL     1     137.376 169.813 183.189  0.00  0.00    -0.079 C 
ATOM     30  C   UNL     1     135.993 169.467 183.664  0.00  0.00    -0.008 C 
ATOM     31  C   UNL     1     135.799 169.428 185.193  0.00  0.00    +0.061 C 
ATOM     32  C   UNL     1     136.600 168.360 185.967  0.00  0.00    +0.003 C 
ATOM     33  C   UNL     1     138.031 168.648 186.464  0.00  0.00    +0.080 C 
ATOM     34  O   UNL     1     138.942 168.677 185.361  0.00  0.00    -0.369 OA
ATOM     35  C   UNL     1     140.275 169.090 185.682  0.00  0.00    +0.065 C 
ATOM     36  C   UNL     1     141.033 168.089 186.572  0.00  0.00    +0.000 C 
ATOM     37  C   UNL     1     141.341 166.771 185.821  0.00  0.00    +0.066 C 
ATOM     38  C   UNL     1     142.583 166.059 186.428  0.00  0.00    +0.009 C 
ATOM     39  C   UNL     1     143.927 166.626 185.882  0.00  0.00    +0.063 C 
ATOM     40  C   UNL     1     145.133 166.238 186.778  0.00  0.00    -0.000 C 
ATOM     41  C   UNL     1     146.227 167.293 186.991  0.00  0.00    +0.064 C 
ATOM     42  C   UNL     1     145.856 168.478 187.918  0.00  0.00    +0.020 C 
ATOM     43  C   UNL     1     140.265 170.520 186.248  0.00  0.00    -0.008 C 
ATOM     44  C   UNL     1     139.157 170.747 187.231  0.00  0.00    -0.083 C 
ATOM     45  C   UNL     1     138.148 169.877 187.328  0.00  0.00    -0.059 C 
ATOM     46  C   UNL     1     140.757 178.773 188.590  0.00  0.00    -0.008 C 
ATOM     47  C   UNL     1     140.760 179.077 190.057  0.00  0.00    -0.083 C 
ATOM     48  C   UNL     1     141.533 178.382 190.900  0.00  0.00    -0.059 C 
ATOM     49  H   UNL     1     144.592 167.343 189.198  0.00  0.00    +0.074 HD
ATOM     50  H   UNL     1     143.954 171.339 190.829  0.00  0.00    +0.069 HD
ATOM     51  H   UNL     1     141.126 170.113 190.766  0.00  0.00    +0.062 HD
ATOM     52  H   UNL     1     143.045 172.676 192.579  0.00  0.00    +0.058 HD
ATOM     53  H   UNL     1     141.690 174.151 193.982  0.00  0.00    +0.033 HD
ATOM     54  H   UNL     1     140.464 174.374 192.781  0.00  0.00    +0.033 HD
ATOM     55  H   UNL     1     143.350 175.363 192.470  0.00  0.00    +0.060 HD
ATOM     56  H   UNL     1     142.291 175.081 190.281  0.00  0.00    +0.032 HD
ATOM     57  H   UNL     1     140.813 175.834 190.828  0.00  0.00    +0.032 HD
ATOM     58  H   UNL     1     143.420 177.404 190.885  0.00  0.00    +0.064 HD
ATOM     59  H   UNL     1     140.695 176.598 188.571  0.00  0.00    +0.060 HD
ATOM     60  H   UNL     1     142.595 177.894 186.557  0.00  0.00    +0.032 HD
ATOM     61  H   UNL     1     142.127 176.216 186.695  0.00  0.00    +0.032 HD
ATOM     62  H   UNL     1     140.404 178.585 185.809  0.00  0.00    +0.060 HD
ATOM     63  H   UNL     1     140.001 177.202 183.766  0.00  0.00    +0.035 HD
ATOM     64  H   UNL     1     142.261 175.398 184.739  0.00  0.00    +0.060 HD
ATOM     65  H   UNL     1     142.440 175.661 182.339  0.00  0.00    +0.032 HD
ATOM     66  H   UNL     1     140.694 175.418 182.128  0.00  0.00    +0.032 HD
ATOM     67  H   UNL     1     142.333 173.340 183.565  0.00  0.00    +0.060 HD
ATOM     68  H   UNL     1     143.398 173.819 181.290  0.00  0.00    +0.036 HD
ATOM     69  H   UNL     1     143.611 171.398 180.648  0.00  0.00    +0.074 HD
ATOM     70  H   UNL     1     140.255 168.228 180.658  0.00  0.00    +0.069 HD
ATOM     71  H   UNL     1     139.756 170.541 182.625  0.00  0.00    +0.062 HD
ATOM     72  H   UNL     1     137.816 170.663 183.716  0.00  0.00    +0.058 HD
ATOM     73  H   UNL     1     135.319 170.231 183.253  0.00  0.00    +0.033 HD
ATOM     74  H   UNL     1     135.662 168.508 183.263  0.00  0.00    +0.033 HD
ATOM     75  H   UNL     1     134.748 169.144 185.323  0.00  0.00    +0.060 HD
ATOM     76  H   UNL     1     136.622 167.445 185.362  0.00  0.00    +0.032 HD
ATOM     77  H   UNL     1     136.014 168.122 186.860  0.00  0.00    +0.032 HD
ATOM     78  H   UNL     1     138.301 167.785 187.081  0.00  0.00    +0.064 HD
ATOM     79  H   UNL     1     140.813 169.146 184.726  0.00  0.00    +0.060 HD
ATOM     80  H   UNL     1     140.466 167.869 187.483  0.00  0.00    +0.032 HD
ATOM     81  H   UNL     1     141.959 168.572 186.903  0.00  0.00    +0.032 HD
ATOM     82  H   UNL     1     141.532 166.967 184.759  0.00  0.00    +0.060 HD
ATOM     83  H   UNL     1     142.546 166.218 187.513  0.00  0.00    +0.035 HD
ATOM     84  H   UNL     1     144.097 166.195 184.885  0.00  0.00    +0.060 HD
ATOM     85  H   UNL     1     145.602 165.363 186.301  0.00  0.00    +0.032 HD
ATOM     86  H   UNL     1     144.786 165.860 187.741  0.00  0.00    +0.032 HD
ATOM     87  H   UNL     1     147.115 166.805 187.406  0.00  0.00    +0.060 HD
ATOM     88  H   UNL     1     144.998 169.005 187.477  0.00  0.00    +0.036 HD
ATOM     89  H   UNL     1     141.229 170.761 186.710  0.00  0.00    +0.033 HD
ATOM     90  H   UNL     1     140.106 171.232 185.427  0.00  0.00    +0.033 HD
ATOM     91  H   UNL     1     139.174 171.652 187.830  0.00  0.00    +0.057 HD
ATOM     92  H   UNL     1     137.348 170.059 188.046  0.00  0.00    +0.059 HD
ATOM     93  H   UNL     1     141.305 179.570 188.076  0.00  0.00    +0.033 HD
ATOM     94  H   UNL     1     139.725 178.795 188.222  0.00  0.00    +0.033 HD
ATOM     95  H   UNL     1     140.141 179.888 190.416  0.00  0.00    +0.057 HD
ATOM     96  H   UNL     1     141.519 178.629 191.959  0.00  0.00    +0.059 HD
ENDROOT
BRANCH  28  97
ATOM     97  C   UNL     1     137.657 167.999 181.451  0.00  0.00    -0.040 C 
ATOM     98  H   UNL     1     137.396 167.167 182.112  0.00  0.00    +0.028 HD
ATOM     99  H   UNL     1     138.416 167.607 180.768  0.00  0.00    +0.028 HD
ATOM    100  H   UNL     1     136.780 168.261 180.848  0.00  0.00    +0.028 HD
ENDBRANCH  28  97
BRANCH  21 101
ATOM    101  C   UNL     1     141.718 173.247 180.134  0.00  0.00    -0.057 C 
ATOM    102  H   UNL     1     140.694 173.562 180.351  0.00  0.00    +0.023 HD
ATOM    103  H   UNL     1     142.156 173.988 179.462  0.00  0.00    +0.023 HD
ATOM    104  H   UNL     1     141.666 172.301 179.587  0.00  0.00    +0.023 HD
ENDBRANCH  21 101
BRANCH  42 105
ATOM    105  C   UNL     1     146.966 169.542 187.898  0.00  0.00    -0.057 C 
ATOM    106  H   UNL     1     146.555 170.552 187.936  0.00  0.00    +0.023 HD
ATOM    107  H   UNL     1     147.613 169.443 187.023  0.00  0.00    +0.023 HD
ATOM    108  H   UNL     1     147.600 169.435 188.783  0.00  0.00    +0.023 HD
ENDBRANCH  42 105
BRANCH  17 109
ATOM    109  C   UNL     1     141.975 177.993 183.734  0.00  0.00    -0.058 C 
ATOM    110  H   UNL     1     142.041 177.862 182.655  0.00  0.00    +0.023 HD
ATOM    111  H   UNL     1     142.965 177.766 184.142  0.00  0.00    +0.023 HD
ATOM    112  H   UNL     1     141.762 179.042 183.941  0.00  0.00    +0.023 HD
ENDBRANCH  17 109
BRANCH  38 113
ATOM    113  C   UNL     1     142.571 164.535 186.210  0.00  0.00    -0.058 C 
ATOM    114  H   UNL     1     143.267 164.014 186.877  0.00  0.00    +0.023 HD
ATOM    115  H   UNL     1     141.563 164.125 186.385  0.00  0.00    +0.023 HD
ATOM    116  H   UNL     1     142.858 164.276 185.187  0.00  0.00    +0.023 HD
ENDBRANCH  38 113
BRANCH   7 117
ATOM    117  C   UNL     1     139.919 172.428 191.036  0.00  0.00    -0.040 C 
ATOM    118  H   UNL     1     139.600 173.406 191.406  0.00  0.00    +0.028 HD
ATOM    119  H   UNL     1     139.224 171.678 191.425  0.00  0.00    +0.028 HD
ATOM    120  H   UNL     1     139.812 172.414 189.945  0.00  0.00    +0.028 HD
ENDBRANCH   7 117
BRANCH   1 121
ATOM    121  C   UNL     1     146.432 167.357 190.279  0.00  0.00    +0.020 C 
ATOM    122  H   UNL     1     147.197 166.880 189.658  0.00  0.00    +0.036 HD
BRANCH 121 123
ATOM    123  C   UNL     1     147.181 168.322 191.217  0.00  0.00    -0.057 C 
ATOM    124  H   UNL     1     148.258 168.334 191.030  0.00  0.00    +0.023 HD
ATOM    125  H   UNL     1     146.806 169.344 191.112  0.00  0.00    +0.023 HD
ATOM    126  H   UNL     1     147.010 168.063 192.264  0.00  0.00    +0.023 HD
ENDBRANCH 121 123
BRANCH 121 127
ATOM    127  C   UNL     1     145.784 166.237 191.163  0.00  0.00    +0.064 C 
ATOM    128  H   UNL     1     144.766 166.052 190.798  0.00  0.00    +0.060 HD
BRANCH 127 129
ATOM    129  C   UNL     1     145.673 166.555 192.682  0.00  0.00    -0.017 C 
ATOM    130  H   UNL     1     146.044 167.567 192.870  0.00  0.00    +0.032 HD
BRANCH 129 131
ATOM    131  C   UNL     1     144.222 166.476 193.168  0.00  0.00    -0.060 C 
ATOM    132  H   UNL     1     143.910 165.450 193.379  0.00  0.00    +0.023 HD
ATOM    133  H   UNL     1     144.077 167.066 194.080  0.00  0.00    +0.023 HD
ATOM    134  H   UNL     1     143.536 166.861 192.405  0.00  0.00    +0.023 HD
ENDBRANCH 129 131
BRANCH 129 135
ATOM    135  C   UNL     1     146.519 165.606 193.570  0.00  0.00    -0.046 C 
ATOM    136  H   UNL     1     145.957 165.426 194.495  0.00  0.00    +0.027 HD
ATOM    137  H   UNL     1     146.633 164.629 193.085  0.00  0.00    +0.027 HD
BRANCH 135 138
ATOM    138  C   UNL     1     147.905 166.151 193.940  0.00  0.00    -0.026 C 
ATOM    139  H   UNL     1     148.000 167.185 193.597  0.00  0.00    +0.029 HD
ATOM    140  H   UNL     1     148.001 166.167 195.033  0.00  0.00    +0.029 HD
BRANCH 138 143
ATOM    141  C   UNL     1     150.572 165.330 195.185  0.00  0.00    +0.059 C 
ATOM    142  O   UNL     1     149.766 164.566 194.280  0.00  0.00    -0.373 OA
ATOM    143  C   UNL     1     149.047 165.336 193.311  0.00  0.00    +0.061 C 
ATOM    144  C   UNL     1     150.016 166.200 192.501  0.00  0.00    -0.000 C 
ATOM    145  C   UNL     1     150.899 167.060 193.402  0.00  0.00    +0.063 C 
ATOM    146  C   UNL     1     151.593 166.169 194.429  0.00  0.00    -0.000 C 
ATOM    147  H   UNL     1     149.921 165.969 195.791  0.00  0.00    +0.059 HD
ATOM    148  H   UNL     1     148.593 164.608 192.627  0.00  0.00    +0.060 HD
ATOM    149  H   UNL     1     150.662 165.542 191.903  0.00  0.00    +0.032 HD
ATOM    150  H   UNL     1     149.476 166.825 191.780  0.00  0.00    +0.032 HD
ATOM    151  H   UNL     1     150.278 167.809 193.909  0.00  0.00    +0.060 HD
ATOM    152  H   UNL     1     152.187 166.768 195.130  0.00  0.00    +0.032 HD
ATOM    153  H   UNL     1     152.306 165.517 193.902  0.00  0.00    +0.032 HD
BRANCH 141 154
ATOM    154  C   UNL     1     151.256 164.344 196.120  0.00  0.00    -0.039 C 
ATOM    155  H   UNL     1     150.820 163.344 196.039  0.00  0.00    +0.025 HD
ATOM    156  H   UNL     1     152.327 164.278 195.890  0.00  0.00    +0.025 HD
ATOM    157  H   UNL     1     151.181 164.677 197.161  0.00  0.00    +0.025 HD
ENDBRANCH 141 154
BRANCH 145 158
ATOM    158  O   UNL     1     151.834 167.740 192.560  0.00  0.00    -0.380 OA
BRANCH 158 159
ATOM    159  C   UNL     1     151.320 168.942 192.000  0.00  0.00    +0.037 C 
ATOM    160  H   UNL     1     150.685 169.419 192.751  0.00  0.00    +0.052 HD
ATOM    161  H   UNL     1     150.707 168.727 191.124  0.00  0.00    +0.052 HD
ATOM    162  H   UNL     1     152.123 169.638 191.740  0.00  0.00    +0.052 HD
ENDBRANCH 158 159
ENDBRANCH 145 158
ENDBRANCH 138 143
ENDBRANCH 135 138
ENDBRANCH 129 135
ENDBRANCH 127 129
BRANCH 127 163
ATOM    163  O   UNL     1     146.505 165.019 190.987  0.00  0.00    -0.391 OA
ATOM    164  H   UNL     1     145.873 164.284 191.024  0.00  0.00    +0.210 HD
ENDBRANCH 127 163
ENDBRANCH 121 127
ENDBRANCH   1 121
BRANCH  41 165
ATOM    165  O   UNL     1     146.599 167.802 185.700  0.00  0.00    -0.391 OA
ATOM    166  H   UNL     1     146.455 168.766 185.718  0.00  0.00    +0.210 HD
ENDBRANCH  41 165
BRANCH  39 167
ATOM    167  O   UNL     1     143.850 168.023 185.671  0.00  0.00    -0.391 OA
ATOM    168  H   UNL     1     144.462 168.240 184.935  0.00  0.00    +0.210 HD
ENDBRANCH  39 167
BRANCH  31 169
ATOM    169  O   UNL     1     135.888 170.715 185.797  0.00  0.00    -0.391 OA
ATOM    170  H   UNL     1     135.534 170.658 186.703  0.00  0.00    +0.210 HD
ENDBRANCH  31 169
BRANCH  22 171
ATOM    171  C   UNL     1     144.054 171.450 182.787  0.00  0.00    +0.020 C 
ATOM    172  H   UNL     1     144.313 172.435 183.182  0.00  0.00    +0.036 HD
BRANCH 171 173
ATOM    173  C   UNL     1     143.319 170.769 183.957  0.00  0.00    -0.057 C 
ATOM    174  H   UNL     1     142.466 170.183 183.596  0.00  0.00    +0.023 HD
ATOM    175  H   UNL     1     143.983 170.079 184.493  0.00  0.00    +0.023 HD
ATOM    176  H   UNL     1     142.963 171.500 184.690  0.00  0.00    +0.023 HD
ENDBRANCH 171 173
BRANCH 171 177
ATOM    177  C   UNL     1     145.371 170.642 182.516  0.00  0.00    +0.064 C 
ATOM    178  H   UNL     1     145.387 169.758 183.170  0.00  0.00    +0.060 HD
BRANCH 177 179
ATOM    179  O   UNL     1     145.381 170.118 181.190  0.00  0.00    -0.391 OA
ATOM    180  H   UNL     1     145.665 169.188 181.240  0.00  0.00    +0.210 HD
ENDBRANCH 177 179
BRANCH 177 181
ATOM    181  C   UNL     1     146.689 171.452 182.773  0.00  0.00    -0.017 C 
ATOM    182  H   UNL     1     147.370 170.815 183.354  0.00  0.00    +0.032 HD
BRANCH 181 183
ATOM    183  C   UNL     1     147.373 171.835 181.449  0.00  0.00    -0.060 C 
ATOM    184  H   UNL     1     146.900 172.733 181.038  0.00  0.00    +0.023 HD
ATOM    185  H   UNL     1     147.317 171.044 180.697  0.00  0.00    +0.023 HD
ATOM    186  H   UNL     1     148.439 172.028 181.586  0.00  0.00    +0.023 HD
ENDBRANCH 181 183
BRANCH 181 187
ATOM    187  C   UNL     1     146.412 172.731 183.619  0.00  0.00    -0.046 C 
ATOM    188  H   UNL     1     145.459 173.166 183.306  0.00  0.00    +0.027 HD
ATOM    189  H   UNL     1     147.199 173.460 183.392  0.00  0.00    +0.027 HD
BRANCH 187 190
ATOM    190  C   UNL     1     146.363 172.488 185.140  0.00  0.00    -0.026 C 
ATOM    191  H   UNL     1     147.386 172.330 185.493  0.00  0.00    +0.029 HD
ATOM    192  H   UNL     1     145.810 171.560 185.329  0.00  0.00    +0.029 HD
BRANCH 190 193
ATOM    193  C   UNL     1     145.787 173.601 186.043  0.00  0.00    +0.061 C 
ATOM    194  O   UNL     1     146.216 173.504 187.401  0.00  0.00    -0.373 OA
ATOM    195  C   UNL     1     145.444 172.668 188.254  0.00  0.00    +0.059 C 
ATOM    196  C   UNL     1     143.975 173.065 188.248  0.00  0.00    -0.000 C 
ATOM    197  C   UNL     1     143.421 173.031 186.820  0.00  0.00    +0.063 C 
ATOM    198  C   UNL     1     144.292 173.895 185.910  0.00  0.00    -0.000 C 
ATOM    199  H   UNL     1     146.292 174.510 185.687  0.00  0.00    +0.060 HD
ATOM    200  H   UNL     1     145.562 171.627 187.936  0.00  0.00    +0.059 HD
ATOM    201  H   UNL     1     143.401 172.395 188.897  0.00  0.00    +0.032 HD
ATOM    202  H   UNL     1     143.841 174.077 188.649  0.00  0.00    +0.032 HD
ATOM    203  H   UNL     1     143.406 172.000 186.459  0.00  0.00    +0.060 HD
ATOM    204  H   UNL     1     144.127 174.941 186.205  0.00  0.00    +0.032 HD
ATOM    205  H   UNL     1     143.960 173.829 184.867  0.00  0.00    +0.032 HD
BRANCH 195 206
ATOM    206  C   UNL     1     146.017 172.800 189.660  0.00  0.00    -0.039 C 
ATOM    207  H   UNL     1     145.279 173.223 190.343  0.00  0.00    +0.025 HD
ATOM    208  H   UNL     1     146.331 171.827 190.044  0.00  0.00    +0.025 HD
ATOM    209  H   UNL     1     146.902 173.440 189.665  0.00  0.00    +0.025 HD
ENDBRANCH 195 206
BRANCH 197 210
ATOM    210  O   UNL     1     142.085 173.542 186.727  0.00  0.00    -0.380 OA
BRANCH 210 211
ATOM    211  C   UNL     1     141.427 173.679 187.977  0.00  0.00    +0.037 C 
ATOM    212  H   UNL     1     140.967 174.665 188.051  0.00  0.00    +0.052 HD
ATOM    213  H   UNL     1     140.628 172.935 188.026  0.00  0.00    +0.052 HD
ATOM    214  H   UNL     1     142.114 173.513 188.809  0.00  0.00    +0.052 HD
ENDBRANCH 210 211
ENDBRANCH 197 210
ENDBRANCH 190 193
ENDBRANCH 187 190
ENDBRANCH 181 187
ENDBRANCH 177 181
ENDBRANCH 171 177
ENDBRANCH  22 171
BRANCH  20 215
ATOM    215  O   UNL     1     140.479 173.016 182.798  0.00  0.00    -0.391 OA
ATOM    216  H   UNL     1     140.579 172.049 182.765  0.00  0.00    +0.210 HD
ENDBRANCH  20 215
BRANCH  18 217
ATOM    217  O   UNL     1     140.328 174.765 184.823  0.00  0.00    -0.391 OA
ATOM    218  H   UNL     1     139.636 175.330 185.229  0.00  0.00    +0.210 HD
ENDBRANCH  18 217
BRANCH  10 219
ATOM    219  O   UNL     1     141.931 176.579 193.282  0.00  0.00    -0.391 OA
ATOM    220  H   UNL     1     141.798 176.201 194.169  0.00  0.00    +0.210 HD
ENDBRANCH  10 219
BRANCH  37 221
ATOM    221  O   UNL     1     140.191 165.923 185.974  0.00  0.00    -0.379 OA
BRANCH 221 222
ATOM    222  C   UNL     1     139.643 165.521 184.726  0.00  0.00    +0.037 C 
ATOM    223  H   UNL     1     140.391 165.609 183.932  0.00  0.00    +0.052 HD
ATOM    224  H   UNL     1     138.763 166.118 184.470  0.00  0.00    +0.052 HD
ATOM    225  H   UNL     1     139.337 164.472 184.799  0.00  0.00    +0.052 HD
ENDBRANCH 221 222
ENDBRANCH  37 221
BRANCH  16 226
ATOM    226  O   UNL     1     139.418 176.877 186.351  0.00  0.00    -0.379 OA
BRANCH 226 227
ATOM    227  C   UNL     1     138.191 177.448 185.921  0.00  0.00    +0.037 C 
ATOM    228  H   UNL     1     137.445 177.263 186.699  0.00  0.00    +0.052 HD
ATOM    229  H   UNL     1     138.284 178.532 185.790  0.00  0.00    +0.052 HD
ATOM    230  H   UNL     1     137.836 176.980 184.999  0.00  0.00    +0.052 HD
ENDBRANCH 226 227
ENDBRANCH  16 226
TORSDOF 40
ENDMDL
MODEL 7
REMARK VINA RESULT:      -4.7      2.334      4.172
REMARK  Name = Swinholide A_conf2
REMARK  40 active torsions:
REMARK  status: ('A' for Active; 'I' for Inactive)
REMARK    1  A    between atoms: C_1  and  C_2
REMARK    2  A    between atoms: C_4  and  C_10
REMARK    3  A    between atoms: C_6  and  O_8
REMARK    4  A    between atoms: O_8  and  C_9
REMARK    5  A    between atoms: C_10  and  C_11
REMARK    6  A    between atoms: C_11  and  C_12
REMARK    7  A    between atoms: C_12  and  C_13
REMARK    8  A    between atoms: C_12  and  C_98
REMARK    9  A    between atoms: C_13  and  O_14
REMARK   10  A    between atoms: C_13  and  C_15
REMARK   11  A    between atoms: C_15  and  C_16
REMARK   12  A    between atoms: C_15  and  C_97
REMARK   13  A    between atoms: C_22  and  C_96
REMARK   14  A    between atoms: C_25  and  O_95
REMARK   15  A    between atoms: C_31  and  O_90
REMARK   16  A    between atoms: C_32  and  C_89
REMARK   17  A    between atoms: C_33  and  O_88
REMARK   18  A    between atoms: C_35  and  O_87
REMARK   19  A    between atoms: C_36  and  C_86
REMARK   20  A    between atoms: C_37  and  C_69
REMARK   21  A    between atoms: C_43  and  C_68
REMARK   22  A    between atoms: C_46  and  O_67
REMARK   23  A    between atoms: C_52  and  O_62
REMARK   24  A    between atoms: C_53  and  C_61
REMARK   25  A    between atoms: C_54  and  O_60
REMARK   26  A    between atoms: C_56  and  O_59
REMARK   27  A    between atoms: C_57  and  C_58
REMARK   28  A    between atoms: O_62  and  C_63
REMARK   29  A    between atoms: C_69  and  C_70
REMARK   30  A    between atoms: C_69  and  C_85
REMARK   31  A    between atoms: C_70  and  O_71
REMARK   32  A    between atoms: C_70  and  C_72
REMARK   33  A    between atoms: C_72  and  C_73
REMARK   34  A    between atoms: C_72  and  C_84
REMARK   35  A    between atoms: C_73  and  C_74
REMARK   36  A    between atoms: C_74  and  C_75
REMARK   37  A    between atoms: C_77  and  C_83
REMARK   38  A    between atoms: C_79  and  O_81
REMARK   39  A    between atoms: O_81  and  C_82
REMARK   40  A    between atoms: O_90  and  C_91
REMARK                            x       y       z     vdW  Elec       q    Type
REMARK                         _______ _______ _______ _____ _____    ______ ____
ROOT
ATOM      1  C   UNL     1     147.189 167.774 189.533  0.00  0.00    +0.113 C 
ATOM      2  O   UNL     1     148.619 167.549 189.422  0.00  0.00    -0.458 OA
ATOM      3  C   UNL     1     149.093 167.344 188.170  0.00  0.00    +0.332 C 
ATOM      4  O   UNL     1     148.457 167.364 187.131  0.00  0.00    -0.246 OA
ATOM      5  C   UNL     1     150.539 167.041 188.257  0.00  0.00    +0.023 C 
ATOM      6  C   UNL     1     151.246 166.894 187.126  0.00  0.00    -0.052 C 
ATOM      7  C   UNL     1     152.651 166.513 187.031  0.00  0.00    -0.054 C 
ATOM      8  C   UNL     1     153.559 166.854 187.966  0.00  0.00    -0.079 C 
ATOM      9  C   UNL     1     155.039 166.566 187.920  0.00  0.00    -0.008 C 
ATOM     10  C   UNL     1     155.530 165.597 189.016  0.00  0.00    +0.061 C 
ATOM     11  C   UNL     1     155.060 164.154 188.777  0.00  0.00    +0.003 C 
ATOM     12  C   UNL     1     155.707 163.109 189.711  0.00  0.00    +0.080 C 
ATOM     13  O   UNL     1     154.831 161.971 189.880  0.00  0.00    -0.369 OA
ATOM     14  C   UNL     1     154.852 161.046 188.776  0.00  0.00    +0.065 C 
ATOM     15  C   UNL     1     153.768 159.991 189.061  0.00  0.00    +0.000 C 
ATOM     16  C   UNL     1     153.708 158.828 188.046  0.00  0.00    +0.066 C 
ATOM     17  C   UNL     1     152.435 157.928 188.205  0.00  0.00    +0.009 C 
ATOM     18  C   UNL     1     151.097 158.702 188.101  0.00  0.00    +0.063 C 
ATOM     19  C   UNL     1     149.847 157.789 188.176  0.00  0.00    -0.000 C 
ATOM     20  C   UNL     1     148.582 158.609 187.883  0.00  0.00    +0.064 C 
ATOM     21  C   UNL     1     147.277 157.995 188.455  0.00  0.00    +0.020 C 
ATOM     22  C   UNL     1     146.099 159.020 188.496  0.00  0.00    +0.113 C 
ATOM     23  O   UNL     1     145.883 159.387 187.105  0.00  0.00    -0.458 OA
ATOM     24  C   UNL     1     144.630 159.479 186.611  0.00  0.00    +0.332 C 
ATOM     25  O   UNL     1     143.582 159.437 187.255  0.00  0.00    -0.246 OA
ATOM     26  C   UNL     1     144.651 159.651 185.142  0.00  0.00    +0.023 C 
ATOM     27  C   UNL     1     145.781 159.837 184.428  0.00  0.00    -0.052 C 
ATOM     28  C   UNL     1     145.905 160.033 182.987  0.00  0.00    -0.054 C 
ATOM     29  C   UNL     1     147.129 160.307 182.488  0.00  0.00    -0.079 C 
ATOM     30  C   UNL     1     147.508 160.629 181.071  0.00  0.00    -0.008 C 
ATOM     31  C   UNL     1     148.415 161.862 180.882  0.00  0.00    +0.061 C 
ATOM     32  C   UNL     1     147.826 163.227 181.295  0.00  0.00    +0.003 C 
ATOM     33  C   UNL     1     147.951 163.738 182.745  0.00  0.00    +0.080 C 
ATOM     34  O   UNL     1     147.091 162.991 183.610  0.00  0.00    -0.369 OA
ATOM     35  C   UNL     1     147.236 163.272 185.006  0.00  0.00    +0.065 C 
ATOM     36  C   UNL     1     146.777 164.687 185.402  0.00  0.00    +0.000 C 
ATOM     37  C   UNL     1     145.245 164.854 185.259  0.00  0.00    +0.066 C 
ATOM     38  C   UNL     1     144.714 165.969 186.206  0.00  0.00    +0.009 C 
ATOM     39  C   UNL     1     144.474 165.460 187.658  0.00  0.00    +0.063 C 
ATOM     40  C   UNL     1     144.370 166.626 188.677  0.00  0.00    -0.000 C 
ATOM     41  C   UNL     1     145.012 166.423 190.056  0.00  0.00    +0.064 C 
ATOM     42  C   UNL     1     146.561 166.461 190.095  0.00  0.00    +0.020 C 
ATOM     43  C   UNL     1     148.668 162.947 185.465  0.00  0.00    -0.008 C 
ATOM     44  C   UNL     1     149.710 163.420 184.497  0.00  0.00    -0.083 C 
ATOM     45  C   UNL     1     149.366 163.790 183.260  0.00  0.00    -0.059 C 
ATOM     46  C   UNL     1     156.248 160.422 188.630  0.00  0.00    -0.008 C 
ATOM     47  C   UNL     1     157.329 161.453 188.739  0.00  0.00    -0.083 C 
ATOM     48  C   UNL     1     157.075 162.664 189.248  0.00  0.00    -0.059 C 
ATOM     49  H   UNL     1     146.767 167.894 188.537  0.00  0.00    +0.074 HD
ATOM     50  H   UNL     1     150.960 166.915 189.243  0.00  0.00    +0.069 HD
ATOM     51  H   UNL     1     150.738 167.015 186.170  0.00  0.00    +0.062 HD
ATOM     52  H   UNL     1     153.246 167.441 188.829  0.00  0.00    +0.058 HD
ATOM     53  H   UNL     1     155.558 167.527 188.034  0.00  0.00    +0.033 HD
ATOM     54  H   UNL     1     155.363 166.199 186.942  0.00  0.00    +0.033 HD
ATOM     55  H   UNL     1     155.171 165.935 189.991  0.00  0.00    +0.060 HD
ATOM     56  H   UNL     1     153.971 164.110 188.887  0.00  0.00    +0.032 HD
ATOM     57  H   UNL     1     155.264 163.870 187.738  0.00  0.00    +0.032 HD
ATOM     58  H   UNL     1     155.807 163.536 190.713  0.00  0.00    +0.064 HD
ATOM     59  H   UNL     1     154.578 161.588 187.863  0.00  0.00    +0.060 HD
ATOM     60  H   UNL     1     153.901 159.585 190.071  0.00  0.00    +0.032 HD
ATOM     61  H   UNL     1     152.814 160.531 189.084  0.00  0.00    +0.032 HD
ATOM     62  H   UNL     1     154.589 158.192 188.221  0.00  0.00    +0.060 HD
ATOM     63  H   UNL     1     152.449 157.210 187.379  0.00  0.00    +0.035 HD
ATOM     64  H   UNL     1     151.016 159.410 188.934  0.00  0.00    +0.060 HD
ATOM     65  H   UNL     1     149.782 157.341 189.177  0.00  0.00    +0.032 HD
ATOM     66  H   UNL     1     149.942 156.980 187.445  0.00  0.00    +0.032 HD
ATOM     67  H   UNL     1     148.733 159.594 188.325  0.00  0.00    +0.060 HD
ATOM     68  H   UNL     1     147.499 157.672 189.476  0.00  0.00    +0.036 HD
ATOM     69  H   UNL     1     145.206 158.516 188.887  0.00  0.00    +0.074 HD
ATOM     70  H   UNL     1     143.671 159.644 184.682  0.00  0.00    +0.069 HD
ATOM     71  H   UNL     1     146.724 159.887 184.973  0.00  0.00    +0.062 HD
ATOM     72  H   UNL     1     147.970 160.352 183.184  0.00  0.00    +0.058 HD
ATOM     73  H   UNL     1     148.040 159.750 180.680  0.00  0.00    +0.033 HD
ATOM     74  H   UNL     1     146.626 160.767 180.443  0.00  0.00    +0.033 HD
ATOM     75  H   UNL     1     148.553 161.930 179.796  0.00  0.00    +0.060 HD
ATOM     76  H   UNL     1     146.765 163.240 181.015  0.00  0.00    +0.032 HD
ATOM     77  H   UNL     1     148.317 163.978 180.668  0.00  0.00    +0.032 HD
ATOM     78  H   UNL     1     147.571 164.764 182.723  0.00  0.00    +0.064 HD
ATOM     79  H   UNL     1     146.582 162.560 185.528  0.00  0.00    +0.060 HD
ATOM     80  H   UNL     1     147.287 165.446 184.798  0.00  0.00    +0.032 HD
ATOM     81  H   UNL     1     147.092 164.862 186.437  0.00  0.00    +0.032 HD
ATOM     82  H   UNL     1     144.730 163.915 185.499  0.00  0.00    +0.060 HD
ATOM     83  H   UNL     1     145.475 166.759 186.228  0.00  0.00    +0.035 HD
ATOM     84  H   UNL     1     143.520 164.915 187.673  0.00  0.00    +0.060 HD
ATOM     85  H   UNL     1     143.295 166.804 188.833  0.00  0.00    +0.032 HD
ATOM     86  H   UNL     1     144.730 167.555 188.230  0.00  0.00    +0.032 HD
ATOM     87  H   UNL     1     144.638 167.193 190.738  0.00  0.00    +0.060 HD
ATOM     88  H   UNL     1     146.942 165.654 189.453  0.00  0.00    +0.036 HD
ATOM     89  H   UNL     1     148.863 163.370 186.458  0.00  0.00    +0.033 HD
ATOM     90  H   UNL     1     148.784 161.858 185.543  0.00  0.00    +0.033 HD
ATOM     91  H   UNL     1     150.748 163.415 184.811  0.00  0.00    +0.057 HD
ATOM     92  H   UNL     1     150.136 164.129 182.567  0.00  0.00    +0.059 HD
ATOM     93  H   UNL     1     156.417 159.667 189.405  0.00  0.00    +0.033 HD
ATOM     94  H   UNL     1     156.329 159.920 187.660  0.00  0.00    +0.033 HD
ATOM     95  H   UNL     1     158.328 161.186 188.420  0.00  0.00    +0.057 HD
ATOM     96  H   UNL     1     157.881 163.390 189.321  0.00  0.00    +0.059 HD
ENDROOT
BRANCH  28  97
ATOM     97  C   UNL     1     144.651 159.936 182.154  0.00  0.00    -0.040 C 
ATOM     98  H   UNL     1     143.815 160.421 182.668  0.00  0.00    +0.028 HD
ATOM     99  H   UNL     1     144.327 158.908 181.968  0.00  0.00    +0.028 HD
ATOM    100  H   UNL     1     144.793 160.415 181.179  0.00  0.00    +0.028 HD
ENDBRANCH  28  97
BRANCH  21 101
ATOM    101  C   UNL     1     146.841 156.734 187.697  0.00  0.00    -0.057 C 
ATOM    102  H   UNL     1     145.766 156.563 187.797  0.00  0.00    +0.023 HD
ATOM    103  H   UNL     1     147.061 156.838 186.632  0.00  0.00    +0.023 HD
ATOM    104  H   UNL     1     147.355 155.834 188.049  0.00  0.00    +0.023 HD
ENDBRANCH  21 101
BRANCH  42 105
ATOM    105  C   UNL     1     147.071 166.066 191.492  0.00  0.00    -0.057 C 
ATOM    106  H   UNL     1     147.869 166.729 191.829  0.00  0.00    +0.023 HD
ATOM    107  H   UNL     1     147.418 165.030 191.523  0.00  0.00    +0.023 HD
ATOM    108  H   UNL     1     146.265 166.160 192.223  0.00  0.00    +0.023 HD
ENDBRANCH  42 105
BRANCH  17 109
ATOM    109  C   UNL     1     152.511 157.114 189.503  0.00  0.00    -0.058 C 
ATOM    110  H   UNL     1     152.605 157.762 190.374  0.00  0.00    +0.023 HD
ATOM    111  H   UNL     1     153.391 156.464 189.495  0.00  0.00    +0.023 HD
ATOM    112  H   UNL     1     151.632 156.484 189.637  0.00  0.00    +0.023 HD
ENDBRANCH  17 109
BRANCH  38 113
ATOM    113  C   UNL     1     143.418 166.624 185.696  0.00  0.00    -0.058 C 
ATOM    114  H   UNL     1     143.088 166.204 184.739  0.00  0.00    +0.023 HD
ATOM    115  H   UNL     1     142.601 166.491 186.424  0.00  0.00    +0.023 HD
ATOM    116  H   UNL     1     143.549 167.699 185.541  0.00  0.00    +0.023 HD
ENDBRANCH  38 113
BRANCH   7 117
ATOM    117  C   UNL     1     153.001 165.742 185.784  0.00  0.00    -0.040 C 
ATOM    118  H   UNL     1     153.433 164.773 186.046  0.00  0.00    +0.028 HD
ATOM    119  H   UNL     1     153.730 166.283 185.173  0.00  0.00    +0.028 HD
ATOM    120  H   UNL     1     152.126 165.574 185.146  0.00  0.00    +0.028 HD
ENDBRANCH   7 117
BRANCH   1 121
ATOM    121  C   UNL     1     146.909 169.108 190.286  0.00  0.00    +0.020 C 
ATOM    122  H   UNL     1     146.004 168.987 190.890  0.00  0.00    +0.036 HD
BRANCH 121 123
ATOM    123  C   UNL     1     148.026 169.516 191.265  0.00  0.00    -0.057 C 
ATOM    124  H   UNL     1     147.928 170.551 191.604  0.00  0.00    +0.023 HD
ATOM    125  H   UNL     1     148.033 168.869 192.148  0.00  0.00    +0.023 HD
ATOM    126  H   UNL     1     149.011 169.387 190.812  0.00  0.00    +0.023 HD
ENDBRANCH 121 123
BRANCH 121 127
ATOM    127  C   UNL     1     146.664 170.310 189.313  0.00  0.00    +0.064 C 
ATOM    128  H   UNL     1     147.314 171.140 189.616  0.00  0.00    +0.060 HD
BRANCH 127 129
ATOM    129  C   UNL     1     145.209 170.862 189.274  0.00  0.00    -0.017 C 
ATOM    130  H   UNL     1     144.739 170.584 188.326  0.00  0.00    +0.032 HD
BRANCH 129 131
ATOM    131  C   UNL     1     144.362 170.294 190.417  0.00  0.00    -0.060 C 
ATOM    132  H   UNL     1     144.735 170.594 191.400  0.00  0.00    +0.023 HD
ATOM    133  H   UNL     1     143.319 170.622 190.339  0.00  0.00    +0.023 HD
ATOM    134  H   UNL     1     144.372 169.198 190.400  0.00  0.00    +0.023 HD
ENDBRANCH 129 131
BRANCH 129 135
ATOM    135  C   UNL     1     145.138 172.409 189.361  0.00  0.00    -0.046 C 
ATOM    136  H   UNL     1     146.149 172.799 189.189  0.00  0.00    +0.027 HD
ATOM    137  H   UNL     1     144.513 172.809 188.554  0.00  0.00    +0.027 HD
BRANCH 135 138
ATOM    138  C   UNL     1     144.632 172.946 190.706  0.00  0.00    -0.026 C 
ATOM    139  H   UNL     1     144.268 172.118 191.322  0.00  0.00    +0.029 HD
ATOM    140  H   UNL     1     145.471 173.401 191.247  0.00  0.00    +0.029 HD
BRANCH 138 143
ATOM    141  C   UNL     1     143.053 174.403 192.879  0.00  0.00    +0.059 C 
ATOM    142  O   UNL     1     143.451 174.918 191.603  0.00  0.00    -0.373 OA
ATOM    143  C   UNL     1     143.484 173.956 190.544  0.00  0.00    +0.061 C 
ATOM    144  C   UNL     1     142.117 173.284 190.400  0.00  0.00    -0.000 C 
ATOM    145  C   UNL     1     141.635 172.691 191.723  0.00  0.00    +0.063 C 
ATOM    146  C   UNL     1     141.670 173.770 192.803  0.00  0.00    -0.000 C 
ATOM    147  H   UNL     1     143.794 173.670 193.216  0.00  0.00    +0.059 HD
ATOM    148  H   UNL     1     143.676 174.527 189.626  0.00  0.00    +0.060 HD
ATOM    149  H   UNL     1     141.386 174.034 190.066  0.00  0.00    +0.032 HD
ATOM    150  H   UNL     1     142.137 172.516 189.619  0.00  0.00    +0.032 HD
ATOM    151  H   UNL     1     142.285 171.853 192.002  0.00  0.00    +0.060 HD
ATOM    152  H   UNL     1     141.388 173.355 193.779  0.00  0.00    +0.032 HD
ATOM    153  H   UNL     1     140.915 174.532 192.563  0.00  0.00    +0.032 HD
BRANCH 141 154
ATOM    154  C   UNL     1     143.070 175.566 193.860  0.00  0.00    -0.039 C 
ATOM    155  H   UNL     1     143.966 176.183 193.737  0.00  0.00    +0.025 HD
ATOM    156  H   UNL     1     142.187 176.200 193.717  0.00  0.00    +0.025 HD
ATOM    157  H   UNL     1     143.030 175.205 194.894  0.00  0.00    +0.025 HD
ENDBRANCH 141 154
BRANCH 145 158
ATOM    158  O   UNL     1     140.312 172.189 191.508  0.00  0.00    -0.380 OA
BRANCH 158 159
ATOM    159  C   UNL     1     140.270 171.071 190.630  0.00  0.00    +0.037 C 
ATOM    160  H   UNL     1     139.812 171.395 189.692  0.00  0.00    +0.052 HD
ATOM    161  H   UNL     1     139.655 170.274 191.051  0.00  0.00    +0.052 HD
ATOM    162  H   UNL     1     141.274 170.697 190.408  0.00  0.00    +0.052 HD
ENDBRANCH 158 159
ENDBRANCH 145 158
ENDBRANCH 138 143
ENDBRANCH 135 138
ENDBRANCH 129 135
ENDBRANCH 127 129
BRANCH 127 163
ATOM    163  O   UNL     1     147.064 169.941 187.995  0.00  0.00    -0.391 OA
ATOM    164  H   UNL     1     148.008 169.715 188.016  0.00  0.00    +0.210 HD
ENDBRANCH 127 163
ENDBRANCH 121 127
ENDBRANCH   1 121
BRANCH  41 165
ATOM    165  O   UNL     1     144.558 165.160 190.566  0.00  0.00    -0.391 OA
ATOM    166  H   UNL     1     144.265 165.308 191.483  0.00  0.00    +0.210 HD
ENDBRANCH  41 165
BRANCH  39 167
ATOM    167  O   UNL     1     145.449 164.508 188.039  0.00  0.00    -0.391 OA
ATOM    168  H   UNL     1     146.242 164.667 187.484  0.00  0.00    +0.210 HD
ENDBRANCH  39 167
BRANCH  31 169
ATOM    169  O   UNL     1     149.732 161.665 181.388  0.00  0.00    -0.391 OA
ATOM    170  H   UNL     1     149.684 161.062 182.152  0.00  0.00    +0.210 HD
ENDBRANCH  31 169
BRANCH  22 171
ATOM    171  C   UNL     1     146.365 160.314 189.334  0.00  0.00    +0.020 C 
ATOM    172  H   UNL     1     145.545 161.003 189.125  0.00  0.00    +0.036 HD
BRANCH 171 173
ATOM    173  C   UNL     1     146.234 160.037 190.844  0.00  0.00    -0.057 C 
ATOM    174  H   UNL     1     145.999 160.956 191.393  0.00  0.00    +0.023 HD
ATOM    175  H   UNL     1     145.424 159.323 191.045  0.00  0.00    +0.023 HD
ATOM    176  H   UNL     1     147.149 159.602 191.255  0.00  0.00    +0.023 HD
ENDBRANCH 171 173
BRANCH 171 177
ATOM    177  C   UNL     1     147.730 161.050 189.102  0.00  0.00    +0.064 C 
ATOM    178  H   UNL     1     148.394 160.395 188.520  0.00  0.00    +0.060 HD
BRANCH 177 179
ATOM    179  O   UNL     1     147.551 162.207 188.287  0.00  0.00    -0.391 OA
ATOM    180  H   UNL     1     146.629 162.210 187.974  0.00  0.00    +0.210 HD
ENDBRANCH 177 179
BRANCH 177 181
ATOM    181  C   UNL     1     148.481 161.446 190.420  0.00  0.00    -0.017 C 
ATOM    182  H   UNL     1     147.792 161.288 191.262  0.00  0.00    +0.032 HD
BRANCH 181 183
ATOM    183  C   UNL     1     149.732 160.576 190.630  0.00  0.00    -0.060 C 
ATOM    184  H   UNL     1     149.616 159.630 190.091  0.00  0.00    +0.023 HD
ATOM    185  H   UNL     1     149.921 160.349 191.682  0.00  0.00    +0.023 HD
ATOM    186  H   UNL     1     150.636 161.075 190.276  0.00  0.00    +0.023 HD
ENDBRANCH 181 183
BRANCH 181 187
ATOM    187  C   UNL     1     148.875 162.954 190.417  0.00  0.00    -0.046 C 
ATOM    188  H   UNL     1     148.059 163.534 189.980  0.00  0.00    +0.027 HD
ATOM    189  H   UNL     1     149.751 163.070 189.767  0.00  0.00    +0.027 HD
BRANCH 187 190
ATOM    190  C   UNL     1     149.194 163.530 191.810  0.00  0.00    -0.026 C 
ATOM    191  H   UNL     1     148.995 162.753 192.554  0.00  0.00    +0.029 HD
ATOM    192  H   UNL     1     148.502 164.356 192.014  0.00  0.00    +0.029 HD
BRANCH 190 193
ATOM    193  C   UNL     1     150.635 164.010 192.094  0.00  0.00    +0.061 C 
ATOM    194  O   UNL     1     150.957 164.032 193.484  0.00  0.00    -0.373 OA
ATOM    195  C   UNL     1     150.620 165.215 194.197  0.00  0.00    +0.059 C 
ATOM    196  C   UNL     1     151.228 166.451 193.550  0.00  0.00    -0.000 C 
ATOM    197  C   UNL     1     150.780 166.560 192.088  0.00  0.00    +0.063 C 
ATOM    198  C   UNL     1     151.105 165.262 191.353  0.00  0.00    -0.000 C 
ATOM    199  H   UNL     1     151.260 163.193 191.707  0.00  0.00    +0.060 HD
ATOM    200  H   UNL     1     149.530 165.304 194.247  0.00  0.00    +0.059 HD
ATOM    201  H   UNL     1     150.937 167.349 194.106  0.00  0.00    +0.032 HD
ATOM    202  H   UNL     1     152.323 166.410 193.576  0.00  0.00    +0.032 HD
ATOM    203  H   UNL     1     149.706 166.755 192.050  0.00  0.00    +0.060 HD
ATOM    204  H   UNL     1     152.200 165.209 191.264  0.00  0.00    +0.032 HD
ATOM    205  H   UNL     1     150.728 165.286 190.324  0.00  0.00    +0.032 HD
BRANCH 195 206
ATOM    206  C   UNL     1     151.147 165.056 195.618  0.00  0.00    -0.039 C 
ATOM    207  H   UNL     1     151.590 164.069 195.762  0.00  0.00    +0.025 HD
ATOM    208  H   UNL     1     151.904 165.812 195.839  0.00  0.00    +0.025 HD
ATOM    209  H   UNL     1     150.348 165.188 196.351  0.00  0.00    +0.025 HD
ENDBRANCH 195 206
BRANCH 197 210
ATOM    210  O   UNL     1     151.438 167.618 191.380  0.00  0.00    -0.380 OA
BRANCH 210 211
ATOM    211  C   UNL     1     151.590 168.813 192.130  0.00  0.00    +0.037 C 
ATOM    212  H   UNL     1     152.584 168.851 192.576  0.00  0.00    +0.052 HD
ATOM    213  H   UNL     1     151.501 169.661 191.444  0.00  0.00    +0.052 HD
ATOM    214  H   UNL     1     150.821 168.902 192.899  0.00  0.00    +0.052 HD
ENDBRANCH 210 211
ENDBRANCH 197 210
ENDBRANCH 190 193
ENDBRANCH 187 190
ENDBRANCH 181 187
ENDBRANCH 177 181
ENDBRANCH 171 177
ENDBRANCH  22 171
BRANCH  20 215
ATOM    215  O   UNL     1     148.537 158.805 186.463  0.00  0.00    -0.391 OA
ATOM    216  H   UNL     1     148.332 159.738 186.281  0.00  0.00    +0.210 HD
ENDBRANCH  20 215
BRANCH  18 217
ATOM    217  O   UNL     1     151.096 159.469 186.901  0.00  0.00    -0.391 OA
ATOM    218  H   UNL     1     151.584 160.309 187.038  0.00  0.00    +0.210 HD
ENDBRANCH  18 217
BRANCH  10 219
ATOM    219  O   UNL     1     156.957 165.669 189.049  0.00  0.00    -0.391 OA
ATOM    220  H   UNL     1     157.296 165.218 188.256  0.00  0.00    +0.210 HD
ENDBRANCH  10 219
BRANCH  37 221
ATOM    221  O   UNL     1     144.989 165.232 183.897  0.00  0.00    -0.379 OA
BRANCH 221 222
ATOM    222  C   UNL     1     144.105 164.333 183.241  0.00  0.00    +0.037 C 
ATOM    223  H   UNL     1     143.247 164.102 183.881  0.00  0.00    +0.052 HD
ATOM    224  H   UNL     1     144.617 163.406 182.965  0.00  0.00    +0.052 HD
ATOM    225  H   UNL     1     143.737 164.808 182.326  0.00  0.00    +0.052 HD
ENDBRANCH 221 222
ENDBRANCH  37 221
BRANCH  16 226
ATOM    226  O   UNL     1     153.851 159.389 186.735  0.00  0.00    -0.379 OA
BRANCH 226 227
ATOM    227  C   UNL     1     154.356 158.494 185.755  0.00  0.00    +0.037 C 
ATOM    228  H   UNL     1     154.924 159.081 185.028  0.00  0.00    +0.052 HD
ATOM    229  H   UNL     1     155.034 157.759 186.203  0.00  0.00    +0.052 HD
ATOM    230  H   UNL     1     153.547 157.991 185.221  0.00  0.00    +0.052 HD
ENDBRANCH 226 227
ENDBRANCH  16 226
TORSDOF 40
ENDMDL
MODEL 8
REMARK VINA RESULT:      -4.7      2.264      3.719
REMARK  Name = Swinholide A_conf2
REMARK  40 active torsions:
REMARK  status: ('A' for Active; 'I' for Inactive)
REMARK    1  A    between atoms: C_1  and  C_2
REMARK    2  A    between atoms: C_4  and  C_10
REMARK    3  A    between atoms: C_6  and  O_8
REMARK    4  A    between atoms: O_8  and  C_9
REMARK    5  A    between atoms: C_10  and  C_11
REMARK    6  A    between atoms: C_11  and  C_12
REMARK    7  A    between atoms: C_12  and  C_13
REMARK    8  A    between atoms: C_12  and  C_98
REMARK    9  A    between atoms: C_13  and  O_14
REMARK   10  A    between atoms: C_13  and  C_15
REMARK   11  A    between atoms: C_15  and  C_16
REMARK   12  A    between atoms: C_15  and  C_97
REMARK   13  A    between atoms: C_22  and  C_96
REMARK   14  A    between atoms: C_25  and  O_95
REMARK   15  A    between atoms: C_31  and  O_90
REMARK   16  A    between atoms: C_32  and  C_89
REMARK   17  A    between atoms: C_33  and  O_88
REMARK   18  A    between atoms: C_35  and  O_87
REMARK   19  A    between atoms: C_36  and  C_86
REMARK   20  A    between atoms: C_37  and  C_69
REMARK   21  A    between atoms: C_43  and  C_68
REMARK   22  A    between atoms: C_46  and  O_67
REMARK   23  A    between atoms: C_52  and  O_62
REMARK   24  A    between atoms: C_53  and  C_61
REMARK   25  A    between atoms: C_54  and  O_60
REMARK   26  A    between atoms: C_56  and  O_59
REMARK   27  A    between atoms: C_57  and  C_58
REMARK   28  A    between atoms: O_62  and  C_63
REMARK   29  A    between atoms: C_69  and  C_70
REMARK   30  A    between atoms: C_69  and  C_85
REMARK   31  A    between atoms: C_70  and  O_71
REMARK   32  A    between atoms: C_70  and  C_72
REMARK   33  A    between atoms: C_72  and  C_73
REMARK   34  A    between atoms: C_72  and  C_84
REMARK   35  A    between atoms: C_73  and  C_74
REMARK   36  A    between atoms: C_74  and  C_75
REMARK   37  A    between atoms: C_77  and  C_83
REMARK   38  A    between atoms: C_79  and  O_81
REMARK   39  A    between atoms: O_81  and  C_82
REMARK   40  A    between atoms: O_90  and  C_91
REMARK                            x       y       z     vdW  Elec       q    Type
REMARK                         _______ _______ _______ _____ _____    ______ ____
ROOT
ATOM      1  C   UNL     1     146.975 167.601 189.194  0.00  0.00    +0.113 C 
ATOM      2  O   UNL     1     148.405 167.352 189.210  0.00  0.00    -0.458 OA
ATOM      3  C   UNL     1     149.005 167.259 187.999  0.00  0.00    +0.332 C 
ATOM      4  O   UNL     1     148.483 167.396 186.907  0.00  0.00    -0.246 OA
ATOM      5  C   UNL     1     150.429 166.912 188.205  0.00  0.00    +0.023 C 
ATOM      6  C   UNL     1     151.250 166.859 187.144  0.00  0.00    -0.052 C 
ATOM      7  C   UNL     1     152.650 166.453 187.157  0.00  0.00    -0.054 C 
ATOM      8  C   UNL     1     153.460 166.678 188.211  0.00  0.00    -0.079 C 
ATOM      9  C   UNL     1     154.932 166.359 188.290  0.00  0.00    -0.008 C 
ATOM     10  C   UNL     1     155.291 165.276 189.328  0.00  0.00    +0.061 C 
ATOM     11  C   UNL     1     154.827 163.875 188.898  0.00  0.00    +0.003 C 
ATOM     12  C   UNL     1     155.356 162.727 189.785  0.00  0.00    +0.080 C 
ATOM     13  O   UNL     1     154.451 161.601 189.748  0.00  0.00    -0.369 OA
ATOM     14  C   UNL     1     154.574 160.788 188.565  0.00  0.00    +0.065 C 
ATOM     15  C   UNL     1     153.451 159.738 188.629  0.00  0.00    +0.000 C 
ATOM     16  C   UNL     1     153.481 158.682 187.502  0.00  0.00    +0.066 C 
ATOM     17  C   UNL     1     152.185 157.803 187.438  0.00  0.00    +0.009 C 
ATOM     18  C   UNL     1     150.877 158.617 187.273  0.00  0.00    +0.063 C 
ATOM     19  C   UNL     1     149.613 157.732 187.127  0.00  0.00    -0.000 C 
ATOM     20  C   UNL     1     148.398 158.609 186.788  0.00  0.00    +0.064 C 
ATOM     21  C   UNL     1     147.031 157.975 187.157  0.00  0.00    +0.020 C 
ATOM     22  C   UNL     1     145.871 159.021 187.179  0.00  0.00    +0.113 C 
ATOM     23  O   UNL     1     145.808 159.527 185.817  0.00  0.00    -0.458 OA
ATOM     24  C   UNL     1     144.616 159.698 185.207  0.00  0.00    +0.332 C 
ATOM     25  O   UNL     1     143.505 159.620 185.732  0.00  0.00    -0.246 OA
ATOM     26  C   UNL     1     144.794 160.013 183.773  0.00  0.00    +0.023 C 
ATOM     27  C   UNL     1     145.996 160.240 183.203  0.00  0.00    -0.052 C 
ATOM     28  C   UNL     1     146.274 160.573 181.808  0.00  0.00    -0.054 C 
ATOM     29  C   UNL     1     147.548 160.863 181.469  0.00  0.00    -0.079 C 
ATOM     30  C   UNL     1     148.079 161.313 180.138  0.00  0.00    -0.008 C 
ATOM     31  C   UNL     1     149.019 162.535 180.168  0.00  0.00    +0.061 C 
ATOM     32  C   UNL     1     148.410 163.868 180.653  0.00  0.00    +0.003 C 
ATOM     33  C   UNL     1     148.389 164.231 182.152  0.00  0.00    +0.080 C 
ATOM     34  O   UNL     1     147.431 163.425 182.844  0.00  0.00    -0.369 OA
ATOM     35  C   UNL     1     147.432 163.564 184.269  0.00  0.00    +0.065 C 
ATOM     36  C   UNL     1     146.955 164.944 184.754  0.00  0.00    +0.000 C 
ATOM     37  C   UNL     1     145.449 165.164 184.471  0.00  0.00    +0.066 C 
ATOM     38  C   UNL     1     144.838 166.193 185.465  0.00  0.00    +0.009 C 
ATOM     39  C   UNL     1     144.439 165.550 186.826  0.00  0.00    +0.063 C 
ATOM     40  C   UNL     1     144.245 166.614 187.940  0.00  0.00    -0.000 C 
ATOM     41  C   UNL     1     144.735 166.261 189.351  0.00  0.00    +0.064 C 
ATOM     42  C   UNL     1     146.271 166.255 189.554  0.00  0.00    +0.020 C 
ATOM     43  C   UNL     1     148.803 163.159 184.839  0.00  0.00    -0.008 C 
ATOM     44  C   UNL     1     149.948 163.699 184.035  0.00  0.00    -0.083 C 
ATOM     45  C   UNL     1     149.742 164.197 182.813  0.00  0.00    -0.059 C 
ATOM     46  C   UNL     1     155.968 160.146 188.503  0.00  0.00    -0.008 C 
ATOM     47  C   UNL     1     157.048 161.134 188.826  0.00  0.00    -0.083 C 
ATOM     48  C   UNL     1     156.759 162.295 189.424  0.00  0.00    -0.059 C 
ATOM     49  H   UNL     1     146.662 167.828 188.176  0.00  0.00    +0.074 HD
ATOM     50  H   UNL     1     150.742 166.680 189.212  0.00  0.00    +0.069 HD
ATOM     51  H   UNL     1     150.847 167.085 186.157  0.00  0.00    +0.062 HD
ATOM     52  H   UNL     1     153.066 167.186 189.090  0.00  0.00    +0.058 HD
ATOM     53  H   UNL     1     155.450 167.291 188.552  0.00  0.00    +0.033 HD
ATOM     54  H   UNL     1     155.352 166.082 187.319  0.00  0.00    +0.033 HD
ATOM     55  H   UNL     1     154.835 165.525 190.289  0.00  0.00    +0.060 HD
ATOM     56  H   UNL     1     153.732 163.848 188.890  0.00  0.00    +0.032 HD
ATOM     57  H   UNL     1     155.136 163.689 187.862  0.00  0.00    +0.032 HD
ATOM     58  H   UNL     1     155.356 163.051 190.830  0.00  0.00    +0.064 HD
ATOM     59  H   UNL     1     154.406 161.424 187.687  0.00  0.00    +0.060 HD
ATOM     60  H   UNL     1     153.471 159.232 189.602  0.00  0.00    +0.032 HD
ATOM     61  H   UNL     1     152.508 160.297 188.607  0.00  0.00    +0.032 HD
ATOM     62  H   UNL     1     154.329 158.010 187.703  0.00  0.00    +0.060 HD
ATOM     63  H   UNL     1     152.275 157.169 186.550  0.00  0.00    +0.035 HD
ATOM     64  H   UNL     1     150.719 159.242 188.160  0.00  0.00    +0.060 HD
ATOM     65  H   UNL     1     149.436 157.191 188.066  0.00  0.00    +0.032 HD
ATOM     66  H   UNL     1     149.772 156.997 186.333  0.00  0.00    +0.032 HD
ATOM     67  H   UNL     1     148.516 159.542 187.340  0.00  0.00    +0.060 HD
ATOM     68  H   UNL     1     147.139 157.549 188.159  0.00  0.00    +0.036 HD
ATOM     69  H   UNL     1     144.934 158.503 187.423  0.00  0.00    +0.074 HD
ATOM     70  H   UNL     1     143.868 160.076 183.215  0.00  0.00    +0.069 HD
ATOM     71  H   UNL     1     146.877 160.213 183.844  0.00  0.00    +0.062 HD
ATOM     72  H   UNL     1     148.312 160.819 182.249  0.00  0.00    +0.058 HD
ATOM     73  H   UNL     1     148.636 160.464 179.718  0.00  0.00    +0.033 HD
ATOM     74  H   UNL     1     147.271 161.534 179.439  0.00  0.00    +0.033 HD
ATOM     75  H   UNL     1     149.272 162.706 179.115  0.00  0.00    +0.060 HD
ATOM     76  H   UNL     1     147.384 163.935 180.267  0.00  0.00    +0.032 HD
ATOM     77  H   UNL     1     148.975 164.664 180.158  0.00  0.00    +0.032 HD
ATOM     78  H   UNL     1     148.028 165.264 182.193  0.00  0.00    +0.064 HD
ATOM     79  H   UNL     1     146.717 162.821 184.647  0.00  0.00    +0.060 HD
ATOM     80  H   UNL     1     147.537 165.746 184.286  0.00  0.00    +0.032 HD
ATOM     81  H   UNL     1     147.162 165.010 185.828  0.00  0.00    +0.032 HD
ATOM     82  H   UNL     1     144.898 164.219 184.561  0.00  0.00    +0.060 HD
ATOM     83  H   UNL     1     145.604 166.958 185.645  0.00  0.00    +0.035 HD
ATOM     84  H   UNL     1     143.481 165.031 186.687  0.00  0.00    +0.060 HD
ATOM     85  H   UNL     1     143.162 166.802 188.001  0.00  0.00    +0.032 HD
ATOM     86  H   UNL     1     144.664 167.572 187.628  0.00  0.00    +0.032 HD
ATOM     87  H   UNL     1     144.303 166.969 190.064  0.00  0.00    +0.060 HD
ATOM     88  H   UNL     1     146.706 165.506 188.877  0.00  0.00    +0.036 HD
ATOM     89  H   UNL     1     148.898 163.478 185.883  0.00  0.00    +0.033 HD
ATOM     90  H   UNL     1     148.894 162.066 184.819  0.00  0.00    +0.033 HD
ATOM     91  H   UNL     1     150.947 163.637 184.453  0.00  0.00    +0.057 HD
ATOM     92  H   UNL     1     150.586 164.582 182.241  0.00  0.00    +0.059 HD
ATOM     93  H   UNL     1     156.043 159.315 189.211  0.00  0.00    +0.033 HD
ATOM     94  H   UNL     1     156.144 159.740 187.500  0.00  0.00    +0.033 HD
ATOM     95  H   UNL     1     158.070 160.875 188.586  0.00  0.00    +0.057 HD
ATOM     96  H   UNL     1     157.563 162.990 189.652  0.00  0.00    +0.059 HD
ENDROOT
BRANCH  28  97
ATOM     97  C   UNL     1     145.114 160.590 180.845  0.00  0.00    -0.040 C 
ATOM     98  H   UNL     1     144.393 161.362 181.131  0.00  0.00    +0.028 HD
ATOM     99  H   UNL     1     144.549 159.654 180.823  0.00  0.00    +0.028 HD
ATOM    100  H   UNL     1     145.458 160.787 179.824  0.00  0.00    +0.028 HD
ENDBRANCH  28  97
BRANCH  21 101
ATOM    101  C   UNL     1     146.659 156.806 186.236  0.00  0.00    -0.057 C 
ATOM    102  H   UNL     1     146.396 157.158 185.235  0.00  0.00    +0.023 HD
ATOM    103  H   UNL     1     147.504 156.122 186.133  0.00  0.00    +0.023 HD
ATOM    104  H   UNL     1     145.814 156.224 186.617  0.00  0.00    +0.023 HD
ENDBRANCH  21 101
BRANCH  42 105
ATOM    105  C   UNL     1     146.626 165.713 190.949  0.00  0.00    -0.057 C 
ATOM    106  H   UNL     1     145.784 165.796 191.638  0.00  0.00    +0.023 HD
ATOM    107  H   UNL     1     147.498 166.216 191.374  0.00  0.00    +0.023 HD
ATOM    108  H   UNL     1     146.866 164.648 190.885  0.00  0.00    +0.023 HD
ENDBRANCH  42 105
BRANCH  17 109
ATOM    109  C   UNL     1     152.111 156.865 188.648  0.00  0.00    -0.058 C 
ATOM    110  H   UNL     1     151.532 157.306 189.459  0.00  0.00    +0.023 HD
ATOM    111  H   UNL     1     153.114 156.672 189.044  0.00  0.00    +0.023 HD
ATOM    112  H   UNL     1     151.665 155.905 188.389  0.00  0.00    +0.023 HD
ENDBRANCH  17 109
BRANCH  38 113
ATOM    113  C   UNL     1     143.612 166.928 184.892  0.00  0.00    -0.058 C 
ATOM    114  H   UNL     1     143.761 168.013 184.851  0.00  0.00    +0.023 HD
ATOM    115  H   UNL     1     143.390 166.578 183.871  0.00  0.00    +0.023 HD
ATOM    116  H   UNL     1     142.722 166.752 185.501  0.00  0.00    +0.023 HD
ENDBRANCH  38 113
BRANCH   7 117
ATOM    117  C   UNL     1     153.119 165.800 185.882  0.00  0.00    -0.040 C 
ATOM    118  H   UNL     1     153.170 164.716 186.008  0.00  0.00    +0.028 HD
ATOM    119  H   UNL     1     154.114 166.154 185.596  0.00  0.00    +0.028 HD
ATOM    120  H   UNL     1     152.456 166.024 185.039  0.00  0.00    +0.028 HD
ENDBRANCH   7 117
BRANCH   1 121
ATOM    121  C   UNL     1     146.637 168.861 190.044  0.00  0.00    +0.020 C 
ATOM    122  H   UNL     1     145.678 168.699 190.547  0.00  0.00    +0.036 HD
BRANCH 121 123
ATOM    123  C   UNL     1     147.661 169.154 191.156  0.00  0.00    -0.057 C 
ATOM    124  H   UNL     1     147.307 169.911 191.861  0.00  0.00    +0.023 HD
ATOM    125  H   UNL     1     147.899 168.249 191.722  0.00  0.00    +0.023 HD
ATOM    126  H   UNL     1     148.613 169.484 190.736  0.00  0.00    +0.023 HD
ENDBRANCH 121 123
BRANCH 121 127
ATOM    127  C   UNL     1     146.493 170.155 189.173  0.00  0.00    +0.064 C 
ATOM    128  H   UNL     1     146.982 170.984 189.700  0.00  0.00    +0.060 HD
BRANCH 127 129
ATOM    129  C   UNL     1     145.035 170.606 188.867  0.00  0.00    -0.017 C 
ATOM    130  H   UNL     1     144.952 171.688 189.002  0.00  0.00    +0.032 HD
BRANCH 129 131
ATOM    131  C   UNL     1     144.632 170.267 187.428  0.00  0.00    -0.060 C 
ATOM    132  H   UNL     1     144.383 171.158 186.845  0.00  0.00    +0.023 HD
ATOM    133  H   UNL     1     145.438 169.738 186.906  0.00  0.00    +0.023 HD
ATOM    134  H   UNL     1     143.744 169.625 187.415  0.00  0.00    +0.023 HD
ENDBRANCH 129 131
BRANCH 129 135
ATOM    135  C   UNL     1     143.986 169.965 189.812  0.00  0.00    -0.046 C 
ATOM    136  H   UNL     1     143.105 169.711 189.210  0.00  0.00    +0.027 HD
ATOM    137  H   UNL     1     144.363 169.019 190.218  0.00  0.00    +0.027 HD
BRANCH 135 138
ATOM    138  C   UNL     1     143.540 170.868 190.970  0.00  0.00    -0.026 C 
ATOM    139  H   UNL     1     143.458 170.280 191.888  0.00  0.00    +0.029 HD
ATOM    140  H   UNL     1     144.310 171.629 191.145  0.00  0.00    +0.029 HD
BRANCH 138 143
ATOM    141  C   UNL     1     142.953 173.585 189.701  0.00  0.00    +0.059 C 
ATOM    142  O   UNL     1     142.195 172.379 189.556  0.00  0.00    -0.373 OA
ATOM    143  C   UNL     1     142.177 171.532 190.710  0.00  0.00    +0.061 C 
ATOM    144  C   UNL     1     141.651 172.303 191.922  0.00  0.00    -0.000 C 
ATOM    145  C   UNL     1     142.428 173.597 192.151  0.00  0.00    +0.063 C 
ATOM    146  C   UNL     1     142.433 174.419 190.864  0.00  0.00    -0.000 C 
ATOM    147  H   UNL     1     144.007 173.329 189.852  0.00  0.00    +0.059 HD
ATOM    148  H   UNL     1     141.460 170.732 190.483  0.00  0.00    +0.060 HD
ATOM    149  H   UNL     1     140.594 172.555 191.751  0.00  0.00    +0.032 HD
ATOM    150  H   UNL     1     141.669 171.678 192.822  0.00  0.00    +0.032 HD
ATOM    151  H   UNL     1     143.455 173.355 192.449  0.00  0.00    +0.060 HD
ATOM    152  H   UNL     1     143.037 175.327 190.982  0.00  0.00    +0.032 HD
ATOM    153  H   UNL     1     141.406 174.758 190.661  0.00  0.00    +0.032 HD
BRANCH 141 154
ATOM    154  C   UNL     1     142.843 174.347 188.388  0.00  0.00    -0.039 C 
ATOM    155  H   UNL     1     141.814 174.358 188.015  0.00  0.00    +0.025 HD
ATOM    156  H   UNL     1     143.179 175.383 188.517  0.00  0.00    +0.025 HD
ATOM    157  H   UNL     1     143.490 173.902 187.624  0.00  0.00    +0.025 HD
ENDBRANCH 141 154
BRANCH 145 158
ATOM    158  O   UNL     1     141.793 174.291 193.230  0.00  0.00    -0.380 OA
BRANCH 158 159
ATOM    159  C   UNL     1     140.746 173.546 193.840  0.00  0.00    +0.037 C 
ATOM    160  H   UNL     1     140.019 174.254 194.245  0.00  0.00    +0.052 HD
ATOM    161  H   UNL     1     141.131 172.944 194.664  0.00  0.00    +0.052 HD
ATOM    162  H   UNL     1     140.233 172.908 193.114  0.00  0.00    +0.052 HD
ENDBRANCH 158 159
ENDBRANCH 145 158
ENDBRANCH 138 143
ENDBRANCH 135 138
ENDBRANCH 129 135
ENDBRANCH 127 129
BRANCH 127 163
ATOM    163  O   UNL     1     147.200 169.981 187.947  0.00  0.00    -0.391 OA
ATOM    164  H   UNL     1     148.089 170.357 188.053  0.00  0.00    +0.210 HD
ENDBRANCH 127 163
ENDBRANCH 121 127
ENDBRANCH   1 121
BRANCH  41 165
ATOM    165  O   UNL     1     144.211 164.965 189.683  0.00  0.00    -0.391 OA
ATOM    166  H   UNL     1     144.855 164.537 190.276  0.00  0.00    +0.210 HD
ENDBRANCH  41 165
BRANCH  39 167
ATOM    167  O   UNL     1     145.354 164.541 187.209  0.00  0.00    -0.391 OA
ATOM    168  H   UNL     1     145.334 163.853 186.510  0.00  0.00    +0.210 HD
ENDBRANCH  39 167
BRANCH  31 169
ATOM    169  O   UNL     1     150.272 162.257 180.786  0.00  0.00    -0.391 OA
ATOM    170  H   UNL     1     150.970 162.305 180.108  0.00  0.00    +0.210 HD
ENDBRANCH  31 169
BRANCH  22 171
ATOM    171  C   UNL     1     146.066 160.219 188.165  0.00  0.00    +0.020 C 
ATOM    172  H   UNL     1     147.134 160.443 188.188  0.00  0.00    +0.036 HD
BRANCH 171 173
ATOM    173  C   UNL     1     145.435 161.509 187.607  0.00  0.00    -0.057 C 
ATOM    174  H   UNL     1     144.630 161.866 188.259  0.00  0.00    +0.023 HD
ATOM    175  H   UNL     1     146.177 162.313 187.537  0.00  0.00    +0.023 HD
ATOM    176  H   UNL     1     145.035 161.358 186.599  0.00  0.00    +0.023 HD
ENDBRANCH 171 173
BRANCH 171 177
ATOM    177  C   UNL     1     145.548 160.031 189.633  0.00  0.00    +0.064 C 
ATOM    178  H   UNL     1     145.150 160.990 189.996  0.00  0.00    +0.060 HD
BRANCH 177 179
ATOM    179  O   UNL     1     144.438 159.136 189.670  0.00  0.00    -0.391 OA
ATOM    180  H   UNL     1     144.704 158.355 190.188  0.00  0.00    +0.210 HD
ENDBRANCH 177 179
BRANCH 177 181
ATOM    181  C   UNL     1     146.644 159.553 190.648  0.00  0.00    -0.017 C 
ATOM    182  H   UNL     1     146.470 160.071 191.602  0.00  0.00    +0.032 HD
BRANCH 181 183
ATOM    183  C   UNL     1     146.561 158.035 190.881  0.00  0.00    -0.060 C 
ATOM    184  H   UNL     1     146.477 157.519 189.919  0.00  0.00    +0.023 HD
ATOM    185  H   UNL     1     145.707 157.746 191.499  0.00  0.00    +0.023 HD
ATOM    186  H   UNL     1     147.440 157.658 191.409  0.00  0.00    +0.023 HD
ENDBRANCH 181 183
BRANCH 181 187
ATOM    187  C   UNL     1     148.073 159.940 190.161  0.00  0.00    -0.046 C 
ATOM    188  H   UNL     1     148.010 160.322 189.139  0.00  0.00    +0.027 HD
ATOM    189  H   UNL     1     148.678 159.026 190.138  0.00  0.00    +0.027 HD
BRANCH 187 190
ATOM    190  C   UNL     1     148.777 160.996 191.035  0.00  0.00    -0.026 C 
ATOM    191  H   UNL     1     149.809 160.671 191.196  0.00  0.00    +0.029 HD
ATOM    192  H   UNL     1     148.291 161.019 192.018  0.00  0.00    +0.029 HD
BRANCH 190 193
ATOM    193  C   UNL     1     148.881 162.441 190.500  0.00  0.00    +0.061 C 
ATOM    194  O   UNL     1     149.512 162.524 189.222  0.00  0.00    -0.373 OA
ATOM    195  C   UNL     1     150.931 162.617 189.218  0.00  0.00    +0.059 C 
ATOM    196  C   UNL     1     151.419 163.784 190.065  0.00  0.00    -0.000 C 
ATOM    197  C   UNL     1     150.895 163.656 191.499  0.00  0.00    +0.063 C 
ATOM    198  C   UNL     1     149.375 163.508 191.479  0.00  0.00    -0.000 C 
ATOM    199  H   UNL     1     147.839 162.711 190.281  0.00  0.00    +0.060 HD
ATOM    200  H   UNL     1     151.352 161.675 189.584  0.00  0.00    +0.059 HD
ATOM    201  H   UNL     1     152.514 163.822 190.060  0.00  0.00    +0.032 HD
ATOM    202  H   UNL     1     151.073 164.739 189.652  0.00  0.00    +0.032 HD
ATOM    203  H   UNL     1     151.351 162.787 191.977  0.00  0.00    +0.060 HD
ATOM    204  H   UNL     1     148.961 164.475 191.160  0.00  0.00    +0.032 HD
ATOM    205  H   UNL     1     148.982 163.340 192.488  0.00  0.00    +0.032 HD
BRANCH 195 206
ATOM    206  C   UNL     1     151.371 162.801 187.771  0.00  0.00    -0.039 C 
ATOM    207  H   UNL     1     151.190 163.823 187.435  0.00  0.00    +0.025 HD
ATOM    208  H   UNL     1     152.434 162.579 187.656  0.00  0.00    +0.025 HD
ATOM    209  H   UNL     1     150.834 162.119 187.107  0.00  0.00    +0.025 HD
ENDBRANCH 195 206
BRANCH 197 210
ATOM    210  O   UNL     1     151.192 164.802 192.306  0.00  0.00    -0.380 OA
BRANCH 210 211
ATOM    211  C   UNL     1     151.710 165.906 191.581  0.00  0.00    +0.037 C 
ATOM    212  H   UNL     1     152.790 165.967 191.714  0.00  0.00    +0.052 HD
ATOM    213  H   UNL     1     151.515 165.739 190.518  0.00  0.00    +0.052 HD
ATOM    214  H   UNL     1     151.233 166.841 191.882  0.00  0.00    +0.052 HD
ENDBRANCH 210 211
ENDBRANCH 197 210
ENDBRANCH 190 193
ENDBRANCH 187 190
ENDBRANCH 181 187
ENDBRANCH 177 181
ENDBRANCH 171 177
ENDBRANCH  22 171
BRANCH  20 215
ATOM    215  O   UNL     1     148.506 158.944 185.398  0.00  0.00    -0.391 OA
ATOM    216  H   UNL     1     149.120 159.692 185.302  0.00  0.00    +0.210 HD
ENDBRANCH  20 215
BRANCH  18 217
ATOM    217  O   UNL     1     151.014 159.498 186.162  0.00  0.00    -0.391 OA
ATOM    218  H   UNL     1     150.190 159.499 185.630  0.00  0.00    +0.210 HD
ENDBRANCH  18 217
BRANCH  10 219
ATOM    219  O   UNL     1     156.707 165.307 189.516  0.00  0.00    -0.391 OA
ATOM    220  H   UNL     1     157.121 164.915 188.727  0.00  0.00    +0.210 HD
ENDBRANCH  10 219
BRANCH  37 221
ATOM    221  O   UNL     1     145.344 165.679 183.135  0.00  0.00    -0.379 OA
BRANCH 221 222
ATOM    222  C   UNL     1     144.521 164.871 182.304  0.00  0.00    +0.037 C 
ATOM    223  H   UNL     1     144.714 165.085 181.248  0.00  0.00    +0.052 HD
ATOM    224  H   UNL     1     143.461 165.030 182.523  0.00  0.00    +0.052 HD
ATOM    225  H   UNL     1     144.757 163.818 182.494  0.00  0.00    +0.052 HD
ENDBRANCH 221 222
ENDBRANCH  37 221
BRANCH  16 226
ATOM    226  O   UNL     1     153.770 159.365 186.276  0.00  0.00    -0.379 OA
BRANCH 226 227
ATOM    227  C   UNL     1     154.374 158.561 185.273  0.00  0.00    +0.037 C 
ATOM    228  H   UNL     1     155.050 159.197 184.697  0.00  0.00    +0.052 HD
ATOM    229  H   UNL     1     154.963 157.751 185.717  0.00  0.00    +0.052 HD
ATOM    230  H   UNL     1     153.627 158.156 184.585  0.00  0.00    +0.052 HD
ENDBRANCH 226 227
ENDBRANCH  16 226
TORSDOF 40
ENDMDL
MODEL 9
REMARK VINA RESULT:      -4.7      1.645      2.369
REMARK  Name = Swinholide A_conf2
REMARK  40 active torsions:
REMARK  status: ('A' for Active; 'I' for Inactive)
REMARK    1  A    between atoms: C_1  and  C_2
REMARK    2  A    between atoms: C_4  and  C_10
REMARK    3  A    between atoms: C_6  and  O_8
REMARK    4  A    between atoms: O_8  and  C_9
REMARK    5  A    between atoms: C_10  and  C_11
REMARK    6  A    between atoms: C_11  and  C_12
REMARK    7  A    between atoms: C_12  and  C_13
REMARK    8  A    between atoms: C_12  and  C_98
REMARK    9  A    between atoms: C_13  and  O_14
REMARK   10  A    between atoms: C_13  and  C_15
REMARK   11  A    between atoms: C_15  and  C_16
REMARK   12  A    between atoms: C_15  and  C_97
REMARK   13  A    between atoms: C_22  and  C_96
REMARK   14  A    between atoms: C_25  and  O_95
REMARK   15  A    between atoms: C_31  and  O_90
REMARK   16  A    between atoms: C_32  and  C_89
REMARK   17  A    between atoms: C_33  and  O_88
REMARK   18  A    between atoms: C_35  and  O_87
REMARK   19  A    between atoms: C_36  and  C_86
REMARK   20  A    between atoms: C_37  and  C_69
REMARK   21  A    between atoms: C_43  and  C_68
REMARK   22  A    between atoms: C_46  and  O_67
REMARK   23  A    between atoms: C_52  and  O_62
REMARK   24  A    between atoms: C_53  and  C_61
REMARK   25  A    between atoms: C_54  and  O_60
REMARK   26  A    between atoms: C_56  and  O_59
REMARK   27  A    between atoms: C_57  and  C_58
REMARK   28  A    between atoms: O_62  and  C_63
REMARK   29  A    between atoms: C_69  and  C_70
REMARK   30  A    between atoms: C_69  and  C_85
REMARK   31  A    between atoms: C_70  and  O_71
REMARK   32  A    between atoms: C_70  and  C_72
REMARK   33  A    between atoms: C_72  and  C_73
REMARK   34  A    between atoms: C_72  and  C_84
REMARK   35  A    between atoms: C_73  and  C_74
REMARK   36  A    between atoms: C_74  and  C_75
REMARK   37  A    between atoms: C_77  and  C_83
REMARK   38  A    between atoms: C_79  and  O_81
REMARK   39  A    between atoms: O_81  and  C_82
REMARK   40  A    between atoms: O_90  and  C_91
REMARK                            x       y       z     vdW  Elec       q    Type
REMARK                         _______ _______ _______ _____ _____    ______ ____
ROOT
ATOM      1  C   UNL     1     148.461 167.271 190.043  0.00  0.00    +0.113 C 
ATOM      2  O   UNL     1     149.846 166.847 189.951  0.00  0.00    -0.458 OA
ATOM      3  C   UNL     1     150.423 166.961 188.731  0.00  0.00    +0.332 C 
ATOM      4  O   UNL     1     149.918 167.411 187.718  0.00  0.00    -0.246 OA
ATOM      5  C   UNL     1     151.790 166.398 188.802  0.00  0.00    +0.023 C 
ATOM      6  C   UNL     1     152.592 166.489 187.729  0.00  0.00    -0.052 C 
ATOM      7  C   UNL     1     153.927 165.917 187.600  0.00  0.00    -0.054 C 
ATOM      8  C   UNL     1     154.764 165.789 188.648  0.00  0.00    -0.079 C 
ATOM      9  C   UNL     1     156.182 165.277 188.601  0.00  0.00    -0.008 C 
ATOM     10  C   UNL     1     156.401 163.947 189.351  0.00  0.00    +0.061 C 
ATOM     11  C   UNL     1     155.757 162.753 188.629  0.00  0.00    +0.003 C 
ATOM     12  C   UNL     1     156.135 161.374 189.211  0.00  0.00    +0.080 C 
ATOM     13  O   UNL     1     155.090 160.411 188.950  0.00  0.00    -0.369 OA
ATOM     14  C   UNL     1     155.100 159.884 187.609  0.00  0.00    +0.065 C 
ATOM     15  C   UNL     1     153.849 158.997 187.471  0.00  0.00    +0.000 C 
ATOM     16  C   UNL     1     153.735 158.235 186.132  0.00  0.00    +0.066 C 
ATOM     17  C   UNL     1     152.335 157.566 185.915  0.00  0.00    +0.009 C 
ATOM     18  C   UNL     1     151.144 158.554 185.986  0.00  0.00    +0.063 C 
ATOM     19  C   UNL     1     149.774 157.894 185.686  0.00  0.00    -0.000 C 
ATOM     20  C   UNL     1     148.683 158.972 185.599  0.00  0.00    +0.064 C 
ATOM     21  C   UNL     1     147.247 158.448 185.861  0.00  0.00    +0.020 C 
ATOM     22  C   UNL     1     146.233 159.598 186.162  0.00  0.00    +0.113 C 
ATOM     23  O   UNL     1     146.231 160.409 184.954  0.00  0.00    -0.458 OA
ATOM     24  C   UNL     1     145.068 160.865 184.442  0.00  0.00    +0.332 C 
ATOM     25  O   UNL     1     143.959 160.809 184.974  0.00  0.00    -0.246 OA
ATOM     26  C   UNL     1     145.279 161.478 183.112  0.00  0.00    +0.023 C 
ATOM     27  C   UNL     1     146.497 161.676 182.567  0.00  0.00    -0.052 C 
ATOM     28  C   UNL     1     146.810 162.285 181.276  0.00  0.00    -0.054 C 
ATOM     29  C   UNL     1     148.109 162.482 180.968  0.00  0.00    -0.079 C 
ATOM     30  C   UNL     1     148.688 163.156 179.757  0.00  0.00    -0.008 C 
ATOM     31  C   UNL     1     149.780 164.210 180.033  0.00  0.00    +0.061 C 
ATOM     32  C   UNL     1     149.353 165.460 180.830  0.00  0.00    +0.003 C 
ATOM     33  C   UNL     1     149.387 165.467 182.372  0.00  0.00    +0.080 C 
ATOM     34  O   UNL     1     148.335 164.651 182.895  0.00  0.00    -0.369 OA
ATOM     35  C   UNL     1     148.362 164.456 184.313  0.00  0.00    +0.065 C 
ATOM     36  C   UNL     1     148.072 165.736 185.116  0.00  0.00    +0.000 C 
ATOM     37  C   UNL     1     146.606 166.203 184.944  0.00  0.00    +0.066 C 
ATOM     38  C   UNL     1     146.140 167.043 186.167  0.00  0.00    +0.009 C 
ATOM     39  C   UNL     1     145.667 166.160 187.359  0.00  0.00    +0.063 C 
ATOM     40  C   UNL     1     145.620 166.953 188.692  0.00  0.00    -0.000 C 
ATOM     41  C   UNL     1     146.066 166.225 189.967  0.00  0.00    +0.064 C 
ATOM     42  C   UNL     1     147.589 165.978 190.109  0.00  0.00    +0.020 C 
ATOM     43  C   UNL     1     149.671 163.761 184.727  0.00  0.00    -0.008 C 
ATOM     44  C   UNL     1     150.872 164.323 184.029  0.00  0.00    -0.083 C 
ATOM     45  C   UNL     1     150.727 165.111 182.960  0.00  0.00    -0.059 C 
ATOM     46  C   UNL     1     156.397 159.103 187.353  0.00  0.00    -0.008 C 
ATOM     47  C   UNL     1     157.598 159.845 187.855  0.00  0.00    -0.083 C 
ATOM     48  C   UNL     1     157.467 160.864 188.713  0.00  0.00    -0.059 C 
ATOM     49  H   UNL     1     148.175 167.765 189.115  0.00  0.00    +0.074 HD
ATOM     50  H   UNL     1     152.075 165.902 189.717  0.00  0.00    +0.069 HD
ATOM     51  H   UNL     1     152.217 166.986 186.834  0.00  0.00    +0.062 HD
ATOM     52  H   UNL     1     154.445 166.125 189.634  0.00  0.00    +0.058 HD
ATOM     53  H   UNL     1     156.819 166.049 189.051  0.00  0.00    +0.033 HD
ATOM     54  H   UNL     1     156.558 165.180 187.578  0.00  0.00    +0.033 HD
ATOM     55  H   UNL     1     155.987 164.023 190.359  0.00  0.00    +0.060 HD
ATOM     56  H   UNL     1     154.667 162.867 188.654  0.00  0.00    +0.032 HD
ATOM     57  H   UNL     1     156.033 162.774 187.568  0.00  0.00    +0.032 HD
ATOM     58  H   UNL     1     156.182 161.446 190.302  0.00  0.00    +0.064 HD
ATOM     59  H   UNL     1     155.012 160.721 186.906  0.00  0.00    +0.060 HD
ATOM     60  H   UNL     1     153.807 158.282 188.302  0.00  0.00    +0.032 HD
ATOM     61  H   UNL     1     152.987 159.662 187.610  0.00  0.00    +0.032 HD
ATOM     62  H   UNL     1     154.489 157.434 186.145  0.00  0.00    +0.060 HD
ATOM     63  H   UNL     1     152.337 157.148 184.903  0.00  0.00    +0.035 HD
ATOM     64  H   UNL     1     151.074 158.972 186.997  0.00  0.00    +0.060 HD
ATOM     65  H   UNL     1     149.532 157.178 186.482  0.00  0.00    +0.032 HD
ATOM     66  H   UNL     1     149.832 157.348 184.740  0.00  0.00    +0.032 HD
ATOM     67  H   UNL     1     148.925 159.729 186.345  0.00  0.00    +0.060 HD
ATOM     68  H   UNL     1     147.303 157.791 186.735  0.00  0.00    +0.036 HD
ATOM     69  H   UNL     1     145.238 159.161 186.313  0.00  0.00    +0.074 HD
ATOM     70  H   UNL     1     144.366 161.784 182.616  0.00  0.00    +0.069 HD
ATOM     71  H   UNL     1     147.370 161.391 183.154  0.00  0.00    +0.062 HD
ATOM     72  H   UNL     1     148.864 162.163 181.690  0.00  0.00    +0.058 HD
ATOM     73  H   UNL     1     149.127 162.364 179.135  0.00  0.00    +0.033 HD
ATOM     74  H   UNL     1     147.912 163.633 179.156  0.00  0.00    +0.033 HD
ATOM     75  H   UNL     1     150.048 164.586 179.038  0.00  0.00    +0.060 HD
ATOM     76  H   UNL     1     148.343 165.744 180.505  0.00  0.00    +0.032 HD
ATOM     77  H   UNL     1     150.015 166.271 180.511  0.00  0.00    +0.032 HD
ATOM     78  H   UNL     1     149.165 166.500 182.660  0.00  0.00    +0.064 HD
ATOM     79  H   UNL     1     147.557 163.743 184.536  0.00  0.00    +0.060 HD
ATOM     80  H   UNL     1     148.751 166.544 184.824  0.00  0.00    +0.032 HD
ATOM     81  H   UNL     1     148.290 165.525 186.170  0.00  0.00    +0.032 HD
ATOM     82  H   UNL     1     145.936 165.340 184.835  0.00  0.00    +0.060 HD
ATOM     83  H   UNL     1     147.000 167.644 186.490  0.00  0.00    +0.035 HD
ATOM     84  H   UNL     1     144.648 165.811 187.139  0.00  0.00    +0.060 HD
ATOM     85  H   UNL     1     144.570 167.257 188.832  0.00  0.00    +0.032 HD
ATOM     86  H   UNL     1     146.159 167.897 188.593  0.00  0.00    +0.032 HD
ATOM     87  H   UNL     1     145.733 166.798 190.838  0.00  0.00    +0.060 HD
ATOM     88  H   UNL     1     147.919 165.357 189.265  0.00  0.00    +0.036 HD
ATOM     89  H   UNL     1     149.811 163.815 185.813  0.00  0.00    +0.033 HD
ATOM     90  H   UNL     1     149.617 162.699 184.455  0.00  0.00    +0.033 HD
ATOM     91  H   UNL     1     151.857 164.040 184.386  0.00  0.00    +0.057 HD
ATOM     92  H   UNL     1     151.612 165.508 182.462  0.00  0.00    +0.059 HD
ATOM     93  H   UNL     1     156.366 158.128 187.851  0.00  0.00    +0.033 HD
ATOM     94  H   UNL     1     156.514 158.920 186.279  0.00  0.00    +0.033 HD
ATOM     95  H   UNL     1     158.577 159.521 187.528  0.00  0.00    +0.057 HD
ATOM     96  H   UNL     1     158.357 161.380 189.065  0.00  0.00    +0.059 HD
ENDROOT
BRANCH  28  97
ATOM     97  C   UNL     1     145.657 162.670 180.384  0.00  0.00    -0.040 C 
ATOM     98  H   UNL     1     145.947 162.587 179.332  0.00  0.00    +0.028 HD
ATOM     99  H   UNL     1     145.325 163.704 180.518  0.00  0.00    +0.028 HD
ATOM    100  H   UNL     1     144.791 162.023 180.564  0.00  0.00    +0.028 HD
ENDBRANCH  28  97
BRANCH  21 101
ATOM    101  C   UNL     1     146.720 157.579 184.711  0.00  0.00    -0.057 C 
ATOM    102  H   UNL     1     145.809 158.002 184.280  0.00  0.00    +0.023 HD
ATOM    103  H   UNL     1     147.464 157.516 183.914  0.00  0.00    +0.023 HD
ATOM    104  H   UNL     1     146.495 156.556 185.027  0.00  0.00    +0.023 HD
ENDBRANCH  21 101
BRANCH  42 105
ATOM    105  C   UNL     1     147.876 165.088 191.331  0.00  0.00    -0.057 C 
ATOM    106  H   UNL     1     148.894 164.697 191.312  0.00  0.00    +0.023 HD
ATOM    107  H   UNL     1     147.167 164.260 191.410  0.00  0.00    +0.023 HD
ATOM    108  H   UNL     1     147.791 165.676 192.248  0.00  0.00    +0.023 HD
ENDBRANCH  42 105
BRANCH  17 109
ATOM    109  C   UNL     1     152.145 156.391 186.881  0.00  0.00    -0.058 C 
ATOM    110  H   UNL     1     151.396 155.690 186.513  0.00  0.00    +0.023 HD
ATOM    111  H   UNL     1     151.793 156.748 187.853  0.00  0.00    +0.023 HD
ATOM    112  H   UNL     1     153.075 155.846 187.043  0.00  0.00    +0.023 HD
ENDBRANCH  17 109
BRANCH  38 113
ATOM    113  C   UNL     1     145.018 168.039 185.820  0.00  0.00    -0.058 C 
ATOM    114  H   UNL     1     144.850 168.770 186.620  0.00  0.00    +0.023 HD
ATOM    115  H   UNL     1     145.261 168.595 184.900  0.00  0.00    +0.023 HD
ATOM    116  H   UNL     1     144.067 167.526 185.655  0.00  0.00    +0.023 HD
ENDBRANCH  38 113
BRANCH   7 117
ATOM    117  C   UNL     1     154.300 165.523 186.194  0.00  0.00    -0.040 C 
ATOM    118  H   UNL     1     153.495 164.942 185.737  0.00  0.00    +0.028 HD
ATOM    119  H   UNL     1     155.207 164.911 186.180  0.00  0.00    +0.028 HD
ATOM    120  H   UNL     1     154.504 166.395 185.563  0.00  0.00    +0.028 HD
ENDBRANCH   7 117
BRANCH   1 121
ATOM    121  C   UNL     1     148.295 168.333 191.169  0.00  0.00    +0.020 C 
ATOM    122  H   UNL     1     147.351 168.147 191.691  0.00  0.00    +0.036 HD
BRANCH 121 123
ATOM    123  C   UNL     1     149.397 168.278 192.244  0.00  0.00    -0.057 C 
ATOM    124  H   UNL     1     150.401 168.270 191.812  0.00  0.00    +0.023 HD
ATOM    125  H   UNL     1     149.327 169.131 192.925  0.00  0.00    +0.023 HD
ATOM    126  H   UNL     1     149.281 167.397 192.879  0.00  0.00    +0.023 HD
ENDBRANCH 121 123
BRANCH 121 127
ATOM    127  C   UNL     1     148.241 169.797 190.614  0.00  0.00    +0.064 C 
ATOM    128  H   UNL     1     149.270 170.149 190.465  0.00  0.00    +0.060 HD
BRANCH 127 129
ATOM    129  C   UNL     1     147.530 170.840 191.525  0.00  0.00    -0.017 C 
ATOM    130  H   UNL     1     147.307 170.384 192.494  0.00  0.00    +0.032 HD
BRANCH 129 131
ATOM    131  C   UNL     1     148.410 172.071 191.762  0.00  0.00    -0.060 C 
ATOM    132  H   UNL     1     148.383 172.770 190.922  0.00  0.00    +0.023 HD
ATOM    133  H   UNL     1     148.098 172.614 192.662  0.00  0.00    +0.023 HD
ATOM    134  H   UNL     1     149.459 171.779 191.892  0.00  0.00    +0.023 HD
ENDBRANCH 129 131
BRANCH 129 135
ATOM    135  C   UNL     1     146.177 171.332 190.951  0.00  0.00    -0.046 C 
ATOM    136  H   UNL     1     146.309 171.489 189.873  0.00  0.00    +0.027 HD
ATOM    137  H   UNL     1     145.410 170.556 191.057  0.00  0.00    +0.027 HD
BRANCH 135 138
ATOM    138  C   UNL     1     145.662 172.638 191.573  0.00  0.00    -0.026 C 
ATOM    139  H   UNL     1     145.194 172.428 192.538  0.00  0.00    +0.029 HD
ATOM    140  H   UNL     1     146.515 173.300 191.768  0.00  0.00    +0.029 HD
BRANCH 138 143
ATOM    141  C   UNL     1     143.301 174.382 192.422  0.00  0.00    +0.059 C 
ATOM    142  O   UNL     1     144.139 174.557 191.274  0.00  0.00    -0.373 OA
ATOM    143  C   UNL     1     144.623 173.345 190.686  0.00  0.00    +0.061 C 
ATOM    144  C   UNL     1     143.451 172.438 190.307  0.00  0.00    -0.000 C 
ATOM    145  C   UNL     1     142.520 172.190 191.492  0.00  0.00    +0.063 C 
ATOM    146  C   UNL     1     142.085 173.528 192.083  0.00  0.00    -0.000 C 
ATOM    147  H   UNL     1     143.885 173.918 193.224  0.00  0.00    +0.059 HD
ATOM    148  H   UNL     1     145.131 173.644 189.759  0.00  0.00    +0.060 HD
ATOM    149  H   UNL     1     142.874 172.921 189.504  0.00  0.00    +0.032 HD
ATOM    150  H   UNL     1     143.807 171.489 189.891  0.00  0.00    +0.032 HD
ATOM    151  H   UNL     1     143.047 171.595 192.247  0.00  0.00    +0.060 HD
ATOM    152  H   UNL     1     141.465 173.379 192.975  0.00  0.00    +0.032 HD
ATOM    153  H   UNL     1     141.449 174.046 191.350  0.00  0.00    +0.032 HD
BRANCH 141 154
ATOM    154  C   UNL     1     142.884 175.767 192.891  0.00  0.00    -0.039 C 
ATOM    155  H   UNL     1     141.796 175.881 192.894  0.00  0.00    +0.025 HD
ATOM    156  H   UNL     1     143.258 175.957 193.904  0.00  0.00    +0.025 HD
ATOM    157  H   UNL     1     143.317 176.543 192.249  0.00  0.00    +0.025 HD
ENDBRANCH 141 154
BRANCH 145 158
ATOM    158  O   UNL     1     141.408 171.429 191.009  0.00  0.00    -0.380 OA
BRANCH 158 159
ATOM    159  C   UNL     1     140.154 172.064 191.224  0.00  0.00    +0.037 C 
ATOM    160  H   UNL     1     139.964 172.732 190.380  0.00  0.00    +0.052 HD
ATOM    161  H   UNL     1     140.178 172.664 192.134  0.00  0.00    +0.052 HD
ATOM    162  H   UNL     1     139.339 171.335 191.272  0.00  0.00    +0.052 HD
ENDBRANCH 158 159
ENDBRANCH 145 158
ENDBRANCH 138 143
ENDBRANCH 135 138
ENDBRANCH 129 135
ENDBRANCH 127 129
BRANCH 127 163
ATOM    163  O   UNL     1     147.623 169.793 189.329  0.00  0.00    -0.391 OA
ATOM    164  H   UNL     1     146.674 169.625 189.449  0.00  0.00    +0.210 HD
ENDBRANCH 127 163
ENDBRANCH 121 127
ENDBRANCH   1 121
BRANCH  41 165
ATOM    165  O   UNL     1     145.378 164.964 190.012  0.00  0.00    -0.391 OA
ATOM    166  H   UNL     1     145.602 164.484 189.194  0.00  0.00    +0.210 HD
ENDBRANCH  41 165
BRANCH  39 167
ATOM    167  O   UNL     1     146.444 164.982 187.469  0.00  0.00    -0.391 OA
ATOM    168  H   UNL     1     145.857 164.227 187.251  0.00  0.00    +0.210 HD
ENDBRANCH  39 167
BRANCH  31 169
ATOM    169  O   UNL     1     150.989 163.640 180.526  0.00  0.00    -0.391 OA
ATOM    170  H   UNL     1     150.852 163.377 181.454  0.00  0.00    +0.210 HD
ENDBRANCH  31 169
BRANCH  22 171
ATOM    171  C   UNL     1     146.589 160.502 187.388  0.00  0.00    +0.020 C 
ATOM    172  H   UNL     1     147.487 160.082 187.844  0.00  0.00    +0.036 HD
BRANCH 171 173
ATOM    173  C   UNL     1     147.030 161.906 186.935  0.00  0.00    -0.057 C 
ATOM    174  H   UNL     1     147.952 161.857 186.344  0.00  0.00    +0.023 HD
ATOM    175  H   UNL     1     146.266 162.376 186.304  0.00  0.00    +0.023 HD
ATOM    176  H   UNL     1     147.191 162.573 187.788  0.00  0.00    +0.023 HD
ENDBRANCH 171 173
BRANCH 171 177
ATOM    177  C   UNL     1     145.487 160.680 188.490  0.00  0.00    +0.064 C 
ATOM    178  H   UNL     1     145.362 161.753 188.697  0.00  0.00    +0.060 HD
BRANCH 177 179
ATOM    179  O   UNL     1     144.215 160.247 188.012  0.00  0.00    -0.391 OA
ATOM    180  H   UNL     1     143.618 160.180 188.778  0.00  0.00    +0.210 HD
ENDBRANCH 177 179
BRANCH 177 181
ATOM    181  C   UNL     1     145.812 159.964 189.847  0.00  0.00    -0.017 C 
ATOM    182  H   UNL     1     145.538 160.647 190.663  0.00  0.00    +0.032 HD
BRANCH 181 183
ATOM    183  C   UNL     1     145.006 158.662 189.995  0.00  0.00    -0.060 C 
ATOM    184  H   UNL     1     145.253 157.982 189.174  0.00  0.00    +0.023 HD
ATOM    185  H   UNL     1     143.926 158.827 189.989  0.00  0.00    +0.023 HD
ATOM    186  H   UNL     1     145.216 158.162 190.943  0.00  0.00    +0.023 HD
ENDBRANCH 181 183
BRANCH 181 187
ATOM    187  C   UNL     1     147.335 159.666 189.980  0.00  0.00    -0.046 C 
ATOM    188  H   UNL     1     147.726 159.367 189.004  0.00  0.00    +0.027 HD
ATOM    189  H   UNL     1     147.452 158.814 190.660  0.00  0.00    +0.027 HD
BRANCH 187 190
ATOM    190  C   UNL     1     148.172 160.852 190.500  0.00  0.00    -0.026 C 
ATOM    191  H   UNL     1     147.980 160.960 191.571  0.00  0.00    +0.029 HD
ATOM    192  H   UNL     1     147.816 161.770 190.016  0.00  0.00    +0.029 HD
BRANCH 190 193
ATOM    193  C   UNL     1     149.708 160.782 190.363  0.00  0.00    +0.061 C 
ATOM    194  O   UNL     1     150.389 161.767 191.140  0.00  0.00    -0.373 OA
ATOM    195  C   UNL     1     150.577 163.039 190.531  0.00  0.00    +0.059 C 
ATOM    196  C   UNL     1     151.288 162.918 189.191  0.00  0.00    -0.000 C 
ATOM    197  C   UNL     1     150.507 161.987 188.257  0.00  0.00    +0.063 C 
ATOM    198  C   UNL     1     150.271 160.646 188.948  0.00  0.00    -0.000 C 
ATOM    199  H   UNL     1     149.970 159.842 190.869  0.00  0.00    +0.060 HD
ATOM    200  H   UNL     1     149.604 163.524 190.407  0.00  0.00    +0.059 HD
ATOM    201  H   UNL     1     151.403 163.907 188.735  0.00  0.00    +0.032 HD
ATOM    202  H   UNL     1     152.299 162.514 189.318  0.00  0.00    +0.032 HD
ATOM    203  H   UNL     1     149.551 162.449 187.997  0.00  0.00    +0.060 HD
ATOM    204  H   UNL     1     151.248 160.146 189.020  0.00  0.00    +0.032 HD
ATOM    205  H   UNL     1     149.650 159.987 188.329  0.00  0.00    +0.032 HD
BRANCH 195 206
ATOM    206  C   UNL     1     151.408 163.883 191.490  0.00  0.00    -0.039 C 
ATOM    207  H   UNL     1     152.448 163.936 191.163  0.00  0.00    +0.025 HD
ATOM    208  H   UNL     1     151.012 164.899 191.555  0.00  0.00    +0.025 HD
ATOM    209  H   UNL     1     151.383 163.470 192.500  0.00  0.00    +0.025 HD
ENDBRANCH 195 206
BRANCH 197 210
ATOM    210  O   UNL     1     151.202 161.711 187.034  0.00  0.00    -0.380 OA
BRANCH 210 211
ATOM    211  C   UNL     1     152.425 162.416 186.889  0.00  0.00    +0.037 C 
ATOM    212  H   UNL     1     152.762 162.783 187.859  0.00  0.00    +0.052 HD
ATOM    213  H   UNL     1     153.180 161.718 186.518  0.00  0.00    +0.052 HD
ATOM    214  H   UNL     1     152.329 163.240 186.179  0.00  0.00    +0.052 HD
ENDBRANCH 210 211
ENDBRANCH 197 210
ENDBRANCH 190 193
ENDBRANCH 187 190
ENDBRANCH 181 187
ENDBRANCH 177 181
ENDBRANCH 171 177
ENDBRANCH  22 171
BRANCH  20 215
ATOM    215  O   UNL     1     148.827 159.602 184.319  0.00  0.00    -0.391 OA
ATOM    216  H   UNL     1     147.944 159.822 183.976  0.00  0.00    +0.210 HD
ENDBRANCH  20 215
BRANCH  18 217
ATOM    217  O   UNL     1     151.390 159.643 185.102  0.00  0.00    -0.391 OA
ATOM    218  H   UNL     1     150.728 159.644 184.377  0.00  0.00    +0.210 HD
ENDBRANCH  18 217
BRANCH  10 219
ATOM    219  O   UNL     1     157.810 163.755 189.492  0.00  0.00    -0.391 OA
ATOM    220  H   UNL     1     158.174 163.562 188.609  0.00  0.00    +0.210 HD
ENDBRANCH  10 219
BRANCH  37 221
ATOM    221  O   UNL     1     146.563 167.022 183.765  0.00  0.00    -0.379 OA
BRANCH 221 222
ATOM    222  C   UNL     1     145.637 166.538 182.801  0.00  0.00    +0.037 C 
ATOM    223  H   UNL     1     145.224 165.574 183.116  0.00  0.00    +0.052 HD
ATOM    224  H   UNL     1     146.107 166.434 181.819  0.00  0.00    +0.052 HD
ATOM    225  H   UNL     1     144.814 167.256 182.714  0.00  0.00    +0.052 HD
ENDBRANCH 221 222
ENDBRANCH  37 221
BRANCH  16 226
ATOM    226  O   UNL     1     154.105 159.141 185.085  0.00  0.00    -0.379 OA
BRANCH 226 227
ATOM    227  C   UNL     1     154.599 158.521 183.907  0.00  0.00    +0.037 C 
ATOM    228  H   UNL     1     155.250 159.238 183.400  0.00  0.00    +0.052 HD
ATOM    229  H   UNL     1     155.193 157.632 184.148  0.00  0.00    +0.052 HD
ATOM    230  H   UNL     1     153.786 158.263 183.222  0.00  0.00    +0.052 HD
ENDBRANCH 226 227
ENDBRANCH  16 226
TORSDOF 40
ENDMDL
MODEL 10
REMARK VINA RESULT:      -4.6      9.615     18.193
REMARK  Name = Swinholide A_conf2
REMARK  40 active torsions:
REMARK  status: ('A' for Active; 'I' for Inactive)
REMARK    1  A    between atoms: C_1  and  C_2
REMARK    2  A    between atoms: C_4  and  C_10
REMARK    3  A    between atoms: C_6  and  O_8
REMARK    4  A    between atoms: O_8  and  C_9
REMARK    5  A    between atoms: C_10  and  C_11
REMARK    6  A    between atoms: C_11  and  C_12
REMARK    7  A    between atoms: C_12  and  C_13
REMARK    8  A    between atoms: C_12  and  C_98
REMARK    9  A    between atoms: C_13  and  O_14
REMARK   10  A    between atoms: C_13  and  C_15
REMARK   11  A    between atoms: C_15  and  C_16
REMARK   12  A    between atoms: C_15  and  C_97
REMARK   13  A    between atoms: C_22  and  C_96
REMARK   14  A    between atoms: C_25  and  O_95
REMARK   15  A    between atoms: C_31  and  O_90
REMARK   16  A    between atoms: C_32  and  C_89
REMARK   17  A    between atoms: C_33  and  O_88
REMARK   18  A    between atoms: C_35  and  O_87
REMARK   19  A    between atoms: C_36  and  C_86
REMARK   20  A    between atoms: C_37  and  C_69
REMARK   21  A    between atoms: C_43  and  C_68
REMARK   22  A    between atoms: C_46  and  O_67
REMARK   23  A    between atoms: C_52  and  O_62
REMARK   24  A    between atoms: C_53  and  C_61
REMARK   25  A    between atoms: C_54  and  O_60
REMARK   26  A    between atoms: C_56  and  O_59
REMARK   27  A    between atoms: C_57  and  C_58
REMARK   28  A    between atoms: O_62  and  C_63
REMARK   29  A    between atoms: C_69  and  C_70
REMARK   30  A    between atoms: C_69  and  C_85
REMARK   31  A    between atoms: C_70  and  O_71
REMARK   32  A    between atoms: C_70  and  C_72
REMARK   33  A    between atoms: C_72  and  C_73
REMARK   34  A    between atoms: C_72  and  C_84
REMARK   35  A    between atoms: C_73  and  C_74
REMARK   36  A    between atoms: C_74  and  C_75
REMARK   37  A    between atoms: C_77  and  C_83
REMARK   38  A    between atoms: C_79  and  O_81
REMARK   39  A    between atoms: O_81  and  C_82
REMARK   40  A    between atoms: O_90  and  C_91
REMARK                            x       y       z     vdW  Elec       q    Type
REMARK                         _______ _______ _______ _____ _____    ______ ____
ROOT
ATOM      1  C   UNL     1     139.915 176.491 194.386  0.00  0.00    +0.113 C 
ATOM      2  O   UNL     1     140.392 177.829 194.088  0.00  0.00    -0.458 OA
ATOM      3  C   UNL     1     139.657 178.537 193.197  0.00  0.00    +0.332 C 
ATOM      4  O   UNL     1     138.626 178.186 192.651  0.00  0.00    -0.246 OA
ATOM      5  C   UNL     1     140.338 179.827 192.945  0.00  0.00    +0.023 C 
ATOM      6  C   UNL     1     139.741 180.740 192.162  0.00  0.00    -0.052 C 
ATOM      7  C   UNL     1     140.305 182.018 191.744  0.00  0.00    -0.054 C 
ATOM      8  C   UNL     1     141.149 182.726 192.521  0.00  0.00    -0.079 C 
ATOM      9  C   UNL     1     141.727 184.083 192.205  0.00  0.00    -0.008 C 
ATOM     10  C   UNL     1     143.256 184.090 192.005  0.00  0.00    +0.061 C 
ATOM     11  C   UNL     1     143.680 183.407 190.695  0.00  0.00    +0.003 C 
ATOM     12  C   UNL     1     145.170 183.585 190.335  0.00  0.00    +0.080 C 
ATOM     13  O   UNL     1     145.629 182.481 189.522  0.00  0.00    -0.369 OA
ATOM     14  C   UNL     1     145.249 182.577 188.136  0.00  0.00    +0.065 C 
ATOM     15  C   UNL     1     145.692 181.265 187.463  0.00  0.00    +0.000 C 
ATOM     16  C   UNL     1     145.481 181.215 185.933  0.00  0.00    +0.066 C 
ATOM     17  C   UNL     1     145.683 179.785 185.324  0.00  0.00    +0.009 C 
ATOM     18  C   UNL     1     144.775 178.697 185.951  0.00  0.00    +0.063 C 
ATOM     19  C   UNL     1     144.925 177.307 185.283  0.00  0.00    -0.000 C 
ATOM     20  C   UNL     1     143.866 176.343 185.840  0.00  0.00    +0.064 C 
ATOM     21  C   UNL     1     144.234 174.842 185.701  0.00  0.00    +0.020 C 
ATOM     22  C   UNL     1     143.359 173.923 186.612  0.00  0.00    +0.113 C 
ATOM     23  O   UNL     1     141.999 174.126 186.139  0.00  0.00    -0.458 OA
ATOM     24  C   UNL     1     141.168 173.073 185.981  0.00  0.00    +0.332 C 
ATOM     25  O   UNL     1     141.372 171.915 186.346  0.00  0.00    -0.246 OA
ATOM     26  C   UNL     1     139.922 173.480 185.295  0.00  0.00    +0.023 C 
ATOM     27  C   UNL     1     139.613 174.761 185.008  0.00  0.00    -0.052 C 
ATOM     28  C   UNL     1     138.408 175.264 184.353  0.00  0.00    -0.054 C 
ATOM     29  C   UNL     1     138.252 176.601 184.256  0.00  0.00    -0.079 C 
ATOM     30  C   UNL     1     137.080 177.366 183.711  0.00  0.00    -0.008 C 
ATOM     31  C   UNL     1     136.565 178.523 184.591  0.00  0.00    +0.061 C 
ATOM     32  C   UNL     1     135.990 178.143 185.971  0.00  0.00    +0.003 C 
ATOM     33  C   UNL     1     136.907 178.018 187.205  0.00  0.00    +0.080 C 
ATOM     34  O   UNL     1     137.716 176.842 187.105  0.00  0.00    -0.369 OA
ATOM     35  C   UNL     1     138.717 176.703 188.118  0.00  0.00    +0.065 C 
ATOM     36  C   UNL     1     138.142 176.461 189.525  0.00  0.00    +0.000 C 
ATOM     37  C   UNL     1     137.463 175.075 189.637  0.00  0.00    +0.066 C 
ATOM     38  C   UNL     1     137.460 174.571 191.108  0.00  0.00    +0.009 C 
ATOM     39  C   UNL     1     138.802 173.892 191.515  0.00  0.00    +0.063 C 
ATOM     40  C   UNL     1     138.961 173.786 193.055  0.00  0.00    -0.000 C 
ATOM     41  C   UNL     1     140.359 174.025 193.641  0.00  0.00    +0.064 C 
ATOM     42  C   UNL     1     140.854 175.493 193.640  0.00  0.00    +0.020 C 
ATOM     43  C   UNL     1     139.699 177.887 188.058  0.00  0.00    -0.008 C 
ATOM     44  C   UNL     1     139.009 179.204 187.867  0.00  0.00    -0.083 C 
ATOM     45  C   UNL     1     137.729 179.249 187.488  0.00  0.00    -0.059 C 
ATOM     46  C   UNL     1     145.898 183.810 187.490  0.00  0.00    -0.008 C 
ATOM     47  C   UNL     1     145.780 185.021 188.364  0.00  0.00    -0.083 C 
ATOM     48  C   UNL     1     145.466 184.904 189.660  0.00  0.00    -0.059 C 
ATOM     49  H   UNL     1     138.932 176.353 193.939  0.00  0.00    +0.074 HD
ATOM     50  H   UNL     1     141.315 179.965 193.381  0.00  0.00    +0.069 HD
ATOM     51  H   UNL     1     138.763 180.511 191.741  0.00  0.00    +0.062 HD
ATOM     52  H   UNL     1     141.425 182.342 193.502  0.00  0.00    +0.058 HD
ATOM     53  H   UNL     1     141.474 184.744 193.045  0.00  0.00    +0.033 HD
ATOM     54  H   UNL     1     141.248 184.551 191.341  0.00  0.00    +0.033 HD
ATOM     55  H   UNL     1     143.738 183.584 192.846  0.00  0.00    +0.060 HD
ATOM     56  H   UNL     1     143.450 182.338 190.759  0.00  0.00    +0.032 HD
ATOM     57  H   UNL     1     143.071 183.792 189.868  0.00  0.00    +0.032 HD
ATOM     58  H   UNL     1     145.770 183.526 191.249  0.00  0.00    +0.064 HD
ATOM     59  H   UNL     1     144.156 182.646 188.078  0.00  0.00    +0.060 HD
ATOM     60  H   UNL     1     146.745 181.067 187.692  0.00  0.00    +0.032 HD
ATOM     61  H   UNL     1     145.127 180.464 187.955  0.00  0.00    +0.032 HD
ATOM     62  H   UNL     1     146.229 181.879 185.476  0.00  0.00    +0.060 HD
ATOM     63  H   UNL     1     145.412 179.849 184.266  0.00  0.00    +0.035 HD
ATOM     64  H   UNL     1     145.036 178.565 187.008  0.00  0.00    +0.060 HD
ATOM     65  H   UNL     1     145.931 176.914 185.480  0.00  0.00    +0.032 HD
ATOM     66  H   UNL     1     144.802 177.407 184.201  0.00  0.00    +0.032 HD
ATOM     67  H   UNL     1     143.745 176.580 186.897  0.00  0.00    +0.060 HD
ATOM     68  H   UNL     1     145.281 174.742 186.002  0.00  0.00    +0.036 HD
ATOM     69  H   UNL     1     143.655 172.879 186.447  0.00  0.00    +0.074 HD
ATOM     70  H   UNL     1     139.255 172.658 185.064  0.00  0.00    +0.069 HD
ATOM     71  H   UNL     1     140.312 175.537 185.322  0.00  0.00    +0.062 HD
ATOM     72  H   UNL     1     139.041 177.243 184.656  0.00  0.00    +0.058 HD
ATOM     73  H   UNL     1     137.399 177.785 182.746  0.00  0.00    +0.033 HD
ATOM     74  H   UNL     1     136.235 176.708 183.502  0.00  0.00    +0.033 HD
ATOM     75  H   UNL     1     135.714 178.928 184.031  0.00  0.00    +0.060 HD
ATOM     76  H   UNL     1     135.430 177.205 185.861  0.00  0.00    +0.032 HD
ATOM     77  H   UNL     1     135.252 178.912 186.221  0.00  0.00    +0.032 HD
ATOM     78  H   UNL     1     136.231 177.872 188.053  0.00  0.00    +0.064 HD
ATOM     79  H   UNL     1     139.300 175.813 187.848  0.00  0.00    +0.060 HD
ATOM     80  H   UNL     1     137.425 177.244 189.795  0.00  0.00    +0.032 HD
ATOM     81  H   UNL     1     138.967 176.548 190.242  0.00  0.00    +0.032 HD
ATOM     82  H   UNL     1     137.986 174.337 189.014  0.00  0.00    +0.060 HD
ATOM     83  H   UNL     1     137.299 175.448 191.747  0.00  0.00    +0.035 HD
ATOM     84  H   UNL     1     138.802 172.871 191.106  0.00  0.00    +0.060 HD
ATOM     85  H   UNL     1     138.655 172.764 193.327  0.00  0.00    +0.032 HD
ATOM     86  H   UNL     1     138.231 174.424 193.557  0.00  0.00    +0.032 HD
ATOM     87  H   UNL     1     140.377 173.662 194.674  0.00  0.00    +0.060 HD
ATOM     88  H   UNL     1     140.890 175.844 192.599  0.00  0.00    +0.036 HD
ATOM     89  H   UNL     1     140.322 177.920 188.959  0.00  0.00    +0.033 HD
ATOM     90  H   UNL     1     140.369 177.756 187.199  0.00  0.00    +0.033 HD
ATOM     91  H   UNL     1     139.585 180.113 188.004  0.00  0.00    +0.057 HD
ATOM     92  H   UNL     1     137.243 180.215 187.351  0.00  0.00    +0.059 HD
ATOM     93  H   UNL     1     146.961 183.631 187.297  0.00  0.00    +0.033 HD
ATOM     94  H   UNL     1     145.420 184.017 186.526  0.00  0.00    +0.033 HD
ATOM     95  H   UNL     1     145.980 185.991 187.930  0.00  0.00    +0.057 HD
ATOM     96  H   UNL     1     145.394 185.799 190.272  0.00  0.00    +0.059 HD
ENDROOT
BRANCH  28  97
ATOM     97  C   UNL     1     137.409 174.254 183.849  0.00  0.00    -0.040 C 
ATOM     98  H   UNL     1     136.951 173.720 184.688  0.00  0.00    +0.028 HD
ATOM     99  H   UNL     1     137.850 173.480 183.213  0.00  0.00    +0.028 HD
ATOM    100  H   UNL     1     136.619 174.742 183.267  0.00  0.00    +0.028 HD
ENDBRANCH  28  97
BRANCH  21 101
ATOM    101  C   UNL     1     144.162 174.353 184.248  0.00  0.00    -0.057 C 
ATOM    102  H   UNL     1     144.893 174.867 183.620  0.00  0.00    +0.023 HD
ATOM    103  H   UNL     1     144.378 173.284 184.198  0.00  0.00    +0.023 HD
ATOM    104  H   UNL     1     143.174 174.507 183.803  0.00  0.00    +0.023 HD
ENDBRANCH  21 101
BRANCH  42 105
ATOM    105  C   UNL     1     142.326 175.563 194.082  0.00  0.00    -0.057 C 
ATOM    106  H   UNL     1     142.441 176.133 195.005  0.00  0.00    +0.023 HD
ATOM    107  H   UNL     1     142.967 175.988 193.306  0.00  0.00    +0.023 HD
ATOM    108  H   UNL     1     142.699 174.557 194.295  0.00  0.00    +0.023 HD
ENDBRANCH  42 105
BRANCH  17 109
ATOM    109  C   UNL     1     147.161 179.380 185.381  0.00  0.00    -0.058 C 
ATOM    110  H   UNL     1     147.380 178.797 186.274  0.00  0.00    +0.023 HD
ATOM    111  H   UNL     1     147.799 180.268 185.418  0.00  0.00    +0.023 HD
ATOM    112  H   UNL     1     147.454 178.796 184.508  0.00  0.00    +0.023 HD
ENDBRANCH  17 109
BRANCH  38 113
ATOM    113  C   UNL     1     136.307 173.596 191.408  0.00  0.00    -0.058 C 
ATOM    114  H   UNL     1     136.411 172.649 190.865  0.00  0.00    +0.023 HD
ATOM    115  H   UNL     1     136.262 173.365 192.484  0.00  0.00    +0.023 HD
ATOM    116  H   UNL     1     135.341 174.021 191.122  0.00  0.00    +0.023 HD
ENDBRANCH  38 113
BRANCH   7 117
ATOM    117  C   UNL     1     139.834 182.493 190.394  0.00  0.00    -0.040 C 
ATOM    118  H   UNL     1     139.642 181.640 189.738  0.00  0.00    +0.028 HD
ATOM    119  H   UNL     1     140.582 183.128 189.911  0.00  0.00    +0.028 HD
ATOM    120  H   UNL     1     138.918 183.092 190.466  0.00  0.00    +0.028 HD
ENDBRANCH   7 117
BRANCH   1 121
ATOM    121  C   UNL     1     139.722 176.316 195.921  0.00  0.00    +0.020 C 
ATOM    122  H   UNL     1     140.135 175.347 196.220  0.00  0.00    +0.036 HD
BRANCH 121 123
ATOM    123  C   UNL     1     140.457 177.374 196.765  0.00  0.00    -0.057 C 
ATOM    124  H   UNL     1     139.822 177.801 197.546  0.00  0.00    +0.023 HD
ATOM    125  H   UNL     1     141.345 176.950 197.243  0.00  0.00    +0.023 HD
ATOM    126  H   UNL     1     140.833 178.185 196.137  0.00  0.00    +0.023 HD
ENDBRANCH 121 123
BRANCH 121 127
ATOM    127  C   UNL     1     138.213 176.330 196.344  0.00  0.00    +0.064 C 
ATOM    128  H   UNL     1     137.607 176.551 195.457  0.00  0.00    +0.060 HD
BRANCH 127 129
ATOM    129  C   UNL     1     137.826 177.375 197.432  0.00  0.00    -0.017 C 
ATOM    130  H   UNL     1     138.678 178.035 197.622  0.00  0.00    +0.032 HD
BRANCH 129 131
ATOM    131  C   UNL     1     136.639 178.235 196.987  0.00  0.00    -0.060 C 
ATOM    132  H   UNL     1     136.682 178.484 195.923  0.00  0.00    +0.023 HD
ATOM    133  H   UNL     1     135.688 177.724 197.175  0.00  0.00    +0.023 HD
ATOM    134  H   UNL     1     136.624 179.186 197.531  0.00  0.00    +0.023 HD
ENDBRANCH 129 131
BRANCH 129 135
ATOM    135  C   UNL     1     137.457 176.732 198.793  0.00  0.00    -0.046 C 
ATOM    136  H   UNL     1     136.365 176.642 198.835  0.00  0.00    +0.027 HD
ATOM    137  H   UNL     1     137.852 175.711 198.855  0.00  0.00    +0.027 HD
BRANCH 135 138
ATOM    138  C   UNL     1     137.926 177.529 200.018  0.00  0.00    -0.026 C 
ATOM    139  H   UNL     1     138.929 177.205 200.309  0.00  0.00    +0.029 HD
ATOM    140  H   UNL     1     138.000 178.589 199.747  0.00  0.00    +0.029 HD
BRANCH 138 143
ATOM    141  C   UNL     1     138.644 177.562 202.989  0.00  0.00    +0.059 C 
ATOM    142  O   UNL     1     137.454 178.073 202.379  0.00  0.00    -0.373 OA
ATOM    143  C   UNL     1     136.999 177.346 201.232  0.00  0.00    +0.061 C 
ATOM    144  C   UNL     1     136.777 175.876 201.594  0.00  0.00    -0.000 C 
ATOM    145  C   UNL     1     138.017 175.256 202.234  0.00  0.00    +0.063 C 
ATOM    146  C   UNL     1     138.457 176.112 203.418  0.00  0.00    -0.000 C 
ATOM    147  H   UNL     1     139.475 177.648 202.280  0.00  0.00    +0.059 HD
ATOM    148  H   UNL     1     136.025 177.779 200.970  0.00  0.00    +0.060 HD
ATOM    149  H   UNL     1     135.944 175.809 202.308  0.00  0.00    +0.032 HD
ATOM    150  H   UNL     1     136.467 175.299 200.715  0.00  0.00    +0.032 HD
ATOM    151  H   UNL     1     138.820 175.200 201.488  0.00  0.00    +0.060 HD
ATOM    152  H   UNL     1     139.383 175.724 203.859  0.00  0.00    +0.032 HD
ATOM    153  H   UNL     1     137.691 176.045 204.204  0.00  0.00    +0.032 HD
BRANCH 141 154
ATOM    154  C   UNL     1     138.957 178.451 204.182  0.00  0.00    -0.039 C 
ATOM    155  H   UNL     1     138.559 178.032 205.111  0.00  0.00    +0.025 HD
ATOM    156  H   UNL     1     140.040 178.578 204.293  0.00  0.00    +0.025 HD
ATOM    157  H   UNL     1     138.539 179.454 204.041  0.00  0.00    +0.025 HD
ENDBRANCH 141 154
BRANCH 145 158
ATOM    158  O   UNL     1     137.672 173.925 202.631  0.00  0.00    -0.380 OA
BRANCH 158 159
ATOM    159  C   UNL     1     136.707 173.316 201.782  0.00  0.00    +0.037 C 
ATOM    160  H   UNL     1     135.746 173.805 201.957  0.00  0.00    +0.052 HD
ATOM    161  H   UNL     1     136.598 172.257 202.020  0.00  0.00    +0.052 HD
ATOM    162  H   UNL     1     136.967 173.441 200.726  0.00  0.00    +0.052 HD
ENDBRANCH 158 159
ENDBRANCH 145 158
ENDBRANCH 138 143
ENDBRANCH 135 138
ENDBRANCH 129 135
ENDBRANCH 127 129
BRANCH 127 163
ATOM    163  O   UNL     1     137.833 175.028 196.783  0.00  0.00    -0.391 OA
ATOM    164  H   UNL     1     138.542 174.679 197.348  0.00  0.00    +0.210 HD
ENDBRANCH 127 163
ENDBRANCH 121 127
ENDBRANCH   1 121
BRANCH  41 165
ATOM    165  O   UNL     1     141.286 173.214 192.901  0.00  0.00    -0.391 OA
ATOM    166  H   UNL     1     141.313 172.340 193.332  0.00  0.00    +0.210 HD
ENDBRANCH  41 165
BRANCH  39 167
ATOM    167  O   UNL     1     139.908 174.532 190.909  0.00  0.00    -0.391 OA
ATOM    168  H   UNL     1     140.513 174.809 191.630  0.00  0.00    +0.210 HD
ENDBRANCH  39 167
BRANCH  31 169
ATOM    169  O   UNL     1     137.480 179.612 184.667  0.00  0.00    -0.391 OA
ATOM    170  H   UNL     1     138.386 179.262 184.585  0.00  0.00    +0.210 HD
ENDBRANCH  31 169
BRANCH  22 171
ATOM    171  C   UNL     1     143.425 174.238 188.142  0.00  0.00    +0.020 C 
ATOM    172  H   UNL     1     144.301 174.868 188.301  0.00  0.00    +0.036 HD
BRANCH 171 173
ATOM    173  C   UNL     1     142.248 175.133 188.578  0.00  0.00    -0.057 C 
ATOM    174  H   UNL     1     142.396 176.166 188.243  0.00  0.00    +0.023 HD
ATOM    175  H   UNL     1     141.304 174.782 188.143  0.00  0.00    +0.023 HD
ATOM    176  H   UNL     1     142.118 175.127 189.664  0.00  0.00    +0.023 HD
ENDBRANCH 171 173
BRANCH 171 177
ATOM    177  C   UNL     1     143.483 173.016 189.124  0.00  0.00    +0.064 C 
ATOM    178  H   UNL     1     142.631 173.075 189.817  0.00  0.00    +0.060 HD
BRANCH 177 179
ATOM    179  O   UNL     1     143.300 171.789 188.420  0.00  0.00    -0.391 OA
ATOM    180  H   UNL     1     142.368 171.743 188.144  0.00  0.00    +0.210 HD
ENDBRANCH 177 179
BRANCH 177 181
ATOM    181  C   UNL     1     144.794 172.941 189.982  0.00  0.00    -0.017 C 
ATOM    182  H   UNL     1     145.573 173.514 189.459  0.00  0.00    +0.032 HD
BRANCH 181 183
ATOM    183  C   UNL     1     144.581 173.549 191.378  0.00  0.00    -0.060 C 
ATOM    184  H   UNL     1     144.046 174.500 191.287  0.00  0.00    +0.023 HD
ATOM    185  H   UNL     1     145.518 173.734 191.910  0.00  0.00    +0.023 HD
ATOM    186  H   UNL     1     144.008 172.883 192.026  0.00  0.00    +0.023 HD
ENDBRANCH 181 183
BRANCH 181 187
ATOM    187  C   UNL     1     145.302 171.474 190.111  0.00  0.00    -0.046 C 
ATOM    188  H   UNL     1     144.979 170.906 189.235  0.00  0.00    +0.027 HD
ATOM    189  H   UNL     1     144.822 171.029 190.991  0.00  0.00    +0.027 HD
BRANCH 187 190
ATOM    190  C   UNL     1     146.832 171.341 190.244  0.00  0.00    -0.026 C 
ATOM    191  H   UNL     1     147.278 172.320 190.047  0.00  0.00    +0.029 HD
ATOM    192  H   UNL     1     147.193 170.660 189.463  0.00  0.00    +0.029 HD
BRANCH 190 193
ATOM    193  C   UNL     1     147.415 170.891 191.602  0.00  0.00    +0.061 C 
ATOM    194  O   UNL     1     147.207 171.842 192.646  0.00  0.00    -0.373 OA
ATOM    195  C   UNL     1     148.183 172.868 192.776  0.00  0.00    +0.059 C 
ATOM    196  C   UNL     1     149.584 172.293 192.930  0.00  0.00    -0.000 C 
ATOM    197  C   UNL     1     149.918 171.383 191.744  0.00  0.00    +0.063 C 
ATOM    198  C   UNL     1     148.833 170.320 191.590  0.00  0.00    -0.000 C 
ATOM    199  H   UNL     1     146.768 170.053 191.896  0.00  0.00    +0.060 HD
ATOM    200  H   UNL     1     148.131 173.524 191.901  0.00  0.00    +0.059 HD
ATOM    201  H   UNL     1     150.317 173.103 193.009  0.00  0.00    +0.032 HD
ATOM    202  H   UNL     1     149.668 171.707 193.852  0.00  0.00    +0.032 HD
ATOM    203  H   UNL     1     149.988 171.983 190.833  0.00  0.00    +0.060 HD
ATOM    204  H   UNL     1     148.928 169.637 192.448  0.00  0.00    +0.032 HD
ATOM    205  H   UNL     1     149.011 169.700 190.703  0.00  0.00    +0.032 HD
BRANCH 195 206
ATOM    206  C   UNL     1     147.817 173.691 194.005  0.00  0.00    -0.039 C 
ATOM    207  H   UNL     1     148.709 173.972 194.567  0.00  0.00    +0.025 HD
ATOM    208  H   UNL     1     147.284 174.601 193.720  0.00  0.00    +0.025 HD
ATOM    209  H   UNL     1     147.151 173.133 194.668  0.00  0.00    +0.025 HD
ENDBRANCH 195 206
BRANCH 197 210
ATOM    210  O   UNL     1     151.163 170.691 191.904  0.00  0.00    -0.380 OA
BRANCH 210 211
ATOM    211  C   UNL     1     151.027 169.297 192.131  0.00  0.00    +0.037 C 
ATOM    212  H   UNL     1     150.491 168.834 191.301  0.00  0.00    +0.052 HD
ATOM    213  H   UNL     1     152.027 168.857 192.167  0.00  0.00    +0.052 HD
ATOM    214  H   UNL     1     150.520 169.094 193.076  0.00  0.00    +0.052 HD
ENDBRANCH 210 211
ENDBRANCH 197 210
ENDBRANCH 190 193
ENDBRANCH 187 190
ENDBRANCH 181 187
ENDBRANCH 177 181
ENDBRANCH 171 177
ENDBRANCH  22 171
BRANCH  20 215
ATOM    215  O   UNL     1     142.626 176.680 185.204  0.00  0.00    -0.391 OA
ATOM    216  H   UNL     1     142.816 177.195 184.401  0.00  0.00    +0.210 HD
ENDBRANCH  20 215
BRANCH  18 217
ATOM    217  O   UNL     1     143.422 179.140 185.909  0.00  0.00    -0.391 OA
ATOM    218  H   UNL     1     143.380 180.065 185.585  0.00  0.00    +0.210 HD
ENDBRANCH  18 217
BRANCH  10 219
ATOM    219  O   UNL     1     143.691 185.451 192.033  0.00  0.00    -0.391 OA
ATOM    220  H   UNL     1     143.824 185.740 191.113  0.00  0.00    +0.210 HD
ENDBRANCH  10 219
BRANCH  37 221
ATOM    221  O   UNL     1     136.107 175.234 189.191  0.00  0.00    -0.379 OA
BRANCH 221 222
ATOM    222  C   UNL     1     135.785 174.369 188.110  0.00  0.00    +0.037 C 
ATOM    223  H   UNL     1     136.000 174.854 187.153  0.00  0.00    +0.052 HD
ATOM    224  H   UNL     1     134.733 174.070 188.143  0.00  0.00    +0.052 HD
ATOM    225  H   UNL     1     136.401 173.467 188.188  0.00  0.00    +0.052 HD
ENDBRANCH 221 222
ENDBRANCH  37 221
BRANCH  16 226
ATOM    226  O   UNL     1     144.194 181.779 185.654  0.00  0.00    -0.379 OA
BRANCH 226 227
ATOM    227  C   UNL     1     144.048 182.314 184.347  0.00  0.00    +0.037 C 
ATOM    228  H   UNL     1     144.897 181.972 183.749  0.00  0.00    +0.052 HD
ATOM    229  H   UNL     1     143.129 181.953 183.872  0.00  0.00    +0.052 HD
ATOM    230  H   UNL     1     144.067 183.408 184.360  0.00  0.00    +0.052 HD
ENDBRANCH 226 227
ENDBRANCH  16 226
TORSDOF 40
ENDMDL
