MODEL 1
REMARK VINA RESULT:      -6.2      0.000      0.000
REMARK  Name = Ulapualide A_conf2
REMARK  27 active torsions:
REMARK  status: ('A' for Active; 'I' for Inactive)
REMARK    1  A    between atoms: C_1  and  C_2
REMARK    2  A    between atoms: C_9  and  O_63
REMARK    3  A    between atoms: C_14  and  C_38
REMARK    4  A    between atoms: C_15  and  C_37
REMARK    5  A    between atoms: C_16  and  O_35
REMARK    6  A    between atoms: O_35  and  C_36
REMARK    7  A    between atoms: C_38  and  C_39
REMARK    8  A    between atoms: C_39  and  C_40
REMARK    9  A    between atoms: C_39  and  O_61
REMARK   10  A    between atoms: C_40  and  C_41
REMARK   11  A    between atoms: C_40  and  C_42
REMARK   12  A    between atoms: C_42  and  C_43
REMARK   13  A    between atoms: C_43  and  C_44
REMARK   14  A    between atoms: C_44  and  C_46
REMARK   15  A    between atoms: C_46  and  C_47
REMARK   16  A    between atoms: C_46  and  C_48
REMARK   17  A    between atoms: C_48  and  C_49
REMARK   18  A    between atoms: C_48  and  O_57
REMARK   19  A    between atoms: C_49  and  C_50
REMARK   20  A    between atoms: C_49  and  C_51
REMARK   21  A    between atoms: C_52  and  N_53
REMARK   22  A    between atoms: N_53  and  C_54
REMARK   23  A    between atoms: N_53  and  C_55
REMARK   24  A    between atoms: C_55  and  O_56
REMARK   25  A    between atoms: O_57  and  C_58
REMARK   26  A    between atoms: C_58  and  C_60
REMARK   27  A    between atoms: O_61  and  C_62
REMARK                            x       y       z     vdW  Elec       q    Type
REMARK                         _______ _______ _______ _____ _____    ______ ____
ROOT
ATOM      1  C   UNL     1     146.049 157.120 189.271  0.00  0.00    +0.008 C 
ATOM      2  C   UNL     1     145.876 156.920 187.762  0.00  0.00    +0.014 C 
ATOM      3  C   UNL     1     146.277 158.083 186.870  0.00  0.00    +0.134 C 
ATOM      4  O   UNL     1     147.288 158.011 186.168  0.00  0.00    -0.297 OA
ATOM      5  C   UNL     1     145.357 159.291 186.843  0.00  0.00    +0.006 C 
ATOM      6  C   UNL     1     145.554 160.148 185.594  0.00  0.00    -0.044 C 
ATOM      7  C   UNL     1     144.425 161.154 185.330  0.00  0.00    -0.026 C 
ATOM      8  C   UNL     1     144.142 162.116 186.492  0.00  0.00    +0.065 C 
ATOM      9  C   UNL     1     143.295 163.300 186.024  0.00  0.00    +0.071 C 
ATOM     10  C   UNL     1     143.333 164.427 187.021  0.00  0.00    +0.310 C 
ATOM     11  O   UNL     1     142.355 164.829 187.638  0.00  0.00    -0.251 OA
ATOM     12  O   UNL     1     144.583 164.966 187.078  0.00  0.00    -0.461 OA
ATOM     13  C   UNL     1     144.755 166.121 187.933  0.00  0.00    +0.110 C 
ATOM     14  C   UNL     1     145.795 167.064 187.253  0.00  0.00    +0.020 C 
ATOM     15  C   UNL     1     147.026 166.349 186.598  0.00  0.00    +0.068 C 
ATOM     16  C   UNL     1     148.102 165.867 187.597  0.00  0.00    -0.008 C 
ATOM     17  C   UNL     1     148.870 166.985 188.270  0.00  0.00    -0.077 C 
ATOM     18  C   UNL     1     150.009 166.869 188.970  0.00  0.00    -0.003 C 
ATOM     19  C   UNL     1     150.630 165.627 189.282  0.00  0.00    +0.220 A 
ATOM     20  N   UNL     1     150.080 164.421 189.235  0.00  0.00    -0.205 NA
ATOM     21  C   UNL     1     151.041 163.562 189.698  0.00  0.00    +0.164 A 
ATOM     22  C   UNL     1     152.179 164.261 189.995  0.00  0.00    +0.125 A 
ATOM     23  O   UNL     1     151.937 165.576 189.747  0.00  0.00    -0.443 OA
ATOM     24  C   UNL     1     150.881 162.021 189.892  0.00  0.00    +0.250 A 
ATOM     25  N   UNL     1     149.765 161.349 189.654  0.00  0.00    -0.203 NA
ATOM     26  C   UNL     1     150.073 160.055 189.995  0.00  0.00    +0.164 A 
ATOM     27  C   UNL     1     151.375 159.982 190.420  0.00  0.00    +0.125 A 
ATOM     28  O   UNL     1     151.909 161.232 190.358  0.00  0.00    -0.442 OA
ATOM     29  C   UNL     1     149.123 158.815 189.933  0.00  0.00    +0.249 A 
ATOM     30  N   UNL     1     147.859 158.840 189.540  0.00  0.00    -0.212 NA
ATOM     31  C   UNL     1     147.434 157.535 189.641  0.00  0.00    +0.083 A 
ATOM     32  C   UNL     1     148.466 156.757 190.110  0.00  0.00    +0.116 A 
ATOM     33  O   UNL     1     149.549 157.555 190.298  0.00  0.00    -0.442 OA
ATOM     34  H   UNL     1     145.886 156.127 189.718  0.00  0.00    +0.037 HD
ATOM     35  H   UNL     1     144.845 156.641 187.521  0.00  0.00    +0.035 HD
ATOM     36  H   UNL     1     146.494 156.066 187.449  0.00  0.00    +0.035 HD
ATOM     37  H   UNL     1     144.325 158.923 186.876  0.00  0.00    +0.034 HD
ATOM     38  H   UNL     1     145.562 159.892 187.733  0.00  0.00    +0.034 HD
ATOM     39  H   UNL     1     146.508 160.685 185.673  0.00  0.00    +0.027 HD
ATOM     40  H   UNL     1     145.641 159.501 184.709  0.00  0.00    +0.027 HD
ATOM     41  H   UNL     1     144.706 161.727 184.437  0.00  0.00    +0.029 HD
ATOM     42  H   UNL     1     143.512 160.597 185.082  0.00  0.00    +0.029 HD
ATOM     43  H   UNL     1     145.088 162.462 186.923  0.00  0.00    +0.060 HD
ATOM     44  H   UNL     1     142.246 163.005 185.892  0.00  0.00    +0.040 HD
ATOM     45  H   UNL     1     143.645 163.704 185.067  0.00  0.00    +0.040 HD
ATOM     46  H   UNL     1     143.802 166.667 187.968  0.00  0.00    +0.074 HD
ATOM     47  H   UNL     1     146.142 167.810 187.977  0.00  0.00    +0.036 HD
ATOM     48  H   UNL     1     146.664 165.480 186.036  0.00  0.00    +0.060 HD
ATOM     49  H   UNL     1     148.823 165.251 187.045  0.00  0.00    +0.033 HD
ATOM     50  H   UNL     1     147.661 165.211 188.344  0.00  0.00    +0.033 HD
ATOM     51  H   UNL     1     148.475 167.991 188.126  0.00  0.00    +0.057 HD
ATOM     52  H   UNL     1     150.494 167.762 189.346  0.00  0.00    +0.067 HD
ATOM     53  H   UNL     1     153.159 164.010 190.374  0.00  0.00    +0.105 HD
ATOM     54  H   UNL     1     152.020 159.194 190.776  0.00  0.00    +0.105 HD
ATOM     55  H   UNL     1     148.598 155.710 190.328  0.00  0.00    +0.105 HD
ENDROOT
BRANCH   1  56
ATOM     56  C   UNL     1     144.982 158.017 189.900  0.00  0.00    -0.056 C 
ATOM     57  H   UNL     1     145.199 158.180 190.962  0.00  0.00    +0.024 HD
ATOM     58  H   UNL     1     144.930 159.006 189.438  0.00  0.00    +0.024 HD
ATOM     59  H   UNL     1     143.990 157.554 189.833  0.00  0.00    +0.024 HD
ENDBRANCH   1  56
BRANCH  14  60
ATOM     60  C   UNL     1     145.039 167.866 186.163  0.00  0.00    -0.057 C 
ATOM     61  H   UNL     1     143.982 167.995 186.421  0.00  0.00    +0.023 HD
ATOM     62  H   UNL     1     145.060 167.341 185.203  0.00  0.00    +0.023 HD
ATOM     63  H   UNL     1     145.483 168.858 186.022  0.00  0.00    +0.023 HD
ENDBRANCH  14  60
BRANCH  13  64
ATOM     64  C   UNL     1     145.038 165.634 189.371  0.00  0.00    +0.011 C 
ATOM     65  H   UNL     1     144.951 164.542 189.379  0.00  0.00    +0.033 HD
ATOM     66  H   UNL     1     146.064 165.849 189.661  0.00  0.00    +0.033 HD
BRANCH  64  67
ATOM     67  C   UNL     1     144.070 166.234 190.408  0.00  0.00    +0.064 C 
ATOM     68  H   UNL     1     143.454 165.423 190.818  0.00  0.00    +0.060 HD
BRANCH  67  69
ATOM     69  C   UNL     1     144.792 166.934 191.597  0.00  0.00    -0.017 C 
ATOM     70  H   UNL     1     144.484 167.986 191.607  0.00  0.00    +0.032 HD
BRANCH  69  71
ATOM     71  C   UNL     1     144.332 166.339 192.936  0.00  0.00    -0.060 C 
ATOM     72  H   UNL     1     144.627 166.984 193.771  0.00  0.00    +0.023 HD
ATOM     73  H   UNL     1     143.247 166.202 192.977  0.00  0.00    +0.023 HD
ATOM     74  H   UNL     1     144.794 165.359 193.101  0.00  0.00    +0.023 HD
ENDBRANCH  69  71
BRANCH  69  75
ATOM     75  C   UNL     1     146.337 166.926 191.541  0.00  0.00    -0.041 C 
ATOM     76  H   UNL     1     146.741 167.914 191.799  0.00  0.00    +0.027 HD
ATOM     77  H   UNL     1     146.638 166.747 190.500  0.00  0.00    +0.027 HD
BRANCH  75  78
ATOM     78  C   UNL     1     146.983 165.859 192.426  0.00  0.00    +0.007 C 
ATOM     79  H   UNL     1     146.210 165.254 192.907  0.00  0.00    +0.034 HD
ATOM     80  H   UNL     1     147.609 165.212 191.805  0.00  0.00    +0.034 HD
BRANCH  78  81
ATOM     81  C   UNL     1     147.852 166.458 193.527  0.00  0.00    +0.140 C 
ATOM     82  O   UNL     1     147.483 167.430 194.194  0.00  0.00    -0.297 OA
BRANCH  81  83
ATOM     83  C   UNL     1     149.199 165.808 193.837  0.00  0.00    +0.052 C 
ATOM     84  H   UNL     1     149.062 165.287 194.793  0.00  0.00    +0.041 HD
BRANCH  83  85
ATOM     85  C   UNL     1     149.516 164.718 192.812  0.00  0.00    -0.052 C 
ATOM     86  H   UNL     1     148.699 163.990 192.772  0.00  0.00    +0.024 HD
ATOM     87  H   UNL     1     149.653 165.119 191.804  0.00  0.00    +0.024 HD
ATOM     88  H   UNL     1     150.427 164.179 193.088  0.00  0.00    +0.024 HD
ENDBRANCH  83  85
BRANCH  83  89
ATOM     89  C   UNL     1     150.377 166.791 194.001  0.00  0.00    +0.118 C 
ATOM     90  H   UNL     1     149.958 167.650 194.546  0.00  0.00    +0.075 HD
BRANCH  89  91
ATOM     91  C   UNL     1     151.015 167.361 192.700  0.00  0.00    +0.014 C 
ATOM     92  H   UNL     1     150.651 166.727 191.877  0.00  0.00    +0.038 HD
BRANCH  91  93
ATOM     93  C   UNL     1     152.540 167.198 192.692  0.00  0.00    -0.056 C 
ATOM     94  H   UNL     1     153.062 168.123 192.955  0.00  0.00    +0.024 HD
ATOM     95  H   UNL     1     152.894 166.885 191.702  0.00  0.00    +0.024 HD
ATOM     96  H   UNL     1     152.848 166.426 193.405  0.00  0.00    +0.024 HD
ENDBRANCH  91  93
BRANCH  91  97
ATOM     97  C   UNL     1     150.513 168.747 192.333  0.00  0.00    -0.064 C 
ATOM     98  C   UNL     1     149.363 169.061 191.723  0.00  0.00    -0.010 C 
ATOM     99  H   UNL     1     151.175 169.557 192.635  0.00  0.00    +0.059 HD
ATOM    100  H   UNL     1     148.695 168.266 191.395  0.00  0.00    +0.078 HD
BRANCH  98 101
ATOM    101  N   UNL     1     148.874 170.318 191.400  0.00  0.00    -0.317 N 
BRANCH 101 102
ATOM    102  C   UNL     1     149.609 171.552 191.661  0.00  0.00    +0.002 C 
ATOM    103  H   UNL     1     150.524 171.590 191.059  0.00  0.00    +0.043 HD
ATOM    104  H   UNL     1     149.022 172.445 191.419  0.00  0.00    +0.043 HD
ATOM    105  H   UNL     1     149.879 171.617 192.722  0.00  0.00    +0.043 HD
ENDBRANCH 101 102
BRANCH 101 106
ATOM    106  C   UNL     1     147.565 170.487 190.792  0.00  0.00    +0.110 C 
ATOM    107  H   UNL     1     147.279 171.544 190.736  0.00  0.00    +0.077 HD
ATOM    108  H   UNL     1     146.775 169.960 191.338  0.00  0.00    +0.077 HD
BRANCH 106 109
ATOM    109  O   UNL     1     147.650 169.963 189.485  0.00  0.00    -0.377 OA
ATOM    110  H   UNL     1     148.141 169.136 189.635  0.00  0.00    +0.211 HD
ENDBRANCH 106 109
ENDBRANCH 101 106
ENDBRANCH  98 101
ENDBRANCH  91  97
ENDBRANCH  89  91
BRANCH  89 111
ATOM    111  O   UNL     1     151.392 166.186 194.837  0.00  0.00    -0.460 OA
BRANCH 111 112
ATOM    112  C   UNL     1     151.012 165.784 196.081  0.00  0.00    +0.304 C 
ATOM    113  O   UNL     1     150.526 166.499 196.947  0.00  0.00    -0.251 OA
BRANCH 112 114
ATOM    114  C   UNL     1     151.296 164.323 196.247  0.00  0.00    +0.033 C 
ATOM    115  H   UNL     1     150.392 163.806 196.576  0.00  0.00    +0.034 HD
ATOM    116  H   UNL     1     152.102 164.182 196.970  0.00  0.00    +0.034 HD
ATOM    117  H   UNL     1     151.611 163.902 195.288  0.00  0.00    +0.034 HD
ENDBRANCH 112 114
ENDBRANCH 111 112
ENDBRANCH  89 111
ENDBRANCH  83  89
ENDBRANCH  81  83
ENDBRANCH  78  81
ENDBRANCH  75  78
ENDBRANCH  69  75
ENDBRANCH  67  69
BRANCH  67 118
ATOM    118  O   UNL     1     143.220 167.162 189.722  0.00  0.00    -0.379 OA
BRANCH 118 119
ATOM    119  C   UNL     1     143.141 168.432 190.359  0.00  0.00    +0.037 C 
ATOM    120  H   UNL     1     144.082 168.961 190.181  0.00  0.00    +0.052 HD
ATOM    121  H   UNL     1     142.326 169.024 189.927  0.00  0.00    +0.052 HD
ATOM    122  H   UNL     1     143.002 168.328 191.439  0.00  0.00    +0.052 HD
ENDBRANCH 118 119
ENDBRANCH  67 118
ENDBRANCH  64  67
ENDBRANCH  13  64
BRANCH   8 123
ATOM    123  O   UNL     1     143.436 161.417 187.519  0.00  0.00    -0.391 OA
ATOM    124  H   UNL     1     143.959 161.461 188.341  0.00  0.00    +0.210 HD
ENDBRANCH   8 123
BRANCH  15 125
ATOM    125  O   UNL     1     147.632 167.252 185.642  0.00  0.00    -0.379 OA
BRANCH 125 126
ATOM    126  C   UNL     1     148.300 166.600 184.570  0.00  0.00    +0.037 C 
ATOM    127  H   UNL     1     147.692 166.619 183.660  0.00  0.00    +0.052 HD
ATOM    128  H   UNL     1     149.232 167.136 184.373  0.00  0.00    +0.052 HD
ATOM    129  H   UNL     1     148.556 165.570 184.833  0.00  0.00    +0.052 HD
ENDBRANCH 125 126
ENDBRANCH  15 125
TORSDOF 27
ENDMDL
MODEL 2
REMARK VINA RESULT:      -5.7      3.029      7.707
REMARK  Name = Ulapualide A_conf2
REMARK  27 active torsions:
REMARK  status: ('A' for Active; 'I' for Inactive)
REMARK    1  A    between atoms: C_1  and  C_2
REMARK    2  A    between atoms: C_9  and  O_63
REMARK    3  A    between atoms: C_14  and  C_38
REMARK    4  A    between atoms: C_15  and  C_37
REMARK    5  A    between atoms: C_16  and  O_35
REMARK    6  A    between atoms: O_35  and  C_36
REMARK    7  A    between atoms: C_38  and  C_39
REMARK    8  A    between atoms: C_39  and  C_40
REMARK    9  A    between atoms: C_39  and  O_61
REMARK   10  A    between atoms: C_40  and  C_41
REMARK   11  A    between atoms: C_40  and  C_42
REMARK   12  A    between atoms: C_42  and  C_43
REMARK   13  A    between atoms: C_43  and  C_44
REMARK   14  A    between atoms: C_44  and  C_46
REMARK   15  A    between atoms: C_46  and  C_47
REMARK   16  A    between atoms: C_46  and  C_48
REMARK   17  A    between atoms: C_48  and  C_49
REMARK   18  A    between atoms: C_48  and  O_57
REMARK   19  A    between atoms: C_49  and  C_50
REMARK   20  A    between atoms: C_49  and  C_51
REMARK   21  A    between atoms: C_52  and  N_53
REMARK   22  A    between atoms: N_53  and  C_54
REMARK   23  A    between atoms: N_53  and  C_55
REMARK   24  A    between atoms: C_55  and  O_56
REMARK   25  A    between atoms: O_57  and  C_58
REMARK   26  A    between atoms: C_58  and  C_60
REMARK   27  A    between atoms: O_61  and  C_62
REMARK                            x       y       z     vdW  Elec       q    Type
REMARK                         _______ _______ _______ _____ _____    ______ ____
ROOT
ATOM      1  C   UNL     1     142.982 166.987 186.473  0.00  0.00    +0.008 C 
ATOM      2  C   UNL     1     142.781 165.560 185.953  0.00  0.00    +0.014 C 
ATOM      3  C   UNL     1     143.649 164.478 186.576  0.00  0.00    +0.134 C 
ATOM      4  O   UNL     1     143.154 163.642 187.335  0.00  0.00    -0.297 OA
ATOM      5  C   UNL     1     145.115 164.445 186.180  0.00  0.00    +0.006 C 
ATOM      6  C   UNL     1     145.758 163.084 186.437  0.00  0.00    -0.044 C 
ATOM      7  C   UNL     1     147.105 162.875 185.731  0.00  0.00    -0.026 C 
ATOM      8  C   UNL     1     148.165 163.939 186.051  0.00  0.00    +0.065 C 
ATOM      9  C   UNL     1     149.556 163.465 185.628  0.00  0.00    +0.071 C 
ATOM     10  C   UNL     1     150.635 164.296 186.269  0.00  0.00    +0.310 C 
ATOM     11  O   UNL     1     151.416 165.004 185.646  0.00  0.00    -0.251 OA
ATOM     12  O   UNL     1     150.653 164.091 187.615  0.00  0.00    -0.461 OA
ATOM     13  C   UNL     1     151.698 164.758 188.362  0.00  0.00    +0.110 C 
ATOM     14  C   UNL     1     152.128 163.813 189.526  0.00  0.00    +0.020 C 
ATOM     15  C   UNL     1     150.959 163.068 190.256  0.00  0.00    +0.068 C 
ATOM     16  C   UNL     1     150.155 163.940 191.248  0.00  0.00    -0.008 C 
ATOM     17  C   UNL     1     150.926 164.340 192.488  0.00  0.00    -0.077 C 
ATOM     18  C   UNL     1     150.419 164.863 193.615  0.00  0.00    -0.003 C 
ATOM     19  C   UNL     1     149.053 165.226 193.781  0.00  0.00    +0.220 A 
ATOM     20  N   UNL     1     148.152 165.417 192.827  0.00  0.00    -0.205 NA
ATOM     21  C   UNL     1     147.016 165.827 193.473  0.00  0.00    +0.164 A 
ATOM     22  C   UNL     1     147.237 165.854 194.823  0.00  0.00    +0.125 A 
ATOM     23  O   UNL     1     148.528 165.485 195.040  0.00  0.00    -0.443 OA
ATOM     24  C   UNL     1     145.669 166.233 192.795  0.00  0.00    +0.250 A 
ATOM     25  N   UNL     1     145.467 166.257 191.486  0.00  0.00    -0.203 NA
ATOM     26  C   UNL     1     144.175 166.705 191.354  0.00  0.00    +0.164 A 
ATOM     27  C   UNL     1     143.630 166.928 192.593  0.00  0.00    +0.125 A 
ATOM     28  O   UNL     1     144.571 166.628 193.528  0.00  0.00    -0.442 OA
ATOM     29  C   UNL     1     143.396 166.946 190.021  0.00  0.00    +0.249 A 
ATOM     30  N   UNL     1     143.884 166.754 188.805  0.00  0.00    -0.212 NA
ATOM     31  C   UNL     1     142.851 167.082 187.956  0.00  0.00    +0.083 A 
ATOM     32  C   UNL     1     141.763 167.477 188.698  0.00  0.00    +0.116 A 
ATOM     33  O   UNL     1     142.092 167.394 190.013  0.00  0.00    -0.442 OA
ATOM     34  H   UNL     1     142.156 167.573 186.043  0.00  0.00    +0.037 HD
ATOM     35  H   UNL     1     142.908 165.518 184.866  0.00  0.00    +0.035 HD
ATOM     36  H   UNL     1     141.739 165.263 186.140  0.00  0.00    +0.035 HD
ATOM     37  H   UNL     1     145.175 164.683 185.113  0.00  0.00    +0.034 HD
ATOM     38  H   UNL     1     145.639 165.210 186.759  0.00  0.00    +0.034 HD
ATOM     39  H   UNL     1     145.890 162.946 187.518  0.00  0.00    +0.027 HD
ATOM     40  H   UNL     1     145.080 162.284 186.108  0.00  0.00    +0.027 HD
ATOM     41  H   UNL     1     147.475 161.885 186.027  0.00  0.00    +0.029 HD
ATOM     42  H   UNL     1     146.931 162.844 184.647  0.00  0.00    +0.029 HD
ATOM     43  H   UNL     1     148.142 164.171 187.122  0.00  0.00    +0.060 HD
ATOM     44  H   UNL     1     149.681 163.536 184.540  0.00  0.00    +0.040 HD
ATOM     45  H   UNL     1     149.740 162.423 185.913  0.00  0.00    +0.040 HD
ATOM     46  H   UNL     1     152.570 164.873 187.704  0.00  0.00    +0.074 HD
ATOM     47  H   UNL     1     152.722 164.375 190.255  0.00  0.00    +0.036 HD
ATOM     48  H   UNL     1     150.266 162.682 189.499  0.00  0.00    +0.060 HD
ATOM     49  H   UNL     1     149.279 163.363 191.571  0.00  0.00    +0.033 HD
ATOM     50  H   UNL     1     149.762 164.822 190.748  0.00  0.00    +0.033 HD
ATOM     51  H   UNL     1     151.997 164.136 192.473  0.00  0.00    +0.057 HD
ATOM     52  H   UNL     1     151.075 165.045 194.458  0.00  0.00    +0.067 HD
ATOM     53  H   UNL     1     146.650 166.104 195.694  0.00  0.00    +0.105 HD
ATOM     54  H   UNL     1     142.675 167.273 192.957  0.00  0.00    +0.105 HD
ATOM     55  H   UNL     1     140.760 167.800 188.473  0.00  0.00    +0.105 HD
ENDROOT
BRANCH   1  56
ATOM     56  C   UNL     1     144.255 167.657 185.954  0.00  0.00    -0.056 C 
ATOM     57  H   UNL     1     144.635 167.124 185.074  0.00  0.00    +0.024 HD
ATOM     58  H   UNL     1     144.096 168.693 185.644  0.00  0.00    +0.024 HD
ATOM     59  H   UNL     1     145.046 167.644 186.714  0.00  0.00    +0.024 HD
ENDBRANCH   1  56
BRANCH  14  60
ATOM     60  C   UNL     1     153.097 162.763 188.925  0.00  0.00    -0.057 C 
ATOM     61  H   UNL     1     153.713 163.195 188.130  0.00  0.00    +0.023 HD
ATOM     62  H   UNL     1     152.546 161.932 188.473  0.00  0.00    +0.023 HD
ATOM     63  H   UNL     1     153.763 162.354 189.694  0.00  0.00    +0.023 HD
ENDBRANCH  14  60
BRANCH  13  64
ATOM     64  C   UNL     1     151.220 166.183 188.715  0.00  0.00    +0.011 C 
ATOM     65  H   UNL     1     151.126 166.748 187.781  0.00  0.00    +0.033 HD
ATOM     66  H   UNL     1     150.222 166.164 189.147  0.00  0.00    +0.033 HD
BRANCH  64  67
ATOM     67  C   UNL     1     152.182 166.920 189.666  0.00  0.00    +0.064 C 
ATOM     68  H   UNL     1     152.437 167.890 189.218  0.00  0.00    +0.060 HD
BRANCH  67  69
ATOM     69  C   UNL     1     151.576 167.188 191.074  0.00  0.00    -0.017 C 
ATOM     70  H   UNL     1     151.546 166.235 191.616  0.00  0.00    +0.032 HD
BRANCH  69  71
ATOM     71  C   UNL     1     152.490 168.116 191.890  0.00  0.00    -0.060 C 
ATOM     72  H   UNL     1     153.502 167.705 191.958  0.00  0.00    +0.023 HD
ATOM     73  H   UNL     1     152.557 169.118 191.452  0.00  0.00    +0.023 HD
ATOM     74  H   UNL     1     152.112 168.228 192.912  0.00  0.00    +0.023 HD
ENDBRANCH  69  71
BRANCH  69  75
ATOM     75  C   UNL     1     150.137 167.752 191.089  0.00  0.00    -0.041 C 
ATOM     76  H   UNL     1     149.441 167.030 191.536  0.00  0.00    +0.027 HD
ATOM     77  H   UNL     1     149.809 167.871 190.048  0.00  0.00    +0.027 HD
BRANCH  75  78
ATOM     78  C   UNL     1     150.007 169.100 191.800  0.00  0.00    +0.007 C 
ATOM     79  H   UNL     1     150.458 169.044 192.794  0.00  0.00    +0.034 HD
ATOM     80  H   UNL     1     150.526 169.863 191.214  0.00  0.00    +0.034 HD
BRANCH  78  81
ATOM     81  C   UNL     1     148.555 169.532 191.975  0.00  0.00    +0.140 C 
ATOM     82  O   UNL     1     147.863 169.132 192.917  0.00  0.00    -0.297 OA
BRANCH  81  83
ATOM     83  C   UNL     1     147.956 170.521 190.977  0.00  0.00    +0.052 C 
ATOM     84  H   UNL     1     148.805 170.912 190.403  0.00  0.00    +0.041 HD
BRANCH  83  85
ATOM     85  C   UNL     1     147.071 169.791 189.964  0.00  0.00    -0.052 C 
ATOM     86  H   UNL     1     147.644 169.566 189.059  0.00  0.00    +0.024 HD
ATOM     87  H   UNL     1     146.682 168.846 190.354  0.00  0.00    +0.024 HD
ATOM     88  H   UNL     1     146.220 170.413 189.673  0.00  0.00    +0.024 HD
ENDBRANCH  83  85
BRANCH  83  89
ATOM     89  C   UNL     1     147.221 171.723 191.607  0.00  0.00    +0.118 C 
ATOM     90  H   UNL     1     146.883 171.365 192.591  0.00  0.00    +0.075 HD
BRANCH  89  91
ATOM     91  C   UNL     1     145.954 172.251 190.869  0.00  0.00    +0.014 C 
ATOM     92  H   UNL     1     145.494 171.375 190.386  0.00  0.00    +0.038 HD
BRANCH  91  93
ATOM     93  C   UNL     1     146.317 173.201 189.721  0.00  0.00    -0.056 C 
ATOM     94  H   UNL     1     147.187 173.824 189.951  0.00  0.00    +0.024 HD
ATOM     95  H   UNL     1     145.479 173.869 189.488  0.00  0.00    +0.024 HD
ATOM     96  H   UNL     1     146.543 172.635 188.810  0.00  0.00    +0.024 HD
ENDBRANCH  91  93
BRANCH  91  97
ATOM     97  C   UNL     1     144.870 172.754 191.805  0.00  0.00    -0.064 C 
ATOM     98  C   UNL     1     143.934 173.676 191.546  0.00  0.00    -0.010 C 
ATOM     99  H   UNL     1     144.864 172.274 192.782  0.00  0.00    +0.059 HD
ATOM    100  H   UNL     1     143.932 174.183 190.581  0.00  0.00    +0.078 HD
BRANCH  98 101
ATOM    101  N   UNL     1     142.921 174.133 192.375  0.00  0.00    -0.317 N 
BRANCH 101 102
ATOM    102  C   UNL     1     141.590 173.534 192.415  0.00  0.00    +0.002 C 
ATOM    103  H   UNL     1     141.661 172.444 192.502  0.00  0.00    +0.043 HD
ATOM    104  H   UNL     1     140.998 173.892 193.264  0.00  0.00    +0.043 HD
ATOM    105  H   UNL     1     141.035 173.781 191.501  0.00  0.00    +0.043 HD
ENDBRANCH 101 102
BRANCH 101 106
ATOM    106  C   UNL     1     143.119 175.272 193.255  0.00  0.00    +0.110 C 
ATOM    107  H   UNL     1     143.935 175.095 193.967  0.00  0.00    +0.077 HD
ATOM    108  H   UNL     1     142.223 175.516 193.836  0.00  0.00    +0.077 HD
BRANCH 106 109
ATOM    109  O   UNL     1     143.452 176.371 192.437  0.00  0.00    -0.377 OA
ATOM    110  H   UNL     1     143.801 177.005 193.089  0.00  0.00    +0.211 HD
ENDBRANCH 106 109
ENDBRANCH 101 106
ENDBRANCH  98 101
ENDBRANCH  91  97
ENDBRANCH  89  91
BRANCH  89 111
ATOM    111  O   UNL     1     148.162 172.800 191.825  0.00  0.00    -0.460 OA
BRANCH 111 112
ATOM    112  C   UNL     1     148.636 172.963 193.091  0.00  0.00    +0.304 C 
ATOM    113  O   UNL     1     149.717 172.570 193.507  0.00  0.00    -0.251 OA
BRANCH 112 114
ATOM    114  C   UNL     1     147.621 173.689 193.919  0.00  0.00    +0.033 C 
ATOM    115  H   UNL     1     146.936 174.237 193.268  0.00  0.00    +0.034 HD
ATOM    116  H   UNL     1     148.124 174.372 194.607  0.00  0.00    +0.034 HD
ATOM    117  H   UNL     1     147.045 172.967 194.505  0.00  0.00    +0.034 HD
ENDBRANCH 112 114
ENDBRANCH 111 112
ENDBRANCH  89 111
ENDBRANCH  83  89
ENDBRANCH  81  83
ENDBRANCH  78  81
ENDBRANCH  75  78
ENDBRANCH  69  75
ENDBRANCH  67  69
BRANCH  67 118
ATOM    118  O   UNL     1     153.374 166.131 189.774  0.00  0.00    -0.379 OA
BRANCH 118 119
ATOM    119  C   UNL     1     154.478 166.677 189.060  0.00  0.00    +0.037 C 
ATOM    120  H   UNL     1     154.198 167.676 188.714  0.00  0.00    +0.052 HD
ATOM    121  H   UNL     1     155.347 166.770 189.720  0.00  0.00    +0.052 HD
ATOM    122  H   UNL     1     154.729 166.067 188.188  0.00  0.00    +0.052 HD
ENDBRANCH 118 119
ENDBRANCH  67 118
ENDBRANCH  64  67
ENDBRANCH  13  64
BRANCH   8 123
ATOM    123  O   UNL     1     147.850 165.142 185.347  0.00  0.00    -0.391 OA
ATOM    124  H   UNL     1     147.006 165.016 184.877  0.00  0.00    +0.210 HD
ENDBRANCH   8 123
BRANCH  15 125
ATOM    125  O   UNL     1     151.503 161.925 190.958  0.00  0.00    -0.379 OA
BRANCH 125 126
ATOM    126  C   UNL     1     150.827 160.703 190.691  0.00  0.00    +0.037 C 
ATOM    127  H   UNL     1     150.075 160.495 191.459  0.00  0.00    +0.052 HD
ATOM    128  H   UNL     1     150.318 160.799 189.728  0.00  0.00    +0.052 HD
ATOM    129  H   UNL     1     151.532 159.871 190.614  0.00  0.00    +0.052 HD
ENDBRANCH 125 126
ENDBRANCH  15 125
TORSDOF 27
ENDMDL
MODEL 3
REMARK VINA RESULT:      -5.6      3.894      7.516
REMARK  Name = Ulapualide A_conf2
REMARK  27 active torsions:
REMARK  status: ('A' for Active; 'I' for Inactive)
REMARK    1  A    between atoms: C_1  and  C_2
REMARK    2  A    between atoms: C_9  and  O_63
REMARK    3  A    between atoms: C_14  and  C_38
REMARK    4  A    between atoms: C_15  and  C_37
REMARK    5  A    between atoms: C_16  and  O_35
REMARK    6  A    between atoms: O_35  and  C_36
REMARK    7  A    between atoms: C_38  and  C_39
REMARK    8  A    between atoms: C_39  and  C_40
REMARK    9  A    between atoms: C_39  and  O_61
REMARK   10  A    between atoms: C_40  and  C_41
REMARK   11  A    between atoms: C_40  and  C_42
REMARK   12  A    between atoms: C_42  and  C_43
REMARK   13  A    between atoms: C_43  and  C_44
REMARK   14  A    between atoms: C_44  and  C_46
REMARK   15  A    between atoms: C_46  and  C_47
REMARK   16  A    between atoms: C_46  and  C_48
REMARK   17  A    between atoms: C_48  and  C_49
REMARK   18  A    between atoms: C_48  and  O_57
REMARK   19  A    between atoms: C_49  and  C_50
REMARK   20  A    between atoms: C_49  and  C_51
REMARK   21  A    between atoms: C_52  and  N_53
REMARK   22  A    between atoms: N_53  and  C_54
REMARK   23  A    between atoms: N_53  and  C_55
REMARK   24  A    between atoms: C_55  and  O_56
REMARK   25  A    between atoms: O_57  and  C_58
REMARK   26  A    between atoms: C_58  and  C_60
REMARK   27  A    between atoms: O_61  and  C_62
REMARK                            x       y       z     vdW  Elec       q    Type
REMARK                         _______ _______ _______ _____ _____    ______ ____
ROOT
ATOM      1  C   UNL     1     151.863 165.464 191.117  0.00  0.00    +0.008 C 
ATOM      2  C   UNL     1     152.797 165.570 189.908  0.00  0.00    +0.014 C 
ATOM      3  C   UNL     1     152.324 166.438 188.754  0.00  0.00    +0.134 C 
ATOM      4  O   UNL     1     152.867 167.521 188.525  0.00  0.00    -0.297 OA
ATOM      5  C   UNL     1     151.210 165.891 187.879  0.00  0.00    +0.006 C 
ATOM      6  C   UNL     1     151.158 166.563 186.509  0.00  0.00    -0.044 C 
ATOM      7  C   UNL     1     150.314 165.817 185.466  0.00  0.00    -0.026 C 
ATOM      8  C   UNL     1     148.863 165.553 185.890  0.00  0.00    +0.065 C 
ATOM      9  C   UNL     1     148.007 165.161 184.685  0.00  0.00    +0.071 C 
ATOM     10  C   UNL     1     146.539 165.277 184.996  0.00  0.00    +0.310 C 
ATOM     11  O   UNL     1     145.765 164.328 185.012  0.00  0.00    -0.251 OA
ATOM     12  O   UNL     1     146.198 166.582 185.186  0.00  0.00    -0.461 OA
ATOM     13  C   UNL     1     144.795 166.862 185.409  0.00  0.00    +0.110 C 
ATOM     14  C   UNL     1     144.471 168.231 184.734  0.00  0.00    +0.020 C 
ATOM     15  C   UNL     1     145.559 169.344 184.913  0.00  0.00    +0.068 C 
ATOM     16  C   UNL     1     145.571 170.021 186.303  0.00  0.00    -0.008 C 
ATOM     17  C   UNL     1     144.363 170.891 186.579  0.00  0.00    -0.077 C 
ATOM     18  C   UNL     1     144.229 171.786 187.571  0.00  0.00    -0.003 C 
ATOM     19  C   UNL     1     145.189 171.983 188.603  0.00  0.00    +0.220 A 
ATOM     20  N   UNL     1     146.169 171.162 188.953  0.00  0.00    -0.205 NA
ATOM     21  C   UNL     1     146.767 171.747 190.038  0.00  0.00    +0.164 A 
ATOM     22  C   UNL     1     146.152 172.937 190.317  0.00  0.00    +0.125 A 
ATOM     23  O   UNL     1     145.140 173.102 189.422  0.00  0.00    -0.443 OA
ATOM     24  C   UNL     1     147.951 171.155 190.866  0.00  0.00    +0.250 A 
ATOM     25  N   UNL     1     148.515 169.980 190.631  0.00  0.00    -0.203 NA
ATOM     26  C   UNL     1     149.467 169.862 191.614  0.00  0.00    +0.164 A 
ATOM     27  C   UNL     1     149.458 170.979 192.409  0.00  0.00    +0.125 A 
ATOM     28  O   UNL     1     148.495 171.821 191.943  0.00  0.00    -0.442 OA
ATOM     29  C   UNL     1     150.439 168.659 191.841  0.00  0.00    +0.249 A 
ATOM     30  N   UNL     1     150.476 167.558 191.107  0.00  0.00    -0.212 NA
ATOM     31  C   UNL     1     151.479 166.798 191.665  0.00  0.00    +0.083 A 
ATOM     32  C   UNL     1     152.012 167.469 192.740  0.00  0.00    +0.116 A 
ATOM     33  O   UNL     1     151.363 168.656 192.864  0.00  0.00    -0.442 OA
ATOM     34  H   UNL     1     152.452 164.958 191.897  0.00  0.00    +0.037 HD
ATOM     35  H   UNL     1     153.041 164.577 189.513  0.00  0.00    +0.035 HD
ATOM     36  H   UNL     1     153.754 165.997 190.241  0.00  0.00    +0.035 HD
ATOM     37  H   UNL     1     151.385 164.816 187.753  0.00  0.00    +0.034 HD
ATOM     38  H   UNL     1     150.262 166.051 188.399  0.00  0.00    +0.034 HD
ATOM     39  H   UNL     1     150.772 167.585 186.624  0.00  0.00    +0.027 HD
ATOM     40  H   UNL     1     152.176 166.665 186.106  0.00  0.00    +0.027 HD
ATOM     41  H   UNL     1     150.327 166.420 184.549  0.00  0.00    +0.029 HD
ATOM     42  H   UNL     1     150.809 164.865 185.234  0.00  0.00    +0.029 HD
ATOM     43  H   UNL     1     148.455 166.442 186.384  0.00  0.00    +0.060 HD
ATOM     44  H   UNL     1     148.204 164.124 184.384  0.00  0.00    +0.040 HD
ATOM     45  H   UNL     1     148.203 165.799 183.816  0.00  0.00    +0.040 HD
ATOM     46  H   UNL     1     144.205 166.098 184.884  0.00  0.00    +0.074 HD
ATOM     47  H   UNL     1     143.503 168.597 185.094  0.00  0.00    +0.036 HD
ATOM     48  H   UNL     1     146.545 168.898 184.739  0.00  0.00    +0.060 HD
ATOM     49  H   UNL     1     146.463 170.658 186.360  0.00  0.00    +0.033 HD
ATOM     50  H   UNL     1     145.686 169.277 187.088  0.00  0.00    +0.033 HD
ATOM     51  H   UNL     1     143.541 170.810 185.868  0.00  0.00    +0.057 HD
ATOM     52  H   UNL     1     143.334 172.395 187.618  0.00  0.00    +0.067 HD
ATOM     53  H   UNL     1     146.280 173.715 191.055  0.00  0.00    +0.105 HD
ATOM     54  H   UNL     1     150.014 171.308 193.273  0.00  0.00    +0.105 HD
ATOM     55  H   UNL     1     152.799 167.276 193.449  0.00  0.00    +0.105 HD
ENDROOT
BRANCH   1  56
ATOM     56  C   UNL     1     150.654 164.558 190.883  0.00  0.00    -0.056 C 
ATOM     57  H   UNL     1     150.010 164.544 191.771  0.00  0.00    +0.024 HD
ATOM     58  H   UNL     1     150.027 164.888 190.051  0.00  0.00    +0.024 HD
ATOM     59  H   UNL     1     150.967 163.525 190.687  0.00  0.00    +0.024 HD
ENDBRANCH   1  56
BRANCH  14  60
ATOM     60  C   UNL     1     144.273 167.957 183.222  0.00  0.00    -0.057 C 
ATOM     61  H   UNL     1     145.170 167.518 182.773  0.00  0.00    +0.023 HD
ATOM     62  H   UNL     1     144.078 168.886 182.676  0.00  0.00    +0.023 HD
ATOM     63  H   UNL     1     143.431 167.276 183.050  0.00  0.00    +0.023 HD
ENDBRANCH  14  60
BRANCH  13  64
ATOM     64  C   UNL     1     144.492 166.697 186.914  0.00  0.00    +0.011 C 
ATOM     65  H   UNL     1     145.193 165.961 187.320  0.00  0.00    +0.033 HD
ATOM     66  H   UNL     1     144.687 167.620 187.455  0.00  0.00    +0.033 HD
BRANCH  64  67
ATOM     67  C   UNL     1     143.048 166.234 187.187  0.00  0.00    +0.064 C 
ATOM     68  H   UNL     1     143.072 165.468 187.973  0.00  0.00    +0.060 HD
BRANCH  67  69
ATOM     69  C   UNL     1     142.109 167.380 187.665  0.00  0.00    -0.017 C 
ATOM     70  H   UNL     1     142.402 168.297 187.140  0.00  0.00    +0.032 HD
BRANCH  69  71
ATOM     71  C   UNL     1     140.656 167.097 187.256  0.00  0.00    -0.060 C 
ATOM     72  H   UNL     1     140.475 166.019 187.180  0.00  0.00    +0.023 HD
ATOM     73  H   UNL     1     139.937 167.515 187.968  0.00  0.00    +0.023 HD
ATOM     74  H   UNL     1     140.439 167.535 186.274  0.00  0.00    +0.023 HD
ENDBRANCH  69  71
BRANCH  69  75
ATOM     75  C   UNL     1     142.158 167.700 189.176  0.00  0.00    -0.041 C 
ATOM     76  H   UNL     1     142.649 166.890 189.730  0.00  0.00    +0.027 HD
ATOM     77  H   UNL     1     141.126 167.730 189.550  0.00  0.00    +0.027 HD
BRANCH  75  78
ATOM     78  C   UNL     1     142.834 169.033 189.506  0.00  0.00    +0.007 C 
ATOM     79  H   UNL     1     143.234 169.484 188.593  0.00  0.00    +0.034 HD
ATOM     80  H   UNL     1     142.095 169.708 189.945  0.00  0.00    +0.034 HD
BRANCH  78  81
ATOM     81  C   UNL     1     143.990 168.876 190.488  0.00  0.00    +0.140 C 
ATOM     82  O   UNL     1     144.206 169.703 191.380  0.00  0.00    -0.297 OA
BRANCH  81  83
ATOM     83  C   UNL     1     144.878 167.637 190.389  0.00  0.00    +0.052 C 
ATOM     84  H   UNL     1     144.281 166.888 189.854  0.00  0.00    +0.041 HD
BRANCH  83  85
ATOM     85  C   UNL     1     146.088 167.917 189.496  0.00  0.00    -0.052 C 
ATOM     86  H   UNL     1     145.981 167.391 188.542  0.00  0.00    +0.024 HD
ATOM     87  H   UNL     1     146.209 168.981 189.276  0.00  0.00    +0.024 HD
ATOM     88  H   UNL     1     147.009 167.563 189.969  0.00  0.00    +0.024 HD
ENDBRANCH  83  85
BRANCH  83  89
ATOM     89  C   UNL     1     145.301 167.024 191.740  0.00  0.00    +0.118 C 
ATOM     90  H   UNL     1     145.332 167.873 192.440  0.00  0.00    +0.075 HD
BRANCH  89  91
ATOM     91  C   UNL     1     146.700 166.343 191.806  0.00  0.00    +0.014 C 
ATOM     92  H   UNL     1     147.403 167.041 191.326  0.00  0.00    +0.038 HD
BRANCH  91  93
ATOM     93  C   UNL     1     146.755 165.066 190.959  0.00  0.00    -0.056 C 
ATOM     94  H   UNL     1     145.856 164.451 191.069  0.00  0.00    +0.024 HD
ATOM     95  H   UNL     1     147.618 164.450 191.236  0.00  0.00    +0.024 HD
ATOM     96  H   UNL     1     146.862 165.314 189.897  0.00  0.00    +0.024 HD
ENDBRANCH  91  93
BRANCH  91  97
ATOM     97  C   UNL     1     147.243 166.204 193.218  0.00  0.00    -0.064 C 
ATOM     98  C   UNL     1     148.500 165.926 193.584  0.00  0.00    -0.010 C 
ATOM     99  H   UNL     1     146.506 166.380 193.999  0.00  0.00    +0.059 HD
ATOM    100  H   UNL     1     149.250 165.727 192.818  0.00  0.00    +0.078 HD
BRANCH  98 101
ATOM    101  N   UNL     1     149.023 165.817 194.863  0.00  0.00    -0.317 N 
BRANCH 101 102
ATOM    102  C   UNL     1     148.285 166.207 196.062  0.00  0.00    +0.002 C 
ATOM    103  H   UNL     1     147.835 165.330 196.540  0.00  0.00    +0.043 HD
ATOM    104  H   UNL     1     148.927 166.692 196.806  0.00  0.00    +0.043 HD
ATOM    105  H   UNL     1     147.490 166.918 195.805  0.00  0.00    +0.043 HD
ENDBRANCH 101 102
BRANCH 101 106
ATOM    106  C   UNL     1     150.369 165.320 195.092  0.00  0.00    +0.110 C 
ATOM    107  H   UNL     1     150.555 165.134 196.157  0.00  0.00    +0.077 HD
ATOM    108  H   UNL     1     151.140 166.015 194.740  0.00  0.00    +0.077 HD
BRANCH 106 109
ATOM    109  O   UNL     1     150.484 164.106 194.385  0.00  0.00    -0.377 OA
ATOM    110  H   UNL     1     149.703 164.142 193.803  0.00  0.00    +0.211 HD
ENDBRANCH 106 109
ENDBRANCH 101 106
ENDBRANCH  98 101
ENDBRANCH  91  97
ENDBRANCH  89  91
BRANCH  89 111
ATOM    111  O   UNL     1     144.274 166.111 192.195  0.00  0.00    -0.460 OA
BRANCH 111 112
ATOM    112  C   UNL     1     143.303 166.622 193.001  0.00  0.00    +0.304 C 
ATOM    113  O   UNL     1     143.488 167.316 193.991  0.00  0.00    -0.251 OA
BRANCH 112 114
ATOM    114  C   UNL     1     141.957 166.190 192.506  0.00  0.00    +0.033 C 
ATOM    115  H   UNL     1     141.365 167.066 192.234  0.00  0.00    +0.034 HD
ATOM    116  H   UNL     1     141.448 165.608 193.277  0.00  0.00    +0.034 HD
ATOM    117  H   UNL     1     142.080 165.561 191.620  0.00  0.00    +0.034 HD
ENDBRANCH 112 114
ENDBRANCH 111 112
ENDBRANCH  89 111
ENDBRANCH  83  89
ENDBRANCH  81  83
ENDBRANCH  78  81
ENDBRANCH  75  78
ENDBRANCH  69  75
ENDBRANCH  67  69
BRANCH  67 118
ATOM    118  O   UNL     1     142.546 165.645 185.980  0.00  0.00    -0.379 OA
BRANCH 118 119
ATOM    119  C   UNL     1     142.391 164.232 186.065  0.00  0.00    +0.037 C 
ATOM    120  H   UNL     1     143.119 163.853 186.788  0.00  0.00    +0.052 HD
ATOM    121  H   UNL     1     141.386 163.981 186.422  0.00  0.00    +0.052 HD
ATOM    122  H   UNL     1     142.580 163.752 185.101  0.00  0.00    +0.052 HD
ENDBRANCH 118 119
ENDBRANCH  67 118
ENDBRANCH  64  67
ENDBRANCH  13  64
BRANCH   8 123
ATOM    123  O   UNL     1     148.838 164.488 186.844  0.00  0.00    -0.391 OA
ATOM    124  H   UNL     1     149.305 164.781 187.648  0.00  0.00    +0.210 HD
ENDBRANCH   8 123
BRANCH  15 125
ATOM    125  O   UNL     1     145.362 170.352 183.893  0.00  0.00    -0.379 OA
BRANCH 125 126
ATOM    126  C   UNL     1     146.560 170.995 183.473  0.00  0.00    +0.037 C 
ATOM    127  H   UNL     1     146.441 172.084 183.472  0.00  0.00    +0.052 HD
ATOM    128  H   UNL     1     147.351 170.737 184.182  0.00  0.00    +0.052 HD
ATOM    129  H   UNL     1     146.869 170.646 182.485  0.00  0.00    +0.052 HD
ENDBRANCH 125 126
ENDBRANCH  15 125
TORSDOF 27
ENDMDL
MODEL 4
REMARK VINA RESULT:      -5.6      3.322      9.577
REMARK  Name = Ulapualide A_conf2
REMARK  27 active torsions:
REMARK  status: ('A' for Active; 'I' for Inactive)
REMARK    1  A    between atoms: C_1  and  C_2
REMARK    2  A    between atoms: C_9  and  O_63
REMARK    3  A    between atoms: C_14  and  C_38
REMARK    4  A    between atoms: C_15  and  C_37
REMARK    5  A    between atoms: C_16  and  O_35
REMARK    6  A    between atoms: O_35  and  C_36
REMARK    7  A    between atoms: C_38  and  C_39
REMARK    8  A    between atoms: C_39  and  C_40
REMARK    9  A    between atoms: C_39  and  O_61
REMARK   10  A    between atoms: C_40  and  C_41
REMARK   11  A    between atoms: C_40  and  C_42
REMARK   12  A    between atoms: C_42  and  C_43
REMARK   13  A    between atoms: C_43  and  C_44
REMARK   14  A    between atoms: C_44  and  C_46
REMARK   15  A    between atoms: C_46  and  C_47
REMARK   16  A    between atoms: C_46  and  C_48
REMARK   17  A    between atoms: C_48  and  C_49
REMARK   18  A    between atoms: C_48  and  O_57
REMARK   19  A    between atoms: C_49  and  C_50
REMARK   20  A    between atoms: C_49  and  C_51
REMARK   21  A    between atoms: C_52  and  N_53
REMARK   22  A    between atoms: N_53  and  C_54
REMARK   23  A    between atoms: N_53  and  C_55
REMARK   24  A    between atoms: C_55  and  O_56
REMARK   25  A    between atoms: O_57  and  C_58
REMARK   26  A    between atoms: C_58  and  C_60
REMARK   27  A    between atoms: O_61  and  C_62
REMARK                            x       y       z     vdW  Elec       q    Type
REMARK                         _______ _______ _______ _____ _____    ______ ____
ROOT
ATOM      1  C   UNL     1     141.860 168.950 187.309  0.00  0.00    +0.008 C 
ATOM      2  C   UNL     1     141.314 167.858 188.234  0.00  0.00    +0.014 C 
ATOM      3  C   UNL     1     142.198 167.449 189.401  0.00  0.00    +0.134 C 
ATOM      4  O   UNL     1     141.890 167.758 190.554  0.00  0.00    -0.297 OA
ATOM      5  C   UNL     1     143.423 166.608 189.088  0.00  0.00    +0.006 C 
ATOM      6  C   UNL     1     143.936 165.848 190.308  0.00  0.00    -0.044 C 
ATOM      7  C   UNL     1     144.924 164.718 189.983  0.00  0.00    -0.026 C 
ATOM      8  C   UNL     1     146.155 165.157 189.179  0.00  0.00    +0.065 C 
ATOM      9  C   UNL     1     147.245 164.086 189.225  0.00  0.00    +0.071 C 
ATOM     10  C   UNL     1     148.575 164.641 188.788  0.00  0.00    +0.310 C 
ATOM     11  O   UNL     1     149.179 164.265 187.791  0.00  0.00    -0.251 OA
ATOM     12  O   UNL     1     149.025 165.556 189.690  0.00  0.00    -0.461 OA
ATOM     13  C   UNL     1     150.338 166.116 189.450  0.00  0.00    +0.110 C 
ATOM     14  C   UNL     1     151.016 166.349 190.835  0.00  0.00    +0.020 C 
ATOM     15  C   UNL     1     150.082 166.924 191.954  0.00  0.00    +0.068 C 
ATOM     16  C   UNL     1     149.783 168.436 191.835  0.00  0.00    -0.008 C 
ATOM     17  C   UNL     1     150.976 169.327 192.109  0.00  0.00    -0.077 C 
ATOM     18  C   UNL     1     150.955 170.651 192.329  0.00  0.00    -0.003 C 
ATOM     19  C   UNL     1     149.786 171.457 192.234  0.00  0.00    +0.220 A 
ATOM     20  N   UNL     1     148.645 171.147 191.633  0.00  0.00    -0.205 NA
ATOM     21  C   UNL     1     147.860 172.264 191.739  0.00  0.00    +0.164 A 
ATOM     22  C   UNL     1     148.531 173.235 192.431  0.00  0.00    +0.125 A 
ATOM     23  O   UNL     1     149.760 172.746 192.747  0.00  0.00    -0.443 OA
ATOM     24  C   UNL     1     146.426 172.440 191.147  0.00  0.00    +0.250 A 
ATOM     25  N   UNL     1     145.794 171.521 190.432  0.00  0.00    -0.203 NA
ATOM     26  C   UNL     1     144.603 172.117 190.097  0.00  0.00    +0.164 A 
ATOM     27  C   UNL     1     144.546 173.379 190.631  0.00  0.00    +0.125 A 
ATOM     28  O   UNL     1     145.705 173.602 191.310  0.00  0.00    -0.442 OA
ATOM     29  C   UNL     1     143.452 171.501 189.237  0.00  0.00    +0.249 A 
ATOM     30  N   UNL     1     143.468 170.294 188.694  0.00  0.00    -0.212 NA
ATOM     31  C   UNL     1     142.257 170.184 188.047  0.00  0.00    +0.083 A 
ATOM     32  C   UNL     1     141.548 171.350 188.213  0.00  0.00    +0.116 A 
ATOM     33  O   UNL     1     142.292 172.197 188.970  0.00  0.00    -0.442 OA
ATOM     34  H   UNL     1     141.018 169.228 186.656  0.00  0.00    +0.037 HD
ATOM     35  H   UNL     1     141.055 166.957 187.666  0.00  0.00    +0.035 HD
ATOM     36  H   UNL     1     140.370 168.212 188.672  0.00  0.00    +0.035 HD
ATOM     37  H   UNL     1     143.145 165.896 188.303  0.00  0.00    +0.034 HD
ATOM     38  H   UNL     1     144.206 167.276 188.719  0.00  0.00    +0.034 HD
ATOM     39  H   UNL     1     144.411 166.556 191.001  0.00  0.00    +0.027 HD
ATOM     40  H   UNL     1     143.091 165.407 190.856  0.00  0.00    +0.027 HD
ATOM     41  H   UNL     1     145.243 164.283 190.939  0.00  0.00    +0.029 HD
ATOM     42  H   UNL     1     144.387 163.932 189.435  0.00  0.00    +0.029 HD
ATOM     43  H   UNL     1     146.529 166.110 189.569  0.00  0.00    +0.060 HD
ATOM     44  H   UNL     1     146.999 163.246 188.563  0.00  0.00    +0.040 HD
ATOM     45  H   UNL     1     147.382 163.681 190.234  0.00  0.00    +0.040 HD
ATOM     46  H   UNL     1     150.940 165.364 188.921  0.00  0.00    +0.074 HD
ATOM     47  H   UNL     1     151.890 166.999 190.712  0.00  0.00    +0.036 HD
ATOM     48  H   UNL     1     149.129 166.382 191.924  0.00  0.00    +0.060 HD
ATOM     49  H   UNL     1     149.005 168.684 192.568  0.00  0.00    +0.033 HD
ATOM     50  H   UNL     1     149.359 168.664 190.860  0.00  0.00    +0.033 HD
ATOM     51  H   UNL     1     151.942 168.827 192.180  0.00  0.00    +0.057 HD
ATOM     52  H   UNL     1     151.877 171.162 192.580  0.00  0.00    +0.067 HD
ATOM     53  H   UNL     1     148.313 174.244 192.747  0.00  0.00    +0.105 HD
ATOM     54  H   UNL     1     143.825 174.182 190.623  0.00  0.00    +0.105 HD
ATOM     55  H   UNL     1     140.578 171.706 187.907  0.00  0.00    +0.105 HD
ENDROOT
BRANCH   1  56
ATOM     56  C   UNL     1     142.953 168.460 186.357  0.00  0.00    -0.056 C 
ATOM     57  H   UNL     1     142.964 167.365 186.322  0.00  0.00    +0.024 HD
ATOM     58  H   UNL     1     142.810 168.803 185.330  0.00  0.00    +0.024 HD
ATOM     59  H   UNL     1     143.944 168.790 186.693  0.00  0.00    +0.024 HD
ENDBRANCH   1  56
BRANCH  14  60
ATOM     60  C   UNL     1     151.580 164.983 191.302  0.00  0.00    -0.057 C 
ATOM     61  H   UNL     1     152.454 164.687 190.712  0.00  0.00    +0.023 HD
ATOM     62  H   UNL     1     150.839 164.187 191.176  0.00  0.00    +0.023 HD
ATOM     63  H   UNL     1     151.872 165.015 192.358  0.00  0.00    +0.023 HD
ENDBRANCH  14  60
BRANCH  13  64
ATOM     64  C   UNL     1     150.195 167.319 188.493  0.00  0.00    +0.011 C 
ATOM     65  H   UNL     1     149.139 167.403 188.213  0.00  0.00    +0.033 HD
ATOM     66  H   UNL     1     150.439 168.251 188.998  0.00  0.00    +0.033 HD
BRANCH  64  67
ATOM     67  C   UNL     1     151.053 167.179 187.222  0.00  0.00    +0.064 C 
ATOM     68  H   UNL     1     151.431 168.173 186.947  0.00  0.00    +0.060 HD
BRANCH  67  69
ATOM     69  C   UNL     1     152.278 166.236 187.402  0.00  0.00    -0.017 C 
ATOM     70  H   UNL     1     152.082 165.588 188.264  0.00  0.00    +0.032 HD
BRANCH  69  71
ATOM     71  C   UNL     1     152.429 165.304 186.190  0.00  0.00    -0.060 C 
ATOM     72  H   UNL     1     151.983 165.753 185.296  0.00  0.00    +0.023 HD
ATOM     73  H   UNL     1     153.477 165.077 185.971  0.00  0.00    +0.023 HD
ATOM     74  H   UNL     1     151.915 164.352 186.370  0.00  0.00    +0.023 HD
ENDBRANCH  69  71
BRANCH  69  75
ATOM     75  C   UNL     1     153.630 166.937 187.675  0.00  0.00    -0.041 C 
ATOM     76  H   UNL     1     153.533 168.024 187.565  0.00  0.00    +0.027 HD
ATOM     77  H   UNL     1     154.337 166.623 186.895  0.00  0.00    +0.027 HD
BRANCH  75  78
ATOM     78  C   UNL     1     154.233 166.608 189.042  0.00  0.00    +0.007 C 
ATOM     79  H   UNL     1     154.345 167.523 189.630  0.00  0.00    +0.034 HD
ATOM     80  H   UNL     1     153.565 165.922 189.570  0.00  0.00    +0.034 HD
BRANCH  78  81
ATOM     81  C   UNL     1     155.607 165.956 188.934  0.00  0.00    +0.140 C 
ATOM     82  O   UNL     1     156.516 166.213 189.730  0.00  0.00    -0.297 OA
BRANCH  81  83
ATOM     83  C   UNL     1     155.849 164.926 187.832  0.00  0.00    +0.052 C 
ATOM     84  H   UNL     1     155.459 165.381 186.913  0.00  0.00    +0.041 HD
BRANCH  83  85
ATOM     85  C   UNL     1     157.349 164.736 187.597  0.00  0.00    -0.052 C 
ATOM     86  H   UNL     1     157.921 165.317 188.327  0.00  0.00    +0.024 HD
ATOM     87  H   UNL     1     157.657 163.691 187.690  0.00  0.00    +0.024 HD
ATOM     88  H   UNL     1     157.632 165.085 186.599  0.00  0.00    +0.024 HD
ENDBRANCH  83  85
BRANCH  83  89
ATOM     89  C   UNL     1     155.131 163.575 188.031  0.00  0.00    +0.118 C 
ATOM     90  H   UNL     1     154.167 163.686 187.512  0.00  0.00    +0.075 HD
BRANCH  89  91
ATOM     91  C   UNL     1     154.800 163.152 189.493  0.00  0.00    +0.014 C 
ATOM     92  H   UNL     1     154.750 164.084 190.077  0.00  0.00    +0.038 HD
BRANCH  91  93
ATOM     93  C   UNL     1     155.938 162.341 190.124  0.00  0.00    -0.056 C 
ATOM     94  H   UNL     1     156.097 161.380 189.623  0.00  0.00    +0.024 HD
ATOM     95  H   UNL     1     155.731 162.135 191.181  0.00  0.00    +0.024 HD
ATOM     96  H   UNL     1     156.879 162.900 190.081  0.00  0.00    +0.024 HD
ENDBRANCH  91  93
BRANCH  91  97
ATOM     97  C   UNL     1     153.414 162.553 189.654  0.00  0.00    -0.064 C 
ATOM     98  C   UNL     1     153.095 161.374 190.202  0.00  0.00    -0.010 C 
ATOM     99  H   UNL     1     152.608 163.189 189.296  0.00  0.00    +0.059 HD
ATOM    100  H   UNL     1     153.888 160.712 190.551  0.00  0.00    +0.078 HD
BRANCH  98 101
ATOM    101  N   UNL     1     151.838 160.818 190.382  0.00  0.00    -0.317 N 
BRANCH 101 102
ATOM    102  C   UNL     1     151.628 159.482 190.933  0.00  0.00    +0.002 C 
ATOM    103  H   UNL     1     150.580 159.179 190.823  0.00  0.00    +0.043 HD
ATOM    104  H   UNL     1     152.241 158.724 190.433  0.00  0.00    +0.043 HD
ATOM    105  H   UNL     1     151.891 159.465 191.998  0.00  0.00    +0.043 HD
ENDBRANCH 101 102
BRANCH 101 106
ATOM    106  C   UNL     1     150.632 161.535 190.005  0.00  0.00    +0.110 C 
ATOM    107  H   UNL     1     149.978 160.922 189.373  0.00  0.00    +0.077 HD
ATOM    108  H   UNL     1     150.846 162.460 189.458  0.00  0.00    +0.077 HD
BRANCH 106 109
ATOM    109  O   UNL     1     149.953 161.852 191.200  0.00  0.00    -0.377 OA
ATOM    110  H   UNL     1     149.182 162.344 190.864  0.00  0.00    +0.211 HD
ENDBRANCH 106 109
ENDBRANCH 101 106
ENDBRANCH  98 101
ENDBRANCH  91  97
ENDBRANCH  89  91
BRANCH  89 111
ATOM    111  O   UNL     1     155.879 162.532 187.362  0.00  0.00    -0.460 OA
BRANCH 111 112
ATOM    112  C   UNL     1     155.202 161.759 186.469  0.00  0.00    +0.304 C 
ATOM    113  O   UNL     1     154.688 162.148 185.430  0.00  0.00    -0.251 OA
BRANCH 112 114
ATOM    114  C   UNL     1     155.162 160.343 186.958  0.00  0.00    +0.033 C 
ATOM    115  H   UNL     1     154.458 160.260 187.789  0.00  0.00    +0.034 HD
ATOM    116  H   UNL     1     156.161 160.030 187.269  0.00  0.00    +0.034 HD
ATOM    117  H   UNL     1     154.828 159.688 186.149  0.00  0.00    +0.034 HD
ENDBRANCH 112 114
ENDBRANCH 111 112
ENDBRANCH  89 111
ENDBRANCH  83  89
ENDBRANCH  81  83
ENDBRANCH  78  81
ENDBRANCH  75  78
ENDBRANCH  69  75
ENDBRANCH  67  69
BRANCH  67 118
ATOM    118  O   UNL     1     150.202 166.700 186.173  0.00  0.00    -0.379 OA
BRANCH 118 119
ATOM    119  C   UNL     1     148.930 167.339 186.143  0.00  0.00    +0.037 C 
ATOM    120  H   UNL     1     148.810 167.901 187.074  0.00  0.00    +0.052 HD
ATOM    121  H   UNL     1     148.878 168.043 185.306  0.00  0.00    +0.052 HD
ATOM    122  H   UNL     1     148.118 166.609 186.074  0.00  0.00    +0.052 HD
ENDBRANCH 118 119
ENDBRANCH  67 118
ENDBRANCH  64  67
ENDBRANCH  13  64
BRANCH   8 123
ATOM    123  O   UNL     1     145.774 165.374 187.818  0.00  0.00    -0.391 OA
ATOM    124  H   UNL     1     146.581 165.414 187.273  0.00  0.00    +0.210 HD
ENDBRANCH   8 123
BRANCH  15 125
ATOM    125  O   UNL     1     150.684 166.656 193.244  0.00  0.00    -0.379 OA
BRANCH 125 126
ATOM    126  C   UNL     1     149.749 166.329 194.264  0.00  0.00    +0.037 C 
ATOM    127  H   UNL     1     150.133 166.605 195.251  0.00  0.00    +0.052 HD
ATOM    128  H   UNL     1     148.832 166.895 194.080  0.00  0.00    +0.052 HD
ATOM    129  H   UNL     1     149.496 165.266 194.240  0.00  0.00    +0.052 HD
ENDBRANCH 125 126
ENDBRANCH  15 125
TORSDOF 27
ENDMDL
MODEL 5
REMARK VINA RESULT:      -5.6      6.488     13.027
REMARK  Name = Ulapualide A_conf2
REMARK  27 active torsions:
REMARK  status: ('A' for Active; 'I' for Inactive)
REMARK    1  A    between atoms: C_1  and  C_2
REMARK    2  A    between atoms: C_9  and  O_63
REMARK    3  A    between atoms: C_14  and  C_38
REMARK    4  A    between atoms: C_15  and  C_37
REMARK    5  A    between atoms: C_16  and  O_35
REMARK    6  A    between atoms: O_35  and  C_36
REMARK    7  A    between atoms: C_38  and  C_39
REMARK    8  A    between atoms: C_39  and  C_40
REMARK    9  A    between atoms: C_39  and  O_61
REMARK   10  A    between atoms: C_40  and  C_41
REMARK   11  A    between atoms: C_40  and  C_42
REMARK   12  A    between atoms: C_42  and  C_43
REMARK   13  A    between atoms: C_43  and  C_44
REMARK   14  A    between atoms: C_44  and  C_46
REMARK   15  A    between atoms: C_46  and  C_47
REMARK   16  A    between atoms: C_46  and  C_48
REMARK   17  A    between atoms: C_48  and  C_49
REMARK   18  A    between atoms: C_48  and  O_57
REMARK   19  A    between atoms: C_49  and  C_50
REMARK   20  A    between atoms: C_49  and  C_51
REMARK   21  A    between atoms: C_52  and  N_53
REMARK   22  A    between atoms: N_53  and  C_54
REMARK   23  A    between atoms: N_53  and  C_55
REMARK   24  A    between atoms: C_55  and  O_56
REMARK   25  A    between atoms: O_57  and  C_58
REMARK   26  A    between atoms: C_58  and  C_60
REMARK   27  A    between atoms: O_61  and  C_62
REMARK                            x       y       z     vdW  Elec       q    Type
REMARK                         _______ _______ _______ _____ _____    ______ ____
ROOT
ATOM      1  C   UNL     1     145.335 178.463 184.408  0.00  0.00    +0.008 C 
ATOM      2  C   UNL     1     144.441 177.674 183.446  0.00  0.00    +0.014 C 
ATOM      3  C   UNL     1     143.461 176.696 184.072  0.00  0.00    +0.134 C 
ATOM      4  O   UNL     1     142.251 176.936 184.067  0.00  0.00    -0.297 OA
ATOM      5  C   UNL     1     144.028 175.408 184.643  0.00  0.00    +0.006 C 
ATOM      6  C   UNL     1     142.972 174.313 184.776  0.00  0.00    -0.044 C 
ATOM      7  C   UNL     1     143.542 172.904 184.991  0.00  0.00    -0.026 C 
ATOM      8  C   UNL     1     144.478 172.772 186.200  0.00  0.00    +0.065 C 
ATOM      9  C   UNL     1     144.693 171.303 186.564  0.00  0.00    +0.071 C 
ATOM     10  C   UNL     1     145.272 171.160 187.946  0.00  0.00    +0.310 C 
ATOM     11  O   UNL     1     146.378 170.689 188.180  0.00  0.00    -0.251 OA
ATOM     12  O   UNL     1     144.368 171.565 188.881  0.00  0.00    -0.461 OA
ATOM     13  C   UNL     1     144.751 171.405 190.268  0.00  0.00    +0.110 C 
ATOM     14  C   UNL     1     143.467 171.041 191.076  0.00  0.00    +0.020 C 
ATOM     15  C   UNL     1     142.174 171.830 190.678  0.00  0.00    +0.068 C 
ATOM     16  C   UNL     1     142.110 173.280 191.210  0.00  0.00    -0.008 C 
ATOM     17  C   UNL     1     141.938 173.382 192.711  0.00  0.00    -0.077 C 
ATOM     18  C   UNL     1     141.599 174.478 193.407  0.00  0.00    -0.003 C 
ATOM     19  C   UNL     1     141.445 175.772 192.833  0.00  0.00    +0.220 A 
ATOM     20  N   UNL     1     141.894 176.185 191.656  0.00  0.00    -0.205 NA
ATOM     21  C   UNL     1     141.571 177.515 191.587  0.00  0.00    +0.164 A 
ATOM     22  C   UNL     1     140.902 177.886 192.722  0.00  0.00    +0.125 A 
ATOM     23  O   UNL     1     140.819 176.796 193.531  0.00  0.00    -0.443 OA
ATOM     24  C   UNL     1     141.924 178.487 190.418  0.00  0.00    +0.250 A 
ATOM     25  N   UNL     1     142.616 178.144 189.342  0.00  0.00    -0.203 NA
ATOM     26  C   UNL     1     142.714 179.308 188.620  0.00  0.00    +0.164 A 
ATOM     27  C   UNL     1     142.066 180.321 189.279  0.00  0.00    +0.125 A 
ATOM     28  O   UNL     1     141.550 179.813 190.431  0.00  0.00    -0.442 OA
ATOM     29  C   UNL     1     143.444 179.508 187.253  0.00  0.00    +0.249 A 
ATOM     30  N   UNL     1     144.090 178.563 186.587  0.00  0.00    -0.212 NA
ATOM     31  C   UNL     1     144.556 179.189 185.453  0.00  0.00    +0.083 A 
ATOM     32  C   UNL     1     144.180 180.511 185.478  0.00  0.00    +0.116 A 
ATOM     33  O   UNL     1     143.470 180.730 186.615  0.00  0.00    -0.442 OA
ATOM     34  H   UNL     1     145.826 179.228 183.789  0.00  0.00    +0.037 HD
ATOM     35  H   UNL     1     145.042 177.133 182.707  0.00  0.00    +0.035 HD
ATOM     36  H   UNL     1     143.836 178.387 182.867  0.00  0.00    +0.035 HD
ATOM     37  H   UNL     1     144.824 175.070 183.970  0.00  0.00    +0.034 HD
ATOM     38  H   UNL     1     144.448 175.631 185.627  0.00  0.00    +0.034 HD
ATOM     39  H   UNL     1     142.298 174.562 185.606  0.00  0.00    +0.027 HD
ATOM     40  H   UNL     1     142.347 174.287 183.872  0.00  0.00    +0.027 HD
ATOM     41  H   UNL     1     142.688 172.225 185.110  0.00  0.00    +0.029 HD
ATOM     42  H   UNL     1     144.073 172.599 184.079  0.00  0.00    +0.029 HD
ATOM     43  H   UNL     1     144.064 173.326 187.050  0.00  0.00    +0.060 HD
ATOM     44  H   UNL     1     145.383 170.820 185.860  0.00  0.00    +0.040 HD
ATOM     45  H   UNL     1     143.756 170.733 186.548  0.00  0.00    +0.040 HD
ATOM     46  H   UNL     1     145.430 170.544 190.340  0.00  0.00    +0.074 HD
ATOM     47  H   UNL     1     143.661 171.164 192.148  0.00  0.00    +0.036 HD
ATOM     48  H   UNL     1     142.110 171.863 189.584  0.00  0.00    +0.060 HD
ATOM     49  H   UNL     1     141.250 173.774 190.741  0.00  0.00    +0.033 HD
ATOM     50  H   UNL     1     142.986 173.841 190.893  0.00  0.00    +0.033 HD
ATOM     51  H   UNL     1     142.058 172.455 193.271  0.00  0.00    +0.057 HD
ATOM     52  H   UNL     1     141.444 174.401 194.477  0.00  0.00    +0.067 HD
ATOM     53  H   UNL     1     140.467 178.802 193.094  0.00  0.00    +0.105 HD
ATOM     54  H   UNL     1     141.893 181.370 189.090  0.00  0.00    +0.105 HD
ATOM     55  H   UNL     1     144.304 181.355 184.820  0.00  0.00    +0.105 HD
ENDROOT
BRANCH   1  56
ATOM     56  C   UNL     1     146.479 177.638 185.000  0.00  0.00    -0.056 C 
ATOM     57  H   UNL     1     146.962 178.187 185.817  0.00  0.00    +0.024 HD
ATOM     58  H   UNL     1     146.147 176.686 185.420  0.00  0.00    +0.024 HD
ATOM     59  H   UNL     1     147.247 177.430 184.244  0.00  0.00    +0.024 HD
ENDBRANCH   1  56
BRANCH  14  60
ATOM     60  C   UNL     1     143.216 169.525 190.873  0.00  0.00    -0.057 C 
ATOM     61  H   UNL     1     142.374 169.346 190.196  0.00  0.00    +0.023 HD
ATOM     62  H   UNL     1     142.960 169.038 191.819  0.00  0.00    +0.023 HD
ATOM     63  H   UNL     1     144.102 169.029 190.460  0.00  0.00    +0.023 HD
ENDBRANCH  14  60
BRANCH  13  64
ATOM     64  C   UNL     1     145.563 172.644 190.702  0.00  0.00    +0.011 C 
ATOM     65  H   UNL     1     146.054 173.053 189.814  0.00  0.00    +0.033 HD
ATOM     66  H   UNL     1     144.907 173.433 191.065  0.00  0.00    +0.033 HD
BRANCH  64  67
ATOM     67  C   UNL     1     146.623 172.321 191.772  0.00  0.00    +0.064 C 
ATOM     68  H   UNL     1     146.138 171.763 192.584  0.00  0.00    +0.060 HD
BRANCH  67  69
ATOM     69  C   UNL     1     147.802 171.457 191.235  0.00  0.00    -0.017 C 
ATOM     70  H   UNL     1     147.598 171.224 190.184  0.00  0.00    +0.032 HD
BRANCH  69  71
ATOM     71  C   UNL     1     149.113 172.258 191.251  0.00  0.00    -0.060 C 
ATOM     72  H   UNL     1     149.190 172.861 192.162  0.00  0.00    +0.023 HD
ATOM     73  H   UNL     1     149.993 171.610 191.195  0.00  0.00    +0.023 HD
ATOM     74  H   UNL     1     149.154 172.945 190.398  0.00  0.00    +0.023 HD
ENDBRANCH  69  71
BRANCH  69  75
ATOM     75  C   UNL     1     148.024 170.106 191.954  0.00  0.00    -0.041 C 
ATOM     76  H   UNL     1     147.455 170.065 192.891  0.00  0.00    +0.027 HD
ATOM     77  H   UNL     1     149.080 170.047 192.247  0.00  0.00    +0.027 HD
BRANCH  75  78
ATOM     78  C   UNL     1     147.688 168.885 191.094  0.00  0.00    +0.007 C 
ATOM     79  H   UNL     1     146.682 168.988 190.677  0.00  0.00    +0.034 HD
ATOM     80  H   UNL     1     148.409 168.816 190.276  0.00  0.00    +0.034 HD
BRANCH  78  81
ATOM     81  C   UNL     1     147.730 167.583 191.886  0.00  0.00    +0.140 C 
ATOM     82  O   UNL     1     147.077 166.590 191.546  0.00  0.00    -0.297 OA
BRANCH  81  83
ATOM     83  C   UNL     1     148.638 167.495 193.111  0.00  0.00    +0.052 C 
ATOM     84  H   UNL     1     148.787 168.529 193.443  0.00  0.00    +0.041 HD
BRANCH  83  85
ATOM     85  C   UNL     1     147.918 166.789 194.262  0.00  0.00    -0.052 C 
ATOM     86  H   UNL     1     147.494 167.529 194.949  0.00  0.00    +0.024 HD
ATOM     87  H   UNL     1     147.100 166.152 193.915  0.00  0.00    +0.024 HD
ATOM     88  H   UNL     1     148.614 166.167 194.831  0.00  0.00    +0.024 HD
ENDBRANCH  83  85
BRANCH  83  89
ATOM     89  C   UNL     1     150.029 166.879 192.851  0.00  0.00    +0.118 C 
ATOM     90  H   UNL     1     149.995 166.530 191.808  0.00  0.00    +0.075 HD
BRANCH  89  91
ATOM     91  C   UNL     1     150.436 165.649 193.717  0.00  0.00    +0.014 C 
ATOM     92  H   UNL     1     149.577 165.438 194.372  0.00  0.00    +0.038 HD
BRANCH  91  93
ATOM     93  C   UNL     1     151.597 165.977 194.664  0.00  0.00    -0.056 C 
ATOM     94  H   UNL     1     151.563 167.009 195.027  0.00  0.00    +0.024 HD
ATOM     95  H   UNL     1     152.561 165.830 194.165  0.00  0.00    +0.024 HD
ATOM     96  H   UNL     1     151.580 165.315 195.537  0.00  0.00    +0.024 HD
ENDBRANCH  91  93
BRANCH  91  97
ATOM     97  C   UNL     1     150.598 164.369 192.917  0.00  0.00    -0.064 C 
ATOM     98  C   UNL     1     149.791 163.901 191.956  0.00  0.00    -0.010 C 
ATOM     99  H   UNL     1     151.495 163.801 193.158  0.00  0.00    +0.059 HD
ATOM    100  H   UNL     1     148.878 164.443 191.711  0.00  0.00    +0.078 HD
BRANCH  98 101
ATOM    101  N   UNL     1     149.931 162.750 191.196  0.00  0.00    -0.317 N 
BRANCH 101 102
ATOM    102  C   UNL     1     151.168 162.395 190.506  0.00  0.00    +0.002 C 
ATOM    103  H   UNL     1     151.419 163.148 189.751  0.00  0.00    +0.043 HD
ATOM    104  H   UNL     1     152.021 162.323 191.191  0.00  0.00    +0.043 HD
ATOM    105  H   UNL     1     151.062 161.420 190.013  0.00  0.00    +0.043 HD
ENDBRANCH 101 102
BRANCH 101 106
ATOM    106  C   UNL     1     148.829 161.820 191.020  0.00  0.00    +0.110 C 
ATOM    107  H   UNL     1     148.957 161.207 190.120  0.00  0.00    +0.077 HD
ATOM    108  H   UNL     1     147.860 162.326 190.939  0.00  0.00    +0.077 HD
BRANCH 106 109
ATOM    109  O   UNL     1     148.816 160.979 192.152  0.00  0.00    -0.377 OA
ATOM    110  H   UNL     1     148.298 161.508 192.785  0.00  0.00    +0.211 HD
ENDBRANCH 106 109
ENDBRANCH 101 106
ENDBRANCH  98 101
ENDBRANCH  91  97
ENDBRANCH  89  91
BRANCH  89 111
ATOM    111  O   UNL     1     151.036 167.914 192.941  0.00  0.00    -0.460 OA
BRANCH 111 112
ATOM    112  C   UNL     1     151.385 168.542 191.785  0.00  0.00    +0.304 C 
ATOM    113  O   UNL     1     151.376 168.042 190.669  0.00  0.00    -0.251 OA
BRANCH 112 114
ATOM    114  C   UNL     1     151.806 169.948 192.082  0.00  0.00    +0.033 C 
ATOM    115  H   UNL     1     151.290 170.638 191.410  0.00  0.00    +0.034 HD
ATOM    116  H   UNL     1     152.888 170.042 191.970  0.00  0.00    +0.034 HD
ATOM    117  H   UNL     1     151.540 170.198 193.113  0.00  0.00    +0.034 HD
ENDBRANCH 112 114
ENDBRANCH 111 112
ENDBRANCH  89 111
ENDBRANCH  83  89
ENDBRANCH  81  83
ENDBRANCH  78  81
ENDBRANCH  75  78
ENDBRANCH  69  75
ENDBRANCH  67  69
BRANCH  67 118
ATOM    118  O   UNL     1     147.110 173.565 192.291  0.00  0.00    -0.379 OA
BRANCH 118 119
ATOM    119  C   UNL     1     147.143 173.608 193.714  0.00  0.00    +0.037 C 
ATOM    120  H   UNL     1     147.586 174.562 194.014  0.00  0.00    +0.052 HD
ATOM    121  H   UNL     1     146.127 173.557 194.119  0.00  0.00    +0.052 HD
ATOM    122  H   UNL     1     147.755 172.800 194.123  0.00  0.00    +0.052 HD
ENDBRANCH 118 119
ENDBRANCH  67 118
ENDBRANCH  64  67
ENDBRANCH  13  64
BRANCH   8 123
ATOM    123  O   UNL     1     145.741 173.361 185.883  0.00  0.00    -0.391 OA
ATOM    124  H   UNL     1     146.421 172.969 186.461  0.00  0.00    +0.210 HD
ENDBRANCH   8 123
BRANCH  15 125
ATOM    125  O   UNL     1     141.018 171.097 191.150  0.00  0.00    -0.379 OA
BRANCH 125 126
ATOM    126  C   UNL     1     139.851 171.280 190.359  0.00  0.00    +0.037 C 
ATOM    127  H   UNL     1     139.988 172.094 189.640  0.00  0.00    +0.052 HD
ATOM    128  H   UNL     1     139.668 170.357 189.804  0.00  0.00    +0.052 HD
ATOM    129  H   UNL     1     138.976 171.472 190.987  0.00  0.00    +0.052 HD
ENDBRANCH 125 126
ENDBRANCH  15 125
TORSDOF 27
ENDMDL
MODEL 6
REMARK VINA RESULT:      -5.5      1.807      3.117
REMARK  Name = Ulapualide A_conf2
REMARK  27 active torsions:
REMARK  status: ('A' for Active; 'I' for Inactive)
REMARK    1  A    between atoms: C_1  and  C_2
REMARK    2  A    between atoms: C_9  and  O_63
REMARK    3  A    between atoms: C_14  and  C_38
REMARK    4  A    between atoms: C_15  and  C_37
REMARK    5  A    between atoms: C_16  and  O_35
REMARK    6  A    between atoms: O_35  and  C_36
REMARK    7  A    between atoms: C_38  and  C_39
REMARK    8  A    between atoms: C_39  and  C_40
REMARK    9  A    between atoms: C_39  and  O_61
REMARK   10  A    between atoms: C_40  and  C_41
REMARK   11  A    between atoms: C_40  and  C_42
REMARK   12  A    between atoms: C_42  and  C_43
REMARK   13  A    between atoms: C_43  and  C_44
REMARK   14  A    between atoms: C_44  and  C_46
REMARK   15  A    between atoms: C_46  and  C_47
REMARK   16  A    between atoms: C_46  and  C_48
REMARK   17  A    between atoms: C_48  and  C_49
REMARK   18  A    between atoms: C_48  and  O_57
REMARK   19  A    between atoms: C_49  and  C_50
REMARK   20  A    between atoms: C_49  and  C_51
REMARK   21  A    between atoms: C_52  and  N_53
REMARK   22  A    between atoms: N_53  and  C_54
REMARK   23  A    between atoms: N_53  and  C_55
REMARK   24  A    between atoms: C_55  and  O_56
REMARK   25  A    between atoms: O_57  and  C_58
REMARK   26  A    between atoms: C_58  and  C_60
REMARK   27  A    between atoms: O_61  and  C_62
REMARK                            x       y       z     vdW  Elec       q    Type
REMARK                         _______ _______ _______ _____ _____    ______ ____
ROOT
ATOM      1  C   UNL     1     146.789 157.733 190.122  0.00  0.00    +0.008 C 
ATOM      2  C   UNL     1     145.997 157.364 188.864  0.00  0.00    +0.014 C 
ATOM      3  C   UNL     1     146.014 158.372 187.727  0.00  0.00    +0.134 C 
ATOM      4  O   UNL     1     146.638 158.133 186.691  0.00  0.00    -0.297 OA
ATOM      5  C   UNL     1     145.194 159.638 187.904  0.00  0.00    +0.006 C 
ATOM      6  C   UNL     1     144.870 160.315 186.575  0.00  0.00    -0.044 C 
ATOM      7  C   UNL     1     143.756 161.369 186.653  0.00  0.00    -0.026 C 
ATOM      8  C   UNL     1     144.005 162.486 187.675  0.00  0.00    +0.065 C 
ATOM      9  C   UNL     1     143.066 163.667 187.430  0.00  0.00    +0.071 C 
ATOM     10  C   UNL     1     143.542 164.902 188.147  0.00  0.00    +0.310 C 
ATOM     11  O   UNL     1     142.920 165.455 189.046  0.00  0.00    -0.251 OA
ATOM     12  O   UNL     1     144.712 165.342 187.608  0.00  0.00    -0.461 OA
ATOM     13  C   UNL     1     145.252 166.576 188.138  0.00  0.00    +0.110 C 
ATOM     14  C   UNL     1     145.933 167.341 186.963  0.00  0.00    +0.020 C 
ATOM     15  C   UNL     1     146.762 166.454 185.972  0.00  0.00    +0.068 C 
ATOM     16  C   UNL     1     148.146 166.014 186.500  0.00  0.00    -0.008 C 
ATOM     17  C   UNL     1     149.149 167.141 186.628  0.00  0.00    -0.077 C 
ATOM     18  C   UNL     1     150.473 167.021 186.807  0.00  0.00    -0.003 C 
ATOM     19  C   UNL     1     151.141 165.780 187.014  0.00  0.00    +0.220 A 
ATOM     20  N   UNL     1     150.595 164.626 187.374  0.00  0.00    -0.205 NA
ATOM     21  C   UNL     1     151.643 163.756 187.520  0.00  0.00    +0.164 A 
ATOM     22  C   UNL     1     152.816 164.393 187.220  0.00  0.00    +0.125 A 
ATOM     23  O   UNL     1     152.521 165.682 186.904  0.00  0.00    -0.443 OA
ATOM     24  C   UNL     1     151.544 162.269 187.985  0.00  0.00    +0.250 A 
ATOM     25  N   UNL     1     150.416 161.664 188.327  0.00  0.00    -0.203 NA
ATOM     26  C   UNL     1     150.810 160.402 188.696  0.00  0.00    +0.164 A 
ATOM     27  C   UNL     1     152.169 160.277 188.555  0.00  0.00    +0.125 A 
ATOM     28  O   UNL     1     152.656 161.463 188.098  0.00  0.00    -0.442 OA
ATOM     29  C   UNL     1     149.895 159.244 189.210  0.00  0.00    +0.249 A 
ATOM     30  N   UNL     1     148.583 159.322 189.371  0.00  0.00    -0.212 NA
ATOM     31  C   UNL     1     148.210 158.078 189.827  0.00  0.00    +0.083 A 
ATOM     32  C   UNL     1     149.327 157.283 189.939  0.00  0.00    +0.116 A 
ATOM     33  O   UNL     1     150.406 158.009 189.548  0.00  0.00    -0.442 OA
ATOM     34  H   UNL     1     146.805 156.819 190.736  0.00  0.00    +0.037 HD
ATOM     35  H   UNL     1     144.953 157.140 189.110  0.00  0.00    +0.035 HD
ATOM     36  H   UNL     1     146.409 156.430 188.453  0.00  0.00    +0.035 HD
ATOM     37  H   UNL     1     144.262 159.361 188.411  0.00  0.00    +0.034 HD
ATOM     38  H   UNL     1     145.765 160.325 188.534  0.00  0.00    +0.034 HD
ATOM     39  H   UNL     1     145.781 160.780 186.176  0.00  0.00    +0.027 HD
ATOM     40  H   UNL     1     144.565 159.560 185.836  0.00  0.00    +0.027 HD
ATOM     41  H   UNL     1     143.651 161.803 185.651  0.00  0.00    +0.029 HD
ATOM     42  H   UNL     1     142.811 160.861 186.886  0.00  0.00    +0.029 HD
ATOM     43  H   UNL     1     145.053 162.805 187.625  0.00  0.00    +0.060 HD
ATOM     44  H   UNL     1     142.052 163.444 187.784  0.00  0.00    +0.040 HD
ATOM     45  H   UNL     1     142.994 163.921 186.366  0.00  0.00    +0.040 HD
ATOM     46  H   UNL     1     144.413 167.197 188.482  0.00  0.00    +0.074 HD
ATOM     47  H   UNL     1     146.567 168.141 187.363  0.00  0.00    +0.036 HD
ATOM     48  H   UNL     1     146.180 165.554 185.741  0.00  0.00    +0.060 HD
ATOM     49  H   UNL     1     148.557 165.278 185.796  0.00  0.00    +0.033 HD
ATOM     50  H   UNL     1     148.043 165.493 187.449  0.00  0.00    +0.033 HD
ATOM     51  H   UNL     1     148.752 168.150 186.514  0.00  0.00    +0.057 HD
ATOM     52  H   UNL     1     151.091 167.911 186.817  0.00  0.00    +0.067 HD
ATOM     53  H   UNL     1     153.859 164.113 187.195  0.00  0.00    +0.105 HD
ATOM     54  H   UNL     1     152.886 159.490 188.725  0.00  0.00    +0.105 HD
ATOM     55  H   UNL     1     149.515 156.264 190.233  0.00  0.00    +0.105 HD
ENDROOT
BRANCH   1  56
ATOM     56  C   UNL     1     146.102 158.784 190.996  0.00  0.00    -0.056 C 
ATOM     57  H   UNL     1     146.208 158.527 192.056  0.00  0.00    +0.024 HD
ATOM     58  H   UNL     1     146.526 159.784 190.874  0.00  0.00    +0.024 HD
ATOM     59  H   UNL     1     145.028 158.838 190.776  0.00  0.00    +0.024 HD
ENDBRANCH   1  56
BRANCH  14  60
ATOM     60  C   UNL     1     144.808 168.060 186.175  0.00  0.00    -0.057 C 
ATOM     61  H   UNL     1     144.001 167.370 185.908  0.00  0.00    +0.023 HD
ATOM     62  H   UNL     1     145.188 168.472 185.234  0.00  0.00    +0.023 HD
ATOM     63  H   UNL     1     144.380 168.883 186.760  0.00  0.00    +0.023 HD
ENDBRANCH  14  60
BRANCH  13  64
ATOM     64  C   UNL     1     146.098 166.248 189.388  0.00  0.00    +0.011 C 
ATOM     65  H   UNL     1     145.626 165.405 189.903  0.00  0.00    +0.033 HD
ATOM     66  H   UNL     1     147.090 165.903 189.107  0.00  0.00    +0.033 HD
BRANCH  64  67
ATOM     67  C   UNL     1     146.221 167.439 190.357  0.00  0.00    +0.064 C 
ATOM     68  H   UNL     1     145.445 168.174 190.104  0.00  0.00    +0.060 HD
BRANCH  67  69
ATOM     69  C   UNL     1     146.034 167.044 191.851  0.00  0.00    -0.017 C 
ATOM     70  H   UNL     1     145.910 167.966 192.431  0.00  0.00    +0.032 HD
BRANCH  69  71
ATOM     71  C   UNL     1     144.739 166.239 192.042  0.00  0.00    -0.060 C 
ATOM     72  H   UNL     1     143.867 166.902 192.057  0.00  0.00    +0.023 HD
ATOM     73  H   UNL     1     144.592 165.500 191.248  0.00  0.00    +0.023 HD
ATOM     74  H   UNL     1     144.758 165.700 192.996  0.00  0.00    +0.023 HD
ENDBRANCH  69  71
BRANCH  69  75
ATOM     75  C   UNL     1     147.210 166.272 192.493  0.00  0.00    -0.041 C 
ATOM     76  H   UNL     1     147.975 166.034 191.743  0.00  0.00    +0.027 HD
ATOM     77  H   UNL     1     146.829 165.303 192.843  0.00  0.00    +0.027 HD
BRANCH  75  78
ATOM     78  C   UNL     1     147.856 166.998 193.674  0.00  0.00    +0.007 C 
ATOM     79  H   UNL     1     148.203 167.987 193.361  0.00  0.00    +0.034 HD
ATOM     80  H   UNL     1     147.115 167.114 194.469  0.00  0.00    +0.034 HD
BRANCH  78  81
ATOM     81  C   UNL     1     149.056 166.245 194.239  0.00  0.00    +0.140 C 
ATOM     82  O   UNL     1     148.926 165.204 194.890  0.00  0.00    -0.297 OA
BRANCH  81  83
ATOM     83  C   UNL     1     150.459 166.777 193.955  0.00  0.00    +0.052 C 
ATOM     84  H   UNL     1     150.482 167.790 194.376  0.00  0.00    +0.041 HD
BRANCH  83  85
ATOM     85  C   UNL     1     151.504 165.979 194.738  0.00  0.00    -0.052 C 
ATOM     86  H   UNL     1     152.033 166.635 195.435  0.00  0.00    +0.024 HD
ATOM     87  H   UNL     1     151.059 165.166 195.319  0.00  0.00    +0.024 HD
ATOM     88  H   UNL     1     152.246 165.544 194.062  0.00  0.00    +0.024 HD
ENDBRANCH  83  85
BRANCH  83  89
ATOM     89  C   UNL     1     150.829 166.881 192.460  0.00  0.00    +0.118 C 
ATOM     90  H   UNL     1     149.870 167.021 191.939  0.00  0.00    +0.075 HD
BRANCH  89  91
ATOM     91  C   UNL     1     151.511 165.641 191.808  0.00  0.00    +0.014 C 
ATOM     92  H   UNL     1     152.276 165.301 192.523  0.00  0.00    +0.038 HD
BRANCH  91  93
ATOM     93  C   UNL     1     152.284 166.017 190.537  0.00  0.00    -0.056 C 
ATOM     94  H   UNL     1     153.211 166.557 190.755  0.00  0.00    +0.024 HD
ATOM     95  H   UNL     1     151.674 166.651 189.883  0.00  0.00    +0.024 HD
ATOM     96  H   UNL     1     152.545 165.119 189.967  0.00  0.00    +0.024 HD
ENDBRANCH  91  93
BRANCH  91  97
ATOM     97  C   UNL     1     150.590 164.442 191.672  0.00  0.00    -0.064 C 
ATOM     98  C   UNL     1     149.525 164.320 190.870  0.00  0.00    -0.010 C 
ATOM     99  H   UNL     1     150.867 163.592 192.292  0.00  0.00    +0.059 HD
ATOM    100  H   UNL     1     149.217 165.164 190.253  0.00  0.00    +0.078 HD
BRANCH  98 101
ATOM    101  N   UNL     1     148.685 163.228 190.711  0.00  0.00    -0.317 N 
BRANCH 101 102
ATOM    102  C   UNL     1     148.807 162.006 191.500  0.00  0.00    +0.002 C 
ATOM    103  H   UNL     1     149.488 161.299 191.013  0.00  0.00    +0.043 HD
ATOM    104  H   UNL     1     149.200 162.197 192.505  0.00  0.00    +0.043 HD
ATOM    105  H   UNL     1     147.826 161.529 191.618  0.00  0.00    +0.043 HD
ENDBRANCH 101 102
BRANCH 101 106
ATOM    106  C   UNL     1     147.625 163.226 189.717  0.00  0.00    +0.110 C 
ATOM    107  H   UNL     1     147.887 163.840 188.846  0.00  0.00    +0.077 HD
ATOM    108  H   UNL     1     146.676 163.604 190.113  0.00  0.00    +0.077 HD
BRANCH 106 109
ATOM    109  O   UNL     1     147.452 161.889 189.304  0.00  0.00    -0.377 OA
ATOM    110  H   UNL     1     147.349 161.430 190.157  0.00  0.00    +0.211 HD
ENDBRANCH 106 109
ENDBRANCH 101 106
ENDBRANCH  98 101
ENDBRANCH  91  97
ENDBRANCH  89  91
BRANCH  89 111
ATOM    111  O   UNL     1     151.629 168.067 192.246  0.00  0.00    -0.460 OA
BRANCH 111 112
ATOM    112  C   UNL     1     150.964 169.246 192.101  0.00  0.00    +0.304 C 
ATOM    113  O   UNL     1     149.749 169.384 192.076  0.00  0.00    -0.251 OA
BRANCH 112 114
ATOM    114  C   UNL     1     151.949 170.366 191.958  0.00  0.00    +0.033 C 
ATOM    115  H   UNL     1     152.421 170.568 192.922  0.00  0.00    +0.034 HD
ATOM    116  H   UNL     1     151.442 171.259 191.585  0.00  0.00    +0.034 HD
ATOM    117  H   UNL     1     152.723 170.081 191.240  0.00  0.00    +0.034 HD
ENDBRANCH 112 114
ENDBRANCH 111 112
ENDBRANCH  89 111
ENDBRANCH  83  89
ENDBRANCH  81  83
ENDBRANCH  78  81
ENDBRANCH  75  78
ENDBRANCH  69  75
ENDBRANCH  67  69
BRANCH  67 118
ATOM    118  O   UNL     1     147.509 168.034 190.153  0.00  0.00    -0.379 OA
BRANCH 118 119
ATOM    119  C   UNL     1     147.444 169.336 189.582  0.00  0.00    +0.037 C 
ATOM    120  H   UNL     1     148.225 169.948 190.043  0.00  0.00    +0.052 HD
ATOM    121  H   UNL     1     147.634 169.288 188.504  0.00  0.00    +0.052 HD
ATOM    122  H   UNL     1     146.477 169.808 189.775  0.00  0.00    +0.052 HD
ENDBRANCH 118 119
ENDBRANCH  67 118
ENDBRANCH  64  67
ENDBRANCH  13  64
BRANCH   8 123
ATOM    123  O   UNL     1     143.778 161.978 188.992  0.00  0.00    -0.391 OA
ATOM    124  H   UNL     1     143.150 161.235 188.934  0.00  0.00    +0.210 HD
ENDBRANCH   8 123
BRANCH  15 125
ATOM    125  O   UNL     1     146.933 167.181 184.731  0.00  0.00    -0.379 OA
BRANCH 125 126
ATOM    126  C   UNL     1     147.098 166.349 183.589  0.00  0.00    +0.037 C 
ATOM    127  H   UNL     1     147.989 165.720 183.688  0.00  0.00    +0.052 HD
ATOM    128  H   UNL     1     146.224 165.698 183.514  0.00  0.00    +0.052 HD
ATOM    129  H   UNL     1     147.153 166.944 182.674  0.00  0.00    +0.052 HD
ENDBRANCH 125 126
ENDBRANCH  15 125
TORSDOF 27
ENDMDL
MODEL 7
REMARK VINA RESULT:      -5.5      2.996      7.478
REMARK  Name = Ulapualide A_conf2
REMARK  27 active torsions:
REMARK  status: ('A' for Active; 'I' for Inactive)
REMARK    1  A    between atoms: C_1  and  C_2
REMARK    2  A    between atoms: C_9  and  O_63
REMARK    3  A    between atoms: C_14  and  C_38
REMARK    4  A    between atoms: C_15  and  C_37
REMARK    5  A    between atoms: C_16  and  O_35
REMARK    6  A    between atoms: O_35  and  C_36
REMARK    7  A    between atoms: C_38  and  C_39
REMARK    8  A    between atoms: C_39  and  C_40
REMARK    9  A    between atoms: C_39  and  O_61
REMARK   10  A    between atoms: C_40  and  C_41
REMARK   11  A    between atoms: C_40  and  C_42
REMARK   12  A    between atoms: C_42  and  C_43
REMARK   13  A    between atoms: C_43  and  C_44
REMARK   14  A    between atoms: C_44  and  C_46
REMARK   15  A    between atoms: C_46  and  C_47
REMARK   16  A    between atoms: C_46  and  C_48
REMARK   17  A    between atoms: C_48  and  C_49
REMARK   18  A    between atoms: C_48  and  O_57
REMARK   19  A    between atoms: C_49  and  C_50
REMARK   20  A    between atoms: C_49  and  C_51
REMARK   21  A    between atoms: C_52  and  N_53
REMARK   22  A    between atoms: N_53  and  C_54
REMARK   23  A    between atoms: N_53  and  C_55
REMARK   24  A    between atoms: C_55  and  O_56
REMARK   25  A    between atoms: O_57  and  C_58
REMARK   26  A    between atoms: C_58  and  C_60
REMARK   27  A    between atoms: O_61  and  C_62
REMARK                            x       y       z     vdW  Elec       q    Type
REMARK                         _______ _______ _______ _____ _____    ______ ____
ROOT
ATOM      1  C   UNL     1     151.490 165.694 190.865  0.00  0.00    +0.008 C 
ATOM      2  C   UNL     1     152.301 165.762 189.567  0.00  0.00    +0.014 C 
ATOM      3  C   UNL     1     151.719 166.604 188.443  0.00  0.00    +0.134 C 
ATOM      4  O   UNL     1     152.240 167.678 188.134  0.00  0.00    -0.297 OA
ATOM      5  C   UNL     1     150.523 166.041 187.697  0.00  0.00    +0.006 C 
ATOM      6  C   UNL     1     150.338 166.679 186.322  0.00  0.00    -0.044 C 
ATOM      7  C   UNL     1     149.393 165.912 185.387  0.00  0.00    -0.026 C 
ATOM      8  C   UNL     1     147.989 165.667 185.958  0.00  0.00    +0.065 C 
ATOM      9  C   UNL     1     147.018 165.249 184.854  0.00  0.00    +0.071 C 
ATOM     10  C   UNL     1     145.588 165.383 185.305  0.00  0.00    +0.310 C 
ATOM     11  O   UNL     1     144.816 164.439 185.422  0.00  0.00    -0.251 OA
ATOM     12  O   UNL     1     145.271 166.694 185.493  0.00  0.00    -0.461 OA
ATOM     13  C   UNL     1     143.899 166.988 185.846  0.00  0.00    +0.110 C 
ATOM     14  C   UNL     1     143.515 168.341 185.172  0.00  0.00    +0.020 C 
ATOM     15  C   UNL     1     144.618 169.452 185.213  0.00  0.00    +0.068 C 
ATOM     16  C   UNL     1     144.770 170.164 186.577  0.00  0.00    -0.008 C 
ATOM     17  C   UNL     1     143.599 171.049 186.948  0.00  0.00    -0.077 C 
ATOM     18  C   UNL     1     143.566 171.969 187.925  0.00  0.00    -0.003 C 
ATOM     19  C   UNL     1     144.624 172.186 188.852  0.00  0.00    +0.220 A 
ATOM     20  N   UNL     1     145.631 171.368 189.125  0.00  0.00    -0.205 NA
ATOM     21  C   UNL     1     146.334 171.977 190.131  0.00  0.00    +0.164 A 
ATOM     22  C   UNL     1     145.754 173.178 190.437  0.00  0.00    +0.125 A 
ATOM     23  O   UNL     1     144.660 173.326 189.643  0.00  0.00    -0.443 OA
ATOM     24  C   UNL     1     147.592 171.400 190.853  0.00  0.00    +0.250 A 
ATOM     25  N   UNL     1     148.126 170.215 190.594  0.00  0.00    -0.203 NA
ATOM     26  C   UNL     1     149.171 170.117 191.481  0.00  0.00    +0.164 A 
ATOM     27  C   UNL     1     149.243 171.254 192.244  0.00  0.00    +0.125 A 
ATOM     28  O   UNL     1     148.242 172.089 191.853  0.00  0.00    -0.442 OA
ATOM     29  C   UNL     1     150.155 168.914 191.643  0.00  0.00    +0.249 A 
ATOM     30  N   UNL     1     150.117 167.795 190.937  0.00  0.00    -0.212 NA
ATOM     31  C   UNL     1     151.167 167.043 191.413  0.00  0.00    +0.083 A 
ATOM     32  C   UNL     1     151.806 167.738 192.412  0.00  0.00    +0.116 A 
ATOM     33  O   UNL     1     151.177 168.932 192.569  0.00  0.00    -0.442 OA
ATOM     34  H   UNL     1     152.151 165.204 191.596  0.00  0.00    +0.037 HD
ATOM     35  H   UNL     1     152.501 164.759 189.176  0.00  0.00    +0.035 HD
ATOM     36  H   UNL     1     153.288 166.192 189.793  0.00  0.00    +0.035 HD
ATOM     37  H   UNL     1     150.680 164.963 187.582  0.00  0.00    +0.034 HD
ATOM     38  H   UNL     1     149.631 166.220 188.304  0.00  0.00    +0.034 HD
ATOM     39  H   UNL     1     149.969 167.706 186.448  0.00  0.00    +0.027 HD
ATOM     40  H   UNL     1     151.311 166.765 185.818  0.00  0.00    +0.027 HD
ATOM     41  H   UNL     1     149.317 166.491 184.458  0.00  0.00    +0.029 HD
ATOM     42  H   UNL     1     149.859 164.951 185.131  0.00  0.00    +0.029 HD
ATOM     43  H   UNL     1     147.636 166.571 186.466  0.00  0.00    +0.060 HD
ATOM     44  H   UNL     1     147.181 164.204 184.562  0.00  0.00    +0.040 HD
ATOM     45  H   UNL     1     147.129 165.864 183.954  0.00  0.00    +0.040 HD
ATOM     46  H   UNL     1     143.257 166.215 185.402  0.00  0.00    +0.074 HD
ATOM     47  H   UNL     1     142.588 168.723 185.616  0.00  0.00    +0.036 HD
ATOM     48  H   UNL     1     145.581 168.995 184.955  0.00  0.00    +0.060 HD
ATOM     49  H   UNL     1     145.665 170.797 186.529  0.00  0.00    +0.033 HD
ATOM     50  H   UNL     1     144.959 169.440 187.366  0.00  0.00    +0.033 HD
ATOM     51  H   UNL     1     142.710 170.954 186.324  0.00  0.00    +0.057 HD
ATOM     52  H   UNL     1     142.682 172.584 188.045  0.00  0.00    +0.067 HD
ATOM     53  H   UNL     1     145.957 173.974 191.139  0.00  0.00    +0.105 HD
ATOM     54  H   UNL     1     149.884 171.601 193.040  0.00  0.00    +0.105 HD
ATOM     55  H   UNL     1     152.658 167.558 193.046  0.00  0.00    +0.105 HD
ENDROOT
BRANCH   1  56
ATOM     56  C   UNL     1     150.261 164.789 190.774  0.00  0.00    -0.056 C 
ATOM     57  H   UNL     1     150.453 163.833 191.276  0.00  0.00    +0.024 HD
ATOM     58  H   UNL     1     149.378 165.219 191.254  0.00  0.00    +0.024 HD
ATOM     59  H   UNL     1     150.010 164.568 189.730  0.00  0.00    +0.024 HD
ENDBRANCH   1  56
BRANCH  14  60
ATOM     60  C   UNL     1     143.167 168.030 183.694  0.00  0.00    -0.057 C 
ATOM     61  H   UNL     1     144.060 167.756 183.121  0.00  0.00    +0.023 HD
ATOM     62  H   UNL     1     142.739 168.907 183.197  0.00  0.00    +0.023 HD
ATOM     63  H   UNL     1     142.445 167.209 183.621  0.00  0.00    +0.023 HD
ENDBRANCH  14  60
BRANCH  13  64
ATOM     64  C   UNL     1     143.745 166.863 187.378  0.00  0.00    +0.011 C 
ATOM     65  H   UNL     1     144.137 165.886 187.677  0.00  0.00    +0.033 HD
ATOM     66  H   UNL     1     144.360 167.598 187.892  0.00  0.00    +0.033 HD
BRANCH  64  67
ATOM     67  C   UNL     1     142.283 166.995 187.845  0.00  0.00    +0.064 C 
ATOM     68  H   UNL     1     141.631 166.950 186.962  0.00  0.00    +0.060 HD
BRANCH  67  69
ATOM     69  C   UNL     1     141.841 165.866 188.822  0.00  0.00    -0.017 C 
ATOM     70  H   UNL     1     140.961 166.221 189.372  0.00  0.00    +0.032 HD
BRANCH  69  71
ATOM     71  C   UNL     1     141.387 164.622 188.044  0.00  0.00    -0.060 C 
ATOM     72  H   UNL     1     142.214 164.205 187.459  0.00  0.00    +0.023 HD
ATOM     73  H   UNL     1     141.008 163.837 188.706  0.00  0.00    +0.023 HD
ATOM     74  H   UNL     1     140.585 164.877 187.342  0.00  0.00    +0.023 HD
ENDBRANCH  69  71
BRANCH  69  75
ATOM     75  C   UNL     1     142.887 165.450 189.882  0.00  0.00    -0.041 C 
ATOM     76  H   UNL     1     143.882 165.829 189.618  0.00  0.00    +0.027 HD
ATOM     77  H   UNL     1     142.974 164.355 189.860  0.00  0.00    +0.027 HD
BRANCH  75  78
ATOM     78  C   UNL     1     142.532 165.883 191.306  0.00  0.00    +0.007 C 
ATOM     79  H   UNL     1     141.533 166.327 191.323  0.00  0.00    +0.034 HD
ATOM     80  H   UNL     1     142.544 165.005 191.959  0.00  0.00    +0.034 HD
BRANCH  78  81
ATOM     81  C   UNL     1     143.507 166.913 191.865  0.00  0.00    +0.140 C 
ATOM     82  O   UNL     1     143.512 167.227 193.060  0.00  0.00    -0.297 OA
BRANCH  81  83
ATOM     83  C   UNL     1     144.532 167.543 190.923  0.00  0.00    +0.052 C 
ATOM     84  H   UNL     1     144.288 167.161 189.924  0.00  0.00    +0.041 HD
BRANCH  83  85
ATOM     85  C   UNL     1     144.331 169.058 190.849  0.00  0.00    -0.052 C 
ATOM     86  H   UNL     1     143.472 169.292 190.212  0.00  0.00    +0.024 HD
ATOM     87  H   UNL     1     144.147 169.504 191.830  0.00  0.00    +0.024 HD
ATOM     88  H   UNL     1     145.209 169.545 190.416  0.00  0.00    +0.024 HD
ENDBRANCH  83  85
BRANCH  83  89
ATOM     89  C   UNL     1     146.002 167.181 191.220  0.00  0.00    +0.118 C 
ATOM     90  H   UNL     1     146.505 168.145 191.384  0.00  0.00    +0.075 HD
BRANCH  89  91
ATOM     91  C   UNL     1     146.797 166.452 190.095  0.00  0.00    +0.014 C 
ATOM     92  H   UNL     1     147.770 166.182 190.534  0.00  0.00    +0.038 HD
BRANCH  91  93
ATOM     93  C   UNL     1     147.126 167.391 188.928  0.00  0.00    -0.056 C 
ATOM     94  H   UNL     1     147.010 166.906 187.954  0.00  0.00    +0.024 HD
ATOM     95  H   UNL     1     148.157 167.756 188.999  0.00  0.00    +0.024 HD
ATOM     96  H   UNL     1     146.470 168.269 188.944  0.00  0.00    +0.024 HD
ENDBRANCH  91  93
BRANCH  91  97
ATOM     97  C   UNL     1     146.200 165.114 189.698  0.00  0.00    -0.064 C 
ATOM     98  C   UNL     1     146.784 163.910 189.762  0.00  0.00    -0.010 C 
ATOM     99  H   UNL     1     145.171 165.169 189.348  0.00  0.00    +0.059 HD
ATOM    100  H   UNL     1     147.819 163.833 190.092  0.00  0.00    +0.078 HD
BRANCH  98 101
ATOM    101  N   UNL     1     146.251 162.675 189.429  0.00  0.00    -0.317 N 
BRANCH 101 102
ATOM    102  C   UNL     1     146.916 161.410 189.734  0.00  0.00    +0.002 C 
ATOM    103  H   UNL     1     146.797 161.158 190.794  0.00  0.00    +0.043 HD
ATOM    104  H   UNL     1     146.509 160.576 189.152  0.00  0.00    +0.043 HD
ATOM    105  H   UNL     1     147.986 161.479 189.504  0.00  0.00    +0.043 HD
ENDBRANCH 101 102
BRANCH 101 106
ATOM    106  C   UNL     1     144.986 162.560 188.723  0.00  0.00    +0.110 C 
ATOM    107  H   UNL     1     145.128 162.577 187.635  0.00  0.00    +0.077 HD
ATOM    108  H   UNL     1     144.288 163.366 188.976  0.00  0.00    +0.077 HD
BRANCH 106 109
ATOM    109  O   UNL     1     144.419 161.324 189.095  0.00  0.00    -0.377 OA
ATOM    110  H   UNL     1     144.578 161.315 190.055  0.00  0.00    +0.211 HD
ENDBRANCH 106 109
ENDBRANCH 101 106
ENDBRANCH  98 101
ENDBRANCH  91  97
ENDBRANCH  89  91
BRANCH  89 111
ATOM    111  O   UNL     1     146.070 166.428 192.454  0.00  0.00    -0.460 OA
BRANCH 111 112
ATOM    112  C   UNL     1     147.115 166.693 193.285  0.00  0.00    +0.304 C 
ATOM    113  O   UNL     1     147.345 167.766 193.825  0.00  0.00    -0.251 OA
BRANCH 112 114
ATOM    114  C   UNL     1     147.966 165.469 193.432  0.00  0.00    +0.033 C 
ATOM    115  H   UNL     1     148.662 165.601 194.264  0.00  0.00    +0.034 HD
ATOM    116  H   UNL     1     148.510 165.283 192.503  0.00  0.00    +0.034 HD
ATOM    117  H   UNL     1     147.329 164.606 193.642  0.00  0.00    +0.034 HD
ENDBRANCH 112 114
ENDBRANCH 111 112
ENDBRANCH  89 111
ENDBRANCH  83  89
ENDBRANCH  81  83
ENDBRANCH  78  81
ENDBRANCH  75  78
ENDBRANCH  69  75
ENDBRANCH  67  69
BRANCH  67 118
ATOM    118  O   UNL     1     142.139 168.279 188.465  0.00  0.00    -0.379 OA
BRANCH 118 119
ATOM    119  C   UNL     1     140.818 168.803 188.376  0.00  0.00    +0.037 C 
ATOM    120  H   UNL     1     140.452 168.976 189.392  0.00  0.00    +0.052 HD
ATOM    121  H   UNL     1     140.825 169.761 187.843  0.00  0.00    +0.052 HD
ATOM    122  H   UNL     1     140.143 168.100 187.881  0.00  0.00    +0.052 HD
ENDBRANCH 118 119
ENDBRANCH  67 118
ENDBRANCH  64  67
ENDBRANCH  13  64
BRANCH   8 123
ATOM    123  O   UNL     1     148.055 164.627 186.937  0.00  0.00    -0.391 OA
ATOM    124  H   UNL     1     148.051 163.768 186.478  0.00  0.00    +0.210 HD
ENDBRANCH   8 123
BRANCH  15 125
ATOM    125  O   UNL     1     144.326 170.435 184.192  0.00  0.00    -0.379 OA
BRANCH 125 126
ATOM    126  C   UNL     1     145.477 171.076 183.655  0.00  0.00    +0.037 C 
ATOM    127  H   UNL     1     146.325 170.384 183.609  0.00  0.00    +0.052 HD
ATOM    128  H   UNL     1     145.242 171.400 182.638  0.00  0.00    +0.052 HD
ATOM    129  H   UNL     1     145.741 171.963 184.236  0.00  0.00    +0.052 HD
ENDBRANCH 125 126
ENDBRANCH  15 125
TORSDOF 27
ENDMDL
MODEL 8
REMARK VINA RESULT:      -5.4      6.559     12.973
REMARK  Name = Ulapualide A_conf2
REMARK  27 active torsions:
REMARK  status: ('A' for Active; 'I' for Inactive)
REMARK    1  A    between atoms: C_1  and  C_2
REMARK    2  A    between atoms: C_9  and  O_63
REMARK    3  A    between atoms: C_14  and  C_38
REMARK    4  A    between atoms: C_15  and  C_37
REMARK    5  A    between atoms: C_16  and  O_35
REMARK    6  A    between atoms: O_35  and  C_36
REMARK    7  A    between atoms: C_38  and  C_39
REMARK    8  A    between atoms: C_39  and  C_40
REMARK    9  A    between atoms: C_39  and  O_61
REMARK   10  A    between atoms: C_40  and  C_41
REMARK   11  A    between atoms: C_40  and  C_42
REMARK   12  A    between atoms: C_42  and  C_43
REMARK   13  A    between atoms: C_43  and  C_44
REMARK   14  A    between atoms: C_44  and  C_46
REMARK   15  A    between atoms: C_46  and  C_47
REMARK   16  A    between atoms: C_46  and  C_48
REMARK   17  A    between atoms: C_48  and  C_49
REMARK   18  A    between atoms: C_48  and  O_57
REMARK   19  A    between atoms: C_49  and  C_50
REMARK   20  A    between atoms: C_49  and  C_51
REMARK   21  A    between atoms: C_52  and  N_53
REMARK   22  A    between atoms: N_53  and  C_54
REMARK   23  A    between atoms: N_53  and  C_55
REMARK   24  A    between atoms: C_55  and  O_56
REMARK   25  A    between atoms: O_57  and  C_58
REMARK   26  A    between atoms: C_58  and  C_60
REMARK   27  A    between atoms: O_61  and  C_62
REMARK                            x       y       z     vdW  Elec       q    Type
REMARK                         _______ _______ _______ _____ _____    ______ ____
ROOT
ATOM      1  C   UNL     1     145.342 178.478 184.383  0.00  0.00    +0.008 C 
ATOM      2  C   UNL     1     144.429 177.710 183.421  0.00  0.00    +0.014 C 
ATOM      3  C   UNL     1     143.430 176.752 184.048  0.00  0.00    +0.134 C 
ATOM      4  O   UNL     1     142.226 177.016 184.045  0.00  0.00    -0.297 OA
ATOM      5  C   UNL     1     143.971 175.451 184.615  0.00  0.00    +0.006 C 
ATOM      6  C   UNL     1     142.893 174.378 184.748  0.00  0.00    -0.044 C 
ATOM      7  C   UNL     1     143.434 172.957 184.960  0.00  0.00    -0.026 C 
ATOM      8  C   UNL     1     144.370 172.803 186.167  0.00  0.00    +0.065 C 
ATOM      9  C   UNL     1     144.555 171.329 186.528  0.00  0.00    +0.071 C 
ATOM     10  C   UNL     1     145.133 171.173 187.909  0.00  0.00    +0.310 C 
ATOM     11  O   UNL     1     146.229 170.678 188.140  0.00  0.00    -0.251 OA
ATOM     12  O   UNL     1     144.240 171.594 188.847  0.00  0.00    -0.461 OA
ATOM     13  C   UNL     1     144.622 171.424 190.233  0.00  0.00    +0.110 C 
ATOM     14  C   UNL     1     143.333 171.086 191.042  0.00  0.00    +0.020 C 
ATOM     15  C   UNL     1     142.055 171.903 190.648  0.00  0.00    +0.068 C 
ATOM     16  C   UNL     1     142.023 173.353 191.183  0.00  0.00    -0.008 C 
ATOM     17  C   UNL     1     141.856 173.456 192.684  0.00  0.00    -0.077 C 
ATOM     18  C   UNL     1     141.541 174.558 193.383  0.00  0.00    -0.003 C 
ATOM     19  C   UNL     1     141.413 175.855 192.812  0.00  0.00    +0.220 A 
ATOM     20  N   UNL     1     141.869 176.261 191.634  0.00  0.00    -0.205 NA
ATOM     21  C   UNL     1     141.573 177.597 191.568  0.00  0.00    +0.164 A 
ATOM     22  C   UNL     1     140.914 177.980 192.704  0.00  0.00    +0.125 A 
ATOM     23  O   UNL     1     140.810 176.891 193.512  0.00  0.00    -0.443 OA
ATOM     24  C   UNL     1     141.944 178.564 190.400  0.00  0.00    +0.250 A 
ATOM     25  N   UNL     1     142.627 178.208 189.321  0.00  0.00    -0.203 NA
ATOM     26  C   UNL     1     142.747 179.371 188.601  0.00  0.00    +0.164 A 
ATOM     27  C   UNL     1     142.121 180.397 189.263  0.00  0.00    +0.125 A 
ATOM     28  O   UNL     1     141.598 179.897 190.416  0.00  0.00    -0.442 OA
ATOM     29  C   UNL     1     143.479 179.558 187.233  0.00  0.00    +0.249 A 
ATOM     30  N   UNL     1     144.104 178.601 186.564  0.00  0.00    -0.212 NA
ATOM     31  C   UNL     1     144.580 179.219 185.430  0.00  0.00    +0.083 A 
ATOM     32  C   UNL     1     144.232 180.549 185.458  0.00  0.00    +0.116 A 
ATOM     33  O   UNL     1     143.529 180.780 186.597  0.00  0.00    -0.442 OA
ATOM     34  H   UNL     1     145.847 179.234 183.764  0.00  0.00    +0.037 HD
ATOM     35  H   UNL     1     145.018 177.158 182.681  0.00  0.00    +0.035 HD
ATOM     36  H   UNL     1     143.838 178.437 182.845  0.00  0.00    +0.035 HD
ATOM     37  H   UNL     1     144.759 175.097 183.940  0.00  0.00    +0.034 HD
ATOM     38  H   UNL     1     144.398 175.663 185.599  0.00  0.00    +0.034 HD
ATOM     39  H   UNL     1     142.226 174.640 185.580  0.00  0.00    +0.027 HD
ATOM     40  H   UNL     1     142.266 174.367 183.846  0.00  0.00    +0.027 HD
ATOM     41  H   UNL     1     142.566 172.296 185.080  0.00  0.00    +0.029 HD
ATOM     42  H   UNL     1     143.956 172.642 184.047  0.00  0.00    +0.029 HD
ATOM     43  H   UNL     1     143.969 173.365 187.018  0.00  0.00    +0.060 HD
ATOM     44  H   UNL     1     145.233 170.834 185.822  0.00  0.00    +0.040 HD
ATOM     45  H   UNL     1     143.606 170.780 186.513  0.00  0.00    +0.040 HD
ATOM     46  H   UNL     1     145.283 170.549 190.301  0.00  0.00    +0.074 HD
ATOM     47  H   UNL     1     143.531 171.203 192.114  0.00  0.00    +0.036 HD
ATOM     48  H   UNL     1     141.990 171.938 189.554  0.00  0.00    +0.060 HD
ATOM     49  H   UNL     1     141.172 173.865 190.716  0.00  0.00    +0.033 HD
ATOM     50  H   UNL     1     142.909 173.896 190.865  0.00  0.00    +0.033 HD
ATOM     51  H   UNL     1     141.958 172.525 193.243  0.00  0.00    +0.057 HD
ATOM     52  H   UNL     1     141.387 174.482 194.453  0.00  0.00    +0.067 HD
ATOM     53  H   UNL     1     140.499 178.904 193.079  0.00  0.00    +0.105 HD
ATOM     54  H   UNL     1     141.971 181.449 189.076  0.00  0.00    +0.105 HD
ATOM     55  H   UNL     1     144.373 181.391 184.801  0.00  0.00    +0.105 HD
ENDROOT
BRANCH   1  56
ATOM     56  C   UNL     1     146.470 177.629 184.971  0.00  0.00    -0.056 C 
ATOM     57  H   UNL     1     146.726 177.980 185.977  0.00  0.00    +0.024 HD
ATOM     58  H   UNL     1     146.203 176.574 185.068  0.00  0.00    +0.024 HD
ATOM     59  H   UNL     1     147.376 177.699 184.357  0.00  0.00    +0.024 HD
ENDBRANCH   1  56
BRANCH  14  60
ATOM     60  C   UNL     1     143.049 169.576 190.837  0.00  0.00    -0.057 C 
ATOM     61  H   UNL     1     142.595 169.383 189.860  0.00  0.00    +0.023 HD
ATOM     62  H   UNL     1     142.343 169.203 191.585  0.00  0.00    +0.023 HD
ATOM     63  H   UNL     1     143.970 168.987 190.912  0.00  0.00    +0.023 HD
ENDBRANCH  14  60
BRANCH  13  64
ATOM     64  C   UNL     1     145.461 172.646 190.667  0.00  0.00    +0.011 C 
ATOM     65  H   UNL     1     145.879 173.105 189.766  0.00  0.00    +0.033 HD
ATOM     66  H   UNL     1     144.833 173.408 191.122  0.00  0.00    +0.033 HD
BRANCH  64  67
ATOM     67  C   UNL     1     146.604 172.275 191.631  0.00  0.00    +0.064 C 
ATOM     68  H   UNL     1     146.187 171.669 192.447  0.00  0.00    +0.060 HD
BRANCH  67  69
ATOM     69  C   UNL     1     147.740 171.452 190.958  0.00  0.00    -0.017 C 
ATOM     70  H   UNL     1     147.616 171.530 189.871  0.00  0.00    +0.032 HD
BRANCH  69  71
ATOM     71  C   UNL     1     149.114 172.063 191.277  0.00  0.00    -0.060 C 
ATOM     72  H   UNL     1     149.301 172.946 190.657  0.00  0.00    +0.023 HD
ATOM     73  H   UNL     1     149.201 172.357 192.327  0.00  0.00    +0.023 HD
ATOM     74  H   UNL     1     149.913 171.342 191.070  0.00  0.00    +0.023 HD
ENDBRANCH  69  71
BRANCH  69  75
ATOM     75  C   UNL     1     147.765 169.943 191.293  0.00  0.00    -0.041 C 
ATOM     76  H   UNL     1     148.015 169.351 190.404  0.00  0.00    +0.027 HD
ATOM     77  H   UNL     1     146.746 169.641 191.572  0.00  0.00    +0.027 HD
BRANCH  75  78
ATOM     78  C   UNL     1     148.712 169.579 192.438  0.00  0.00    +0.007 C 
ATOM     79  H   UNL     1     149.324 170.444 192.706  0.00  0.00    +0.034 HD
ATOM     80  H   UNL     1     148.121 169.276 193.307  0.00  0.00    +0.034 HD
BRANCH  78  81
ATOM     81  C   UNL     1     149.657 168.438 192.076  0.00  0.00    +0.140 C 
ATOM     82  O   UNL     1     150.881 168.596 192.018  0.00  0.00    -0.297 OA
BRANCH  81  83
ATOM     83  C   UNL     1     149.071 167.051 191.818  0.00  0.00    +0.052 C 
ATOM     84  H   UNL     1     148.178 167.218 191.203  0.00  0.00    +0.041 HD
BRANCH  83  85
ATOM     85  C   UNL     1     150.021 166.221 190.952  0.00  0.00    -0.052 C 
ATOM     86  H   UNL     1     150.156 166.700 189.977  0.00  0.00    +0.024 HD
ATOM     87  H   UNL     1     151.010 166.108 191.405  0.00  0.00    +0.024 HD
ATOM     88  H   UNL     1     149.613 165.221 190.778  0.00  0.00    +0.024 HD
ENDBRANCH  83  85
BRANCH  83  89
ATOM     89  C   UNL     1     148.636 166.279 193.081  0.00  0.00    +0.118 C 
ATOM     90  H   UNL     1     148.739 165.217 192.814  0.00  0.00    +0.075 HD
BRANCH  89  91
ATOM     91  C   UNL     1     147.168 166.474 193.565  0.00  0.00    +0.014 C 
ATOM     92  H   UNL     1     147.061 167.546 193.791  0.00  0.00    +0.038 HD
BRANCH  91  93
ATOM     93  C   UNL     1     146.903 165.752 194.892  0.00  0.00    -0.056 C 
ATOM     94  H   UNL     1     147.020 164.667 194.809  0.00  0.00    +0.024 HD
ATOM     95  H   UNL     1     145.886 165.952 195.249  0.00  0.00    +0.024 HD
ATOM     96  H   UNL     1     147.594 166.104 195.666  0.00  0.00    +0.024 HD
ENDBRANCH  91  93
BRANCH  91  97
ATOM     97  C   UNL     1     146.133 166.232 192.481  0.00  0.00    -0.064 C 
ATOM     98  C   UNL     1     144.805 166.372 192.577  0.00  0.00    -0.010 C 
ATOM     99  H   UNL     1     146.552 165.935 191.521  0.00  0.00    +0.059 HD
ATOM    100  H   UNL     1     144.362 166.650 193.533  0.00  0.00    +0.078 HD
BRANCH  98 101
ATOM    101  N   UNL     1     143.844 166.180 191.596  0.00  0.00    -0.317 N 
BRANCH 101 102
ATOM    102  C   UNL     1     144.168 166.041 190.178  0.00  0.00    +0.002 C 
ATOM    103  H   UNL     1     144.831 166.850 189.853  0.00  0.00    +0.043 HD
ATOM    104  H   UNL     1     144.674 165.094 189.959  0.00  0.00    +0.043 HD
ATOM    105  H   UNL     1     143.252 166.068 189.575  0.00  0.00    +0.043 HD
ENDBRANCH 101 102
BRANCH 101 106
ATOM    106  C   UNL     1     142.429 166.126 191.921  0.00  0.00    +0.110 C 
ATOM    107  H   UNL     1     142.053 167.103 192.248  0.00  0.00    +0.077 HD
ATOM    108  H   UNL     1     142.207 165.405 192.716  0.00  0.00    +0.077 HD
BRANCH 106 109
ATOM    109  O   UNL     1     141.752 165.741 190.746  0.00  0.00    -0.377 OA
ATOM    110  H   UNL     1     142.330 166.110 190.055  0.00  0.00    +0.211 HD
ENDBRANCH 106 109
ENDBRANCH 101 106
ENDBRANCH  98 101
ENDBRANCH  91  97
ENDBRANCH  89  91
BRANCH  89 111
ATOM    111  O   UNL     1     149.563 166.559 194.157  0.00  0.00    -0.460 OA
BRANCH 111 112
ATOM    112  C   UNL     1     150.321 165.522 194.608  0.00  0.00    +0.304 C 
ATOM    113  O   UNL     1     150.313 164.383 194.162  0.00  0.00    -0.251 OA
BRANCH 112 114
ATOM    114  C   UNL     1     151.165 165.978 195.758  0.00  0.00    +0.033 C 
ATOM    115  H   UNL     1     150.813 166.950 196.112  0.00  0.00    +0.034 HD
ATOM    116  H   UNL     1     152.211 166.039 195.448  0.00  0.00    +0.034 HD
ATOM    117  H   UNL     1     151.086 165.257 196.576  0.00  0.00    +0.034 HD
ENDBRANCH 112 114
ENDBRANCH 111 112
ENDBRANCH  89 111
ENDBRANCH  83  89
ENDBRANCH  81  83
ENDBRANCH  78  81
ENDBRANCH  75  78
ENDBRANCH  69  75
ENDBRANCH  67  69
BRANCH  67 118
ATOM    118  O   UNL     1     147.123 173.494 192.178  0.00  0.00    -0.379 OA
BRANCH 118 119
ATOM    119  C   UNL     1     146.934 173.607 193.584  0.00  0.00    +0.037 C 
ATOM    120  H   UNL     1     147.093 174.652 193.866  0.00  0.00    +0.052 HD
ATOM    121  H   UNL     1     145.909 173.330 193.853  0.00  0.00    +0.052 HD
ATOM    122  H   UNL     1     147.650 172.989 194.134  0.00  0.00    +0.052 HD
ENDBRANCH 118 119
ENDBRANCH  67 118
ENDBRANCH  64  67
ENDBRANCH  13  64
BRANCH   8 123
ATOM    123  O   UNL     1     145.644 173.367 185.848  0.00  0.00    -0.391 OA
ATOM    124  H   UNL     1     146.270 172.640 185.671  0.00  0.00    +0.210 HD
ENDBRANCH   8 123
BRANCH  15 125
ATOM    125  O   UNL     1     140.886 171.193 191.121  0.00  0.00    -0.379 OA
BRANCH 125 126
ATOM    126  C   UNL     1     139.719 171.407 190.338  0.00  0.00    +0.037 C 
ATOM    127  H   UNL     1     139.960 171.941 189.413  0.00  0.00    +0.052 HD
ATOM    128  H   UNL     1     139.302 170.432 190.073  0.00  0.00    +0.052 HD
ATOM    129  H   UNL     1     138.959 171.953 190.903  0.00  0.00    +0.052 HD
ENDBRANCH 125 126
ENDBRANCH  15 125
TORSDOF 27
ENDMDL
MODEL 9
REMARK VINA RESULT:      -5.4      1.553      2.068
REMARK  Name = Ulapualide A_conf2
REMARK  27 active torsions:
REMARK  status: ('A' for Active; 'I' for Inactive)
REMARK    1  A    between atoms: C_1  and  C_2
REMARK    2  A    between atoms: C_9  and  O_63
REMARK    3  A    between atoms: C_14  and  C_38
REMARK    4  A    between atoms: C_15  and  C_37
REMARK    5  A    between atoms: C_16  and  O_35
REMARK    6  A    between atoms: O_35  and  C_36
REMARK    7  A    between atoms: C_38  and  C_39
REMARK    8  A    between atoms: C_39  and  C_40
REMARK    9  A    between atoms: C_39  and  O_61
REMARK   10  A    between atoms: C_40  and  C_41
REMARK   11  A    between atoms: C_40  and  C_42
REMARK   12  A    between atoms: C_42  and  C_43
REMARK   13  A    between atoms: C_43  and  C_44
REMARK   14  A    between atoms: C_44  and  C_46
REMARK   15  A    between atoms: C_46  and  C_47
REMARK   16  A    between atoms: C_46  and  C_48
REMARK   17  A    between atoms: C_48  and  C_49
REMARK   18  A    between atoms: C_48  and  O_57
REMARK   19  A    between atoms: C_49  and  C_50
REMARK   20  A    between atoms: C_49  and  C_51
REMARK   21  A    between atoms: C_52  and  N_53
REMARK   22  A    between atoms: N_53  and  C_54
REMARK   23  A    between atoms: N_53  and  C_55
REMARK   24  A    between atoms: C_55  and  O_56
REMARK   25  A    between atoms: O_57  and  C_58
REMARK   26  A    between atoms: C_58  and  C_60
REMARK   27  A    between atoms: O_61  and  C_62
REMARK                            x       y       z     vdW  Elec       q    Type
REMARK                         _______ _______ _______ _____ _____    ______ ____
ROOT
ATOM      1  C   UNL     1     145.929 157.721 189.827  0.00  0.00    +0.008 C 
ATOM      2  C   UNL     1     145.306 157.318 188.487  0.00  0.00    +0.014 C 
ATOM      3  C   UNL     1     145.742 158.113 187.267  0.00  0.00    +0.134 C 
ATOM      4  O   UNL     1     146.468 157.598 186.414  0.00  0.00    -0.297 OA
ATOM      5  C   UNL     1     145.201 159.525 187.124  0.00  0.00    +0.006 C 
ATOM      6  C   UNL     1     145.270 160.034 185.686  0.00  0.00    -0.044 C 
ATOM      7  C   UNL     1     144.419 161.282 185.413  0.00  0.00    -0.026 C 
ATOM      8  C   UNL     1     144.726 162.477 186.326  0.00  0.00    +0.065 C 
ATOM      9  C   UNL     1     144.127 163.764 185.758  0.00  0.00    +0.071 C 
ATOM     10  C   UNL     1     144.730 164.981 186.407  0.00  0.00    +0.310 C 
ATOM     11  O   UNL     1     144.098 165.777 187.090  0.00  0.00    -0.251 OA
ATOM     12  O   UNL     1     146.044 165.095 186.068  0.00  0.00    -0.461 OA
ATOM     13  C   UNL     1     146.741 166.270 186.548  0.00  0.00    +0.110 C 
ATOM     14  C   UNL     1     147.767 166.694 185.454  0.00  0.00    +0.020 C 
ATOM     15  C   UNL     1     148.540 165.520 184.763  0.00  0.00    +0.068 C 
ATOM     16  C   UNL     1     149.680 164.908 185.609  0.00  0.00    -0.008 C 
ATOM     17  C   UNL     1     150.868 165.826 185.804  0.00  0.00    -0.077 C 
ATOM     18  C   UNL     1     152.082 165.482 186.261  0.00  0.00    -0.003 C 
ATOM     19  C   UNL     1     152.415 164.184 186.743  0.00  0.00    +0.220 A 
ATOM     20  N   UNL     1     151.575 163.229 187.118  0.00  0.00    -0.205 NA
ATOM     21  C   UNL     1     152.364 162.207 187.575  0.00  0.00    +0.164 A 
ATOM     22  C   UNL     1     153.682 162.549 187.445  0.00  0.00    +0.125 A 
ATOM     23  O   UNL     1     153.737 163.806 186.927  0.00  0.00    -0.443 OA
ATOM     24  C   UNL     1     151.862 160.859 188.181  0.00  0.00    +0.250 A 
ATOM     25  N   UNL     1     150.587 160.545 188.355  0.00  0.00    -0.203 NA
ATOM     26  C   UNL     1     150.623 159.304 188.943  0.00  0.00    +0.164 A 
ATOM     27  C   UNL     1     151.925 158.899 189.096  0.00  0.00    +0.125 A 
ATOM     28  O   UNL     1     152.732 159.881 188.611  0.00  0.00    -0.442 OA
ATOM     29  C   UNL     1     149.401 158.441 189.393  0.00  0.00    +0.249 A 
ATOM     30  N   UNL     1     148.131 158.795 189.275  0.00  0.00    -0.212 NA
ATOM     31  C   UNL     1     147.421 157.733 189.788  0.00  0.00    +0.083 A 
ATOM     32  C   UNL     1     148.298 156.766 190.216  0.00  0.00    +0.116 A 
ATOM     33  O   UNL     1     149.562 157.199 189.970  0.00  0.00    -0.442 OA
ATOM     34  H   UNL     1     145.637 156.929 190.534  0.00  0.00    +0.037 HD
ATOM     35  H   UNL     1     144.212 157.342 188.541  0.00  0.00    +0.035 HD
ATOM     36  H   UNL     1     145.568 156.270 188.281  0.00  0.00    +0.035 HD
ATOM     37  H   UNL     1     144.158 159.516 187.460  0.00  0.00    +0.034 HD
ATOM     38  H   UNL     1     145.791 160.179 187.771  0.00  0.00    +0.034 HD
ATOM     39  H   UNL     1     146.317 160.245 185.429  0.00  0.00    +0.027 HD
ATOM     40  H   UNL     1     144.940 159.245 184.995  0.00  0.00    +0.027 HD
ATOM     41  H   UNL     1     144.587 161.565 184.366  0.00  0.00    +0.029 HD
ATOM     42  H   UNL     1     143.359 161.009 185.507  0.00  0.00    +0.029 HD
ATOM     43  H   UNL     1     145.810 162.575 186.452  0.00  0.00    +0.060 HD
ATOM     44  H   UNL     1     143.042 163.799 185.923  0.00  0.00    +0.040 HD
ATOM     45  H   UNL     1     144.298 163.856 184.679  0.00  0.00    +0.040 HD
ATOM     46  H   UNL     1     146.012 167.087 186.640  0.00  0.00    +0.074 HD
ATOM     47  H   UNL     1     148.481 167.409 185.878  0.00  0.00    +0.036 HD
ATOM     48  H   UNL     1     147.823 164.724 184.526  0.00  0.00    +0.060 HD
ATOM     49  H   UNL     1     150.035 164.006 185.094  0.00  0.00    +0.033 HD
ATOM     50  H   UNL     1     149.302 164.573 186.572  0.00  0.00    +0.033 HD
ATOM     51  H   UNL     1     150.729 166.863 185.495  0.00  0.00    +0.057 HD
ATOM     52  H   UNL     1     152.869 166.227 186.291  0.00  0.00    +0.067 HD
ATOM     53  H   UNL     1     154.626 162.073 187.666  0.00  0.00    +0.105 HD
ATOM     54  H   UNL     1     152.411 158.024 189.499  0.00  0.00    +0.105 HD
ATOM     55  H   UNL     1     148.204 155.789 190.660  0.00  0.00    +0.105 HD
ENDROOT
BRANCH   1  56
ATOM     56  C   UNL     1     145.348 159.008 190.414  0.00  0.00    -0.056 C 
ATOM     57  H   UNL     1     146.124 159.781 190.478  0.00  0.00    +0.024 HD
ATOM     58  H   UNL     1     144.542 159.428 189.807  0.00  0.00    +0.024 HD
ATOM     59  H   UNL     1     144.964 158.842 191.427  0.00  0.00    +0.024 HD
ENDBRANCH   1  56
BRANCH  14  60
ATOM     60  C   UNL     1     146.982 167.484 184.376  0.00  0.00    -0.057 C 
ATOM     61  H   UNL     1     147.623 167.753 183.530  0.00  0.00    +0.023 HD
ATOM     62  H   UNL     1     146.595 168.425 184.781  0.00  0.00    +0.023 HD
ATOM     63  H   UNL     1     146.135 166.901 183.996  0.00  0.00    +0.023 HD
ENDBRANCH  14  60
BRANCH  13  64
ATOM     64  C   UNL     1     147.264 165.985 187.973  0.00  0.00    +0.011 C 
ATOM     65  H   UNL     1     146.820 165.044 188.314  0.00  0.00    +0.033 HD
ATOM     66  H   UNL     1     148.339 165.818 187.967  0.00  0.00    +0.033 HD
BRANCH  64  67
ATOM     67  C   UNL     1     146.921 167.106 188.973  0.00  0.00    +0.064 C 
ATOM     68  H   UNL     1     146.402 167.907 188.430  0.00  0.00    +0.060 HD
BRANCH  67  69
ATOM     69  C   UNL     1     145.996 166.639 190.134  0.00  0.00    -0.017 C 
ATOM     70  H   UNL     1     144.974 166.962 189.903  0.00  0.00    +0.032 HD
BRANCH  69  71
ATOM     71  C   UNL     1     145.955 165.105 190.212  0.00  0.00    -0.060 C 
ATOM     72  H   UNL     1     146.531 164.658 189.394  0.00  0.00    +0.023 HD
ATOM     73  H   UNL     1     146.357 164.728 191.158  0.00  0.00    +0.023 HD
ATOM     74  H   UNL     1     144.925 164.743 190.123  0.00  0.00    +0.023 HD
ENDBRANCH  69  71
BRANCH  69  75
ATOM     75  C   UNL     1     146.335 167.209 191.531  0.00  0.00    -0.041 C 
ATOM     76  H   UNL     1     145.530 167.862 191.891  0.00  0.00    +0.027 HD
ATOM     77  H   UNL     1     147.216 167.857 191.429  0.00  0.00    +0.027 HD
BRANCH  75  78
ATOM     78  C   UNL     1     146.637 166.137 192.581  0.00  0.00    +0.007 C 
ATOM     79  H   UNL     1     145.729 165.897 193.141  0.00  0.00    +0.034 HD
ATOM     80  H   UNL     1     146.995 165.236 192.076  0.00  0.00    +0.034 HD
BRANCH  78  81
ATOM     81  C   UNL     1     147.695 166.582 193.584  0.00  0.00    +0.140 C 
ATOM     82  O   UNL     1     147.482 167.482 194.403  0.00  0.00    -0.297 OA
BRANCH  81  83
ATOM     83  C   UNL     1     149.043 165.863 193.600  0.00  0.00    +0.052 C 
ATOM     84  H   UNL     1     149.003 165.180 194.457  0.00  0.00    +0.041 HD
BRANCH  83  85
ATOM     85  C   UNL     1     149.188 164.970 192.365  0.00  0.00    -0.052 C 
ATOM     86  H   UNL     1     150.246 164.802 192.145  0.00  0.00    +0.024 HD
ATOM     87  H   UNL     1     148.717 163.992 192.499  0.00  0.00    +0.024 HD
ATOM     88  H   UNL     1     148.737 165.444 191.489  0.00  0.00    +0.024 HD
ENDBRANCH  83  85
BRANCH  83  89
ATOM     89  C   UNL     1     150.272 166.779 193.783  0.00  0.00    +0.118 C 
ATOM     90  H   UNL     1     149.906 167.628 194.378  0.00  0.00    +0.075 HD
BRANCH  89  91
ATOM     91  C   UNL     1     150.910 167.381 192.496  0.00  0.00    +0.014 C 
ATOM     92  H   UNL     1     150.448 166.851 191.649  0.00  0.00    +0.038 HD
BRANCH  91  93
ATOM     93  C   UNL     1     152.408 167.067 192.400  0.00  0.00    -0.056 C 
ATOM     94  H   UNL     1     152.709 166.252 193.066  0.00  0.00    +0.024 HD
ATOM     95  H   UNL     1     153.008 167.948 192.659  0.00  0.00    +0.024 HD
ATOM     96  H   UNL     1     152.677 166.781 191.378  0.00  0.00    +0.024 HD
ENDBRANCH  91  93
BRANCH  91  97
ATOM     97  C   UNL     1     150.538 168.833 192.255  0.00  0.00    -0.064 C 
ATOM     98  C   UNL     1     149.312 169.341 192.076  0.00  0.00    -0.010 C 
ATOM     99  H   UNL     1     151.384 169.518 192.258  0.00  0.00    +0.059 HD
ATOM    100  H   UNL     1     148.452 168.672 192.051  0.00  0.00    +0.078 HD
BRANCH  98 101
ATOM    101  N   UNL     1     148.946 170.664 191.880  0.00  0.00    -0.317 N 
BRANCH 101 102
ATOM    102  C   UNL     1     149.695 171.789 192.432  0.00  0.00    +0.002 C 
ATOM    103  H   UNL     1     149.587 171.827 193.522  0.00  0.00    +0.043 HD
ATOM    104  H   UNL     1     150.767 171.724 192.213  0.00  0.00    +0.043 HD
ATOM    105  H   UNL     1     149.332 172.733 192.006  0.00  0.00    +0.043 HD
ENDBRANCH 101 102
BRANCH 101 106
ATOM    106  C   UNL     1     147.762 171.017 191.115  0.00  0.00    +0.110 C 
ATOM    107  H   UNL     1     147.712 172.095 190.923  0.00  0.00    +0.077 HD
ATOM    108  H   UNL     1     146.833 170.729 191.620  0.00  0.00    +0.077 HD
BRANCH 106 109
ATOM    109  O   UNL     1     147.849 170.333 189.885  0.00  0.00    -0.377 OA
ATOM    110  H   UNL     1     147.062 170.666 189.418  0.00  0.00    +0.211 HD
ENDBRANCH 106 109
ENDBRANCH 101 106
ENDBRANCH  98 101
ENDBRANCH  91  97
ENDBRANCH  89  91
BRANCH  89 111
ATOM    111  O   UNL     1     151.273 166.085 194.565  0.00  0.00    -0.460 OA
BRANCH 111 112
ATOM    112  C   UNL     1     150.939 165.748 195.841  0.00  0.00    +0.304 C 
ATOM    113  O   UNL     1     150.492 166.508 196.689  0.00  0.00    -0.251 OA
BRANCH 112 114
ATOM    114  C   UNL     1     151.218 164.293 196.067  0.00  0.00    +0.033 C 
ATOM    115  H   UNL     1     150.674 163.946 196.948  0.00  0.00    +0.034 HD
ATOM    116  H   UNL     1     152.291 164.138 196.193  0.00  0.00    +0.034 HD
ATOM    117  H   UNL     1     150.883 163.719 195.199  0.00  0.00    +0.034 HD
ENDBRANCH 112 114
ENDBRANCH 111 112
ENDBRANCH  89 111
ENDBRANCH  83  89
ENDBRANCH  81  83
ENDBRANCH  78  81
ENDBRANCH  75  78
ENDBRANCH  69  75
ENDBRANCH  67  69
BRANCH  67 118
ATOM    118  O   UNL     1     148.155 167.620 189.489  0.00  0.00    -0.379 OA
BRANCH 118 119
ATOM    119  C   UNL     1     149.290 166.850 189.108  0.00  0.00    +0.037 C 
ATOM    120  H   UNL     1     149.546 167.110 188.076  0.00  0.00    +0.052 HD
ATOM    121  H   UNL     1     150.146 167.093 189.747  0.00  0.00    +0.052 HD
ATOM    122  H   UNL     1     149.077 165.778 189.150  0.00  0.00    +0.052 HD
ENDBRANCH 118 119
ENDBRANCH  67 118
ENDBRANCH  64  67
ENDBRANCH  13  64
BRANCH   8 123
ATOM    123  O   UNL     1     144.167 162.236 187.619  0.00  0.00    -0.391 OA
ATOM    124  H   UNL     1     143.539 162.952 187.825  0.00  0.00    +0.210 HD
ENDBRANCH   8 123
BRANCH  15 125
ATOM    125  O   UNL     1     149.079 165.995 183.506  0.00  0.00    -0.379 OA
BRANCH 125 126
ATOM    126  C   UNL     1     149.203 164.988 182.510  0.00  0.00    +0.037 C 
ATOM    127  H   UNL     1     150.128 164.417 182.642  0.00  0.00    +0.052 HD
ATOM    128  H   UNL     1     148.358 164.302 182.612  0.00  0.00    +0.052 HD
ATOM    129  H   UNL     1     149.164 165.420 181.506  0.00  0.00    +0.052 HD
ENDBRANCH 125 126
ENDBRANCH  15 125
TORSDOF 27
ENDMDL
MODEL 10
REMARK VINA RESULT:      -5.4      3.043      7.488
REMARK  Name = Ulapualide A_conf2
REMARK  27 active torsions:
REMARK  status: ('A' for Active; 'I' for Inactive)
REMARK    1  A    between atoms: C_1  and  C_2
REMARK    2  A    between atoms: C_9  and  O_63
REMARK    3  A    between atoms: C_14  and  C_38
REMARK    4  A    between atoms: C_15  and  C_37
REMARK    5  A    between atoms: C_16  and  O_35
REMARK    6  A    between atoms: O_35  and  C_36
REMARK    7  A    between atoms: C_38  and  C_39
REMARK    8  A    between atoms: C_39  and  C_40
REMARK    9  A    between atoms: C_39  and  O_61
REMARK   10  A    between atoms: C_40  and  C_41
REMARK   11  A    between atoms: C_40  and  C_42
REMARK   12  A    between atoms: C_42  and  C_43
REMARK   13  A    between atoms: C_43  and  C_44
REMARK   14  A    between atoms: C_44  and  C_46
REMARK   15  A    between atoms: C_46  and  C_47
REMARK   16  A    between atoms: C_46  and  C_48
REMARK   17  A    between atoms: C_48  and  C_49
REMARK   18  A    between atoms: C_48  and  O_57
REMARK   19  A    between atoms: C_49  and  C_50
REMARK   20  A    between atoms: C_49  and  C_51
REMARK   21  A    between atoms: C_52  and  N_53
REMARK   22  A    between atoms: N_53  and  C_54
REMARK   23  A    between atoms: N_53  and  C_55
REMARK   24  A    between atoms: C_55  and  O_56
REMARK   25  A    between atoms: O_57  and  C_58
REMARK   26  A    between atoms: C_58  and  C_60
REMARK   27  A    between atoms: O_61  and  C_62
REMARK                            x       y       z     vdW  Elec       q    Type
REMARK                         _______ _______ _______ _____ _____    ______ ____
ROOT
ATOM      1  C   UNL     1     142.905 165.987 186.518  0.00  0.00    +0.008 C 
ATOM      2  C   UNL     1     142.890 164.508 186.122  0.00  0.00    +0.014 C 
ATOM      3  C   UNL     1     143.923 163.613 186.786  0.00  0.00    +0.134 C 
ATOM      4  O   UNL     1     143.579 162.783 187.630  0.00  0.00    -0.297 OA
ATOM      5  C   UNL     1     145.364 163.749 186.326  0.00  0.00    +0.006 C 
ATOM      6  C   UNL     1     146.202 162.517 186.657  0.00  0.00    -0.044 C 
ATOM      7  C   UNL     1     147.540 162.439 185.908  0.00  0.00    -0.026 C 
ATOM      8  C   UNL     1     148.449 163.661 186.093  0.00  0.00    +0.065 C 
ATOM      9  C   UNL     1     149.877 163.351 185.644  0.00  0.00    +0.071 C 
ATOM     10  C   UNL     1     150.849 164.374 186.167  0.00  0.00    +0.310 C 
ATOM     11  O   UNL     1     151.500 165.128 185.454  0.00  0.00    -0.251 OA
ATOM     12  O   UNL     1     150.943 164.287 187.523  0.00  0.00    -0.461 OA
ATOM     13  C   UNL     1     151.909 165.153 188.166  0.00  0.00    +0.110 C 
ATOM     14  C   UNL     1     152.510 164.377 189.378  0.00  0.00    +0.020 C 
ATOM     15  C   UNL     1     151.485 163.542 190.218  0.00  0.00    +0.068 C 
ATOM     16  C   UNL     1     150.601 164.374 191.176  0.00  0.00    -0.008 C 
ATOM     17  C   UNL     1     151.352 164.980 192.343  0.00  0.00    -0.077 C 
ATOM     18  C   UNL     1     150.816 165.521 193.448  0.00  0.00    -0.003 C 
ATOM     19  C   UNL     1     149.418 165.704 193.649  0.00  0.00    +0.220 A 
ATOM     20  N   UNL     1     148.466 165.687 192.726  0.00  0.00    -0.205 NA
ATOM     21  C   UNL     1     147.307 165.989 193.390  0.00  0.00    +0.164 A 
ATOM     22  C   UNL     1     147.571 166.160 194.722  0.00  0.00    +0.125 A 
ATOM     23  O   UNL     1     148.908 165.993 194.907  0.00  0.00    -0.443 OA
ATOM     24  C   UNL     1     145.893 166.147 192.747  0.00  0.00    +0.250 A 
ATOM     25  N   UNL     1     145.644 166.033 191.451  0.00  0.00    -0.203 NA
ATOM     26  C   UNL     1     144.298 166.285 191.345  0.00  0.00    +0.164 A 
ATOM     27  C   UNL     1     143.770 166.533 192.587  0.00  0.00    +0.125 A 
ATOM     28  O   UNL     1     144.777 166.446 193.498  0.00  0.00    -0.442 OA
ATOM     29  C   UNL     1     143.445 166.303 190.035  0.00  0.00    +0.249 A 
ATOM     30  N   UNL     1     143.913 166.079 188.817  0.00  0.00    -0.212 NA
ATOM     31  C   UNL     1     142.814 166.188 187.994  0.00  0.00    +0.083 A 
ATOM     32  C   UNL     1     141.708 166.490 188.753  0.00  0.00    +0.116 A 
ATOM     33  O   UNL     1     142.092 166.564 190.053  0.00  0.00    -0.442 OA
ATOM     34  H   UNL     1     141.989 166.415 186.084  0.00  0.00    +0.037 HD
ATOM     35  H   UNL     1     142.982 164.393 185.036  0.00  0.00    +0.035 HD
ATOM     36  H   UNL     1     141.907 164.087 186.380  0.00  0.00    +0.035 HD
ATOM     37  H   UNL     1     145.352 163.904 185.241  0.00  0.00    +0.034 HD
ATOM     38  H   UNL     1     145.794 164.626 186.818  0.00  0.00    +0.034 HD
ATOM     39  H   UNL     1     146.391 162.490 187.739  0.00  0.00    +0.027 HD
ATOM     40  H   UNL     1     145.633 161.606 186.424  0.00  0.00    +0.027 HD
ATOM     41  H   UNL     1     148.057 161.538 186.262  0.00  0.00    +0.029 HD
ATOM     42  H   UNL     1     147.333 162.292 184.839  0.00  0.00    +0.029 HD
ATOM     43  H   UNL     1     148.431 163.978 187.142  0.00  0.00    +0.060 HD
ATOM     44  H   UNL     1     149.952 163.347 184.549  0.00  0.00    +0.040 HD
ATOM     45  H   UNL     1     150.217 162.372 186.001  0.00  0.00    +0.040 HD
ATOM     46  H   UNL     1     152.732 165.332 187.460  0.00  0.00    +0.074 HD
ATOM     47  H   UNL     1     153.043 165.076 190.033  0.00  0.00    +0.036 HD
ATOM     48  H   UNL     1     150.828 163.001 189.527  0.00  0.00    +0.060 HD
ATOM     49  H   UNL     1     149.828 163.711 191.583  0.00  0.00    +0.033 HD
ATOM     50  H   UNL     1     150.070 165.149 190.627  0.00  0.00    +0.033 HD
ATOM     51  H   UNL     1     152.439 164.926 192.293  0.00  0.00    +0.057 HD
ATOM     52  H   UNL     1     151.469 165.862 194.242  0.00  0.00    +0.067 HD
ATOM     53  H   UNL     1     146.985 166.399 195.598  0.00  0.00    +0.105 HD
ATOM     54  H   UNL     1     142.790 166.773 192.967  0.00  0.00    +0.105 HD
ATOM     55  H   UNL     1     140.662 166.651 188.551  0.00  0.00    +0.105 HD
ENDROOT
BRANCH   1  56
ATOM     56  C   UNL     1     144.050 166.782 185.889  0.00  0.00    -0.056 C 
ATOM     57  H   UNL     1     144.320 166.354 184.916  0.00  0.00    +0.024 HD
ATOM     58  H   UNL     1     143.795 167.829 185.708  0.00  0.00    +0.024 HD
ATOM     59  H   UNL     1     144.945 166.751 186.523  0.00  0.00    +0.024 HD
ENDBRANCH   1  56
BRANCH  14  60
ATOM     60  C   UNL     1     153.596 163.425 188.817  0.00  0.00    -0.057 C 
ATOM     61  H   UNL     1     153.243 162.894 187.926  0.00  0.00    +0.023 HD
ATOM     62  H   UNL     1     153.863 162.656 189.549  0.00  0.00    +0.023 HD
ATOM     63  H   UNL     1     154.507 163.975 188.552  0.00  0.00    +0.023 HD
ENDBRANCH  14  60
BRANCH  13  64
ATOM     64  C   UNL     1     151.247 166.523 188.427  0.00  0.00    +0.011 C 
ATOM     65  H   UNL     1     151.759 166.988 189.275  0.00  0.00    +0.033 HD
ATOM     66  H   UNL     1     151.399 167.196 187.587  0.00  0.00    +0.033 HD
BRANCH  64  67
ATOM     67  C   UNL     1     149.742 166.411 188.735  0.00  0.00    +0.064 C 
ATOM     68  H   UNL     1     149.504 165.356 188.928  0.00  0.00    +0.060 HD
BRANCH  67  69
ATOM     69  C   UNL     1     149.301 167.235 189.980  0.00  0.00    -0.017 C 
ATOM     70  H   UNL     1     149.024 166.529 190.772  0.00  0.00    +0.032 HD
BRANCH  69  71
ATOM     71  C   UNL     1     150.476 168.058 190.530  0.00  0.00    -0.060 C 
ATOM     72  H   UNL     1     150.139 169.048 190.855  0.00  0.00    +0.023 HD
ATOM     73  H   UNL     1     150.962 167.567 191.379  0.00  0.00    +0.023 HD
ATOM     74  H   UNL     1     151.237 168.208 189.755  0.00  0.00    +0.023 HD
ENDBRANCH  69  71
BRANCH  69  75
ATOM     75  C   UNL     1     148.083 168.165 189.772  0.00  0.00    -0.041 C 
ATOM     76  H   UNL     1     147.150 167.588 189.757  0.00  0.00    +0.027 HD
ATOM     77  H   UNL     1     148.167 168.614 188.773  0.00  0.00    +0.027 HD
BRANCH  75  78
ATOM     78  C   UNL     1     147.978 169.288 190.805  0.00  0.00    +0.007 C 
ATOM     79  H   UNL     1     148.064 168.876 191.814  0.00  0.00    +0.034 HD
ATOM     80  H   UNL     1     148.790 170.002 190.640  0.00  0.00    +0.034 HD
BRANCH  78  81
ATOM     81  C   UNL     1     146.653 170.038 190.722  0.00  0.00    +0.140 C 
ATOM     82  O   UNL     1     145.570 169.474 190.913  0.00  0.00    -0.297 OA
BRANCH  81  83
ATOM     83  C   UNL     1     146.672 171.538 190.435  0.00  0.00    +0.052 C 
ATOM     84  H   UNL     1     147.731 171.805 190.332  0.00  0.00    +0.041 HD
BRANCH  83  85
ATOM     85  C   UNL     1     146.037 171.831 189.074  0.00  0.00    -0.052 C 
ATOM     86  H   UNL     1     146.813 172.080 188.343  0.00  0.00    +0.024 HD
ATOM     87  H   UNL     1     145.474 170.979 188.683  0.00  0.00    +0.024 HD
ATOM     88  H   UNL     1     145.356 172.684 189.140  0.00  0.00    +0.024 HD
ENDBRANCH  83  85
BRANCH  83  89
ATOM     89  C   UNL     1     146.069 172.425 191.544  0.00  0.00    +0.118 C 
ATOM     90  H   UNL     1     145.916 171.748 192.398  0.00  0.00    +0.075 HD
BRANCH  89  91
ATOM     91  C   UNL     1     144.690 173.089 191.253  0.00  0.00    +0.014 C 
ATOM     92  H   UNL     1     144.741 173.459 190.217  0.00  0.00    +0.038 HD
BRANCH  91  93
ATOM     93  C   UNL     1     144.463 174.337 192.117  0.00  0.00    -0.056 C 
ATOM     94  H   UNL     1     144.019 175.162 191.552  0.00  0.00    +0.024 HD
ATOM     95  H   UNL     1     145.408 174.693 192.542  0.00  0.00    +0.024 HD
ATOM     96  H   UNL     1     143.796 174.108 192.955  0.00  0.00    +0.024 HD
ENDBRANCH  91  93
BRANCH  91  97
ATOM     97  C   UNL     1     143.534 172.105 191.226  0.00  0.00    -0.064 C 
ATOM     98  C   UNL     1     142.387 172.214 190.545  0.00  0.00    -0.010 C 
ATOM     99  H   UNL     1     143.698 171.207 191.819  0.00  0.00    +0.059 HD
ATOM    100  H   UNL     1     142.193 173.114 189.960  0.00  0.00    +0.078 HD
BRANCH  98 101
ATOM    101  N   UNL     1     141.330 171.319 190.486  0.00  0.00    -0.317 N 
BRANCH 101 102
ATOM    102  C   UNL     1     139.989 171.635 190.971  0.00  0.00    +0.002 C 
ATOM    103  H   UNL     1     139.834 172.719 190.999  0.00  0.00    +0.043 HD
ATOM    104  H   UNL     1     139.205 171.209 190.333  0.00  0.00    +0.043 HD
ATOM    105  H   UNL     1     139.844 171.230 191.980  0.00  0.00    +0.043 HD
ENDBRANCH 101 102
BRANCH 101 106
ATOM    106  C   UNL     1     141.500 169.981 189.948  0.00  0.00    +0.110 C 
ATOM    107  H   UNL     1     142.533 169.629 190.059  0.00  0.00    +0.077 HD
ATOM    108  H   UNL     1     141.244 169.918 188.885  0.00  0.00    +0.077 HD
BRANCH 106 109
ATOM    109  O   UNL     1     140.644 169.132 190.679  0.00  0.00    -0.377 OA
ATOM    110  H   UNL     1     139.766 169.437 190.386  0.00  0.00    +0.211 HD
ENDBRANCH 106 109
ENDBRANCH 101 106
ENDBRANCH  98 101
ENDBRANCH  91  97
ENDBRANCH  89  91
BRANCH  89 111
ATOM    111  O   UNL     1     147.038 173.426 191.937  0.00  0.00    -0.460 OA
BRANCH 111 112
ATOM    112  C   UNL     1     147.602 173.292 193.169  0.00  0.00    +0.304 C 
ATOM    113  O   UNL     1     147.169 173.766 194.210  0.00  0.00    -0.251 OA
BRANCH 112 114
ATOM    114  C   UNL     1     148.859 172.484 193.063  0.00  0.00    +0.033 C 
ATOM    115  H   UNL     1     149.362 172.454 194.032  0.00  0.00    +0.034 HD
ATOM    116  H   UNL     1     149.514 172.917 192.304  0.00  0.00    +0.034 HD
ATOM    117  H   UNL     1     148.610 171.462 192.765  0.00  0.00    +0.034 HD
ENDBRANCH 112 114
ENDBRANCH 111 112
ENDBRANCH  89 111
ENDBRANCH  83  89
ENDBRANCH  81  83
ENDBRANCH  78  81
ENDBRANCH  75  78
ENDBRANCH  69  75
ENDBRANCH  67  69
BRANCH  67 118
ATOM    118  O   UNL     1     149.027 166.842 187.570  0.00  0.00    -0.379 OA
BRANCH 118 119
ATOM    119  C   UNL     1     149.786 167.707 186.731  0.00  0.00    +0.037 C 
ATOM    120  H   UNL     1     150.005 168.620 187.293  0.00  0.00    +0.052 HD
ATOM    121  H   UNL     1     150.735 167.234 186.457  0.00  0.00    +0.052 HD
ATOM    122  H   UNL     1     149.227 167.982 185.832  0.00  0.00    +0.052 HD
ENDBRANCH 118 119
ENDBRANCH  67 118
ENDBRANCH  64  67
ENDBRANCH  13  64
BRANCH   8 123
ATOM    123  O   UNL     1     147.942 164.747 185.313  0.00  0.00    -0.391 OA
ATOM    124  H   UNL     1     148.608 164.986 184.644  0.00  0.00    +0.210 HD
ENDBRANCH   8 123
BRANCH  15 125
ATOM    125  O   UNL     1     152.210 162.548 190.981  0.00  0.00    -0.379 OA
BRANCH 125 126
ATOM    126  C   UNL     1     151.759 161.215 190.777  0.00  0.00    +0.037 C 
ATOM    127  H   UNL     1     152.466 160.493 191.198  0.00  0.00    +0.052 HD
ATOM    128  H   UNL     1     150.801 161.098 191.290  0.00  0.00    +0.052 HD
ATOM    129  H   UNL     1     151.596 161.013 189.715  0.00  0.00    +0.052 HD
ENDBRANCH 125 126
ENDBRANCH  15 125
TORSDOF 27
ENDMDL
