MODEL 1
REMARK VINA RESULT:      -5.9      0.000      0.000
REMARK  Name = Ulapualide A_conf3
REMARK  27 active torsions:
REMARK  status: ('A' for Active; 'I' for Inactive)
REMARK    1  A    between atoms: C_1  and  C_2
REMARK    2  A    between atoms: C_9  and  O_63
REMARK    3  A    between atoms: C_14  and  C_38
REMARK    4  A    between atoms: C_15  and  C_37
REMARK    5  A    between atoms: C_16  and  O_35
REMARK    6  A    between atoms: O_35  and  C_36
REMARK    7  A    between atoms: C_38  and  C_39
REMARK    8  A    between atoms: C_39  and  C_40
REMARK    9  A    between atoms: C_39  and  O_61
REMARK   10  A    between atoms: C_40  and  C_41
REMARK   11  A    between atoms: C_40  and  C_42
REMARK   12  A    between atoms: C_42  and  C_43
REMARK   13  A    between atoms: C_43  and  C_44
REMARK   14  A    between atoms: C_44  and  C_46
REMARK   15  A    between atoms: C_46  and  C_47
REMARK   16  A    between atoms: C_46  and  C_48
REMARK   17  A    between atoms: C_48  and  C_49
REMARK   18  A    between atoms: C_48  and  O_57
REMARK   19  A    between atoms: C_49  and  C_50
REMARK   20  A    between atoms: C_49  and  C_51
REMARK   21  A    between atoms: C_52  and  N_53
REMARK   22  A    between atoms: N_53  and  C_54
REMARK   23  A    between atoms: N_53  and  C_55
REMARK   24  A    between atoms: C_55  and  O_56
REMARK   25  A    between atoms: O_57  and  C_58
REMARK   26  A    between atoms: C_58  and  C_60
REMARK   27  A    between atoms: O_61  and  C_62
REMARK                            x       y       z     vdW  Elec       q    Type
REMARK                         _______ _______ _______ _____ _____    ______ ____
ROOT
ATOM      1  C   UNL     1     143.840 172.401 190.043  0.00  0.00    +0.008 C 
ATOM      2  C   UNL     1     143.914 172.834 188.574  0.00  0.00    +0.014 C 
ATOM      3  C   UNL     1     144.758 171.907 187.712  0.00  0.00    +0.134 C 
ATOM      4  O   UNL     1     145.714 172.346 187.070  0.00  0.00    -0.297 OA
ATOM      5  C   UNL     1     144.312 170.457 187.630  0.00  0.00    +0.006 C 
ATOM      6  C   UNL     1     145.005 169.668 186.519  0.00  0.00    -0.044 C 
ATOM      7  C   UNL     1     144.339 168.303 186.338  0.00  0.00    -0.026 C 
ATOM      8  C   UNL     1     144.956 167.454 185.226  0.00  0.00    +0.065 C 
ATOM      9  C   UNL     1     146.418 167.069 185.424  0.00  0.00    +0.071 C 
ATOM     10  C   UNL     1     146.631 166.266 186.681  0.00  0.00    +0.310 C 
ATOM     11  O   UNL     1     146.765 166.752 187.795  0.00  0.00    -0.251 OA
ATOM     12  O   UNL     1     146.627 164.938 186.387  0.00  0.00    -0.461 OA
ATOM     13  C   UNL     1     146.939 164.010 187.451  0.00  0.00    +0.110 C 
ATOM     14  C   UNL     1     148.344 163.394 187.162  0.00  0.00    +0.020 C 
ATOM     15  C   UNL     1     149.525 164.419 187.202  0.00  0.00    +0.068 C 
ATOM     16  C   UNL     1     149.725 165.118 188.579  0.00  0.00    -0.008 C 
ATOM     17  C   UNL     1     150.875 164.517 189.353  0.00  0.00    -0.077 C 
ATOM     18  C   UNL     1     151.632 165.082 190.311  0.00  0.00    -0.003 C 
ATOM     19  C   UNL     1     151.471 166.388 190.850  0.00  0.00    +0.220 A 
ATOM     20  N   UNL     1     150.438 167.215 190.741  0.00  0.00    -0.205 NA
ATOM     21  C   UNL     1     150.785 168.332 191.465  0.00  0.00    +0.164 A 
ATOM     22  C   UNL     1     152.031 168.157 192.004  0.00  0.00    +0.125 A 
ATOM     23  O   UNL     1     152.479 166.933 191.634  0.00  0.00    -0.443 OA
ATOM     24  C   UNL     1     149.945 169.632 191.684  0.00  0.00    +0.250 A 
ATOM     25  N   UNL     1     148.723 169.847 191.228  0.00  0.00    -0.203 NA
ATOM     26  C   UNL     1     148.427 171.128 191.641  0.00  0.00    +0.164 A 
ATOM     27  C   UNL     1     149.481 171.641 192.351  0.00  0.00    +0.125 A 
ATOM     28  O   UNL     1     150.455 170.697 192.401  0.00  0.00    -0.442 OA
ATOM     29  C   UNL     1     147.115 171.934 191.372  0.00  0.00    +0.249 A 
ATOM     30  N   UNL     1     146.053 171.473 190.733  0.00  0.00    -0.212 NA
ATOM     31  C   UNL     1     145.169 172.530 190.715  0.00  0.00    +0.083 A 
ATOM     32  C   UNL     1     145.737 173.605 191.357  0.00  0.00    +0.116 A 
ATOM     33  O   UNL     1     146.968 173.239 191.793  0.00  0.00    -0.442 OA
ATOM     34  H   UNL     1     143.543 171.346 190.099  0.00  0.00    +0.037 HD
ATOM     35  H   UNL     1     144.326 173.847 188.488  0.00  0.00    +0.035 HD
ATOM     36  H   UNL     1     142.914 172.859 188.124  0.00  0.00    +0.035 HD
ATOM     37  H   UNL     1     143.232 170.466 187.450  0.00  0.00    +0.034 HD
ATOM     38  H   UNL     1     144.505 169.974 188.593  0.00  0.00    +0.034 HD
ATOM     39  H   UNL     1     146.065 169.556 186.769  0.00  0.00    +0.027 HD
ATOM     40  H   UNL     1     144.957 170.227 185.575  0.00  0.00    +0.027 HD
ATOM     41  H   UNL     1     143.277 168.454 186.102  0.00  0.00    +0.029 HD
ATOM     42  H   UNL     1     144.342 167.749 187.287  0.00  0.00    +0.029 HD
ATOM     43  H   UNL     1     144.870 168.008 184.282  0.00  0.00    +0.060 HD
ATOM     44  H   UNL     1     146.767 166.471 184.574  0.00  0.00    +0.040 HD
ATOM     45  H   UNL     1     147.070 167.947 185.465  0.00  0.00    +0.040 HD
ATOM     46  H   UNL     1     146.953 164.499 188.426  0.00  0.00    +0.074 HD
ATOM     47  H   UNL     1     148.312 163.020 186.128  0.00  0.00    +0.036 HD
ATOM     48  H   UNL     1     150.429 163.848 186.947  0.00  0.00    +0.060 HD
ATOM     49  H   UNL     1     149.888 166.190 188.433  0.00  0.00    +0.033 HD
ATOM     50  H   UNL     1     148.830 165.022 189.199  0.00  0.00    +0.033 HD
ATOM     51  H   UNL     1     151.132 163.491 189.100  0.00  0.00    +0.057 HD
ATOM     52  H   UNL     1     152.449 164.502 190.731  0.00  0.00    +0.067 HD
ATOM     53  H   UNL     1     152.686 168.749 192.625  0.00  0.00    +0.105 HD
ATOM     54  H   UNL     1     149.682 172.577 192.849  0.00  0.00    +0.105 HD
ATOM     55  H   UNL     1     145.433 174.620 191.569  0.00  0.00    +0.105 HD
ENDROOT
BRANCH   1  56
ATOM     56  C   UNL     1     142.746 173.192 190.766  0.00  0.00    -0.056 C 
ATOM     57  H   UNL     1     143.166 173.759 191.606  0.00  0.00    +0.024 HD
ATOM     58  H   UNL     1     141.966 172.534 191.166  0.00  0.00    +0.024 HD
ATOM     59  H   UNL     1     142.266 173.908 190.091  0.00  0.00    +0.024 HD
ENDBRANCH   1  56
BRANCH  14  60
ATOM     60  C   UNL     1     148.665 162.201 188.075  0.00  0.00    -0.057 C 
ATOM     61  H   UNL     1     147.761 161.793 188.536  0.00  0.00    +0.023 HD
ATOM     62  H   UNL     1     149.162 161.398 187.522  0.00  0.00    +0.023 HD
ATOM     63  H   UNL     1     149.358 162.493 188.871  0.00  0.00    +0.023 HD
ENDBRANCH  14  60
BRANCH  13  64
ATOM     64  C   UNL     1     145.800 162.971 187.438  0.00  0.00    +0.011 C 
ATOM     65  H   UNL     1     146.222 161.963 187.485  0.00  0.00    +0.033 HD
ATOM     66  H   UNL     1     145.245 163.076 186.496  0.00  0.00    +0.033 HD
BRANCH  64  67
ATOM     67  C   UNL     1     144.820 163.120 188.625  0.00  0.00    +0.064 C 
ATOM     68  H   UNL     1     145.362 163.466 189.516  0.00  0.00    +0.060 HD
BRANCH  67  69
ATOM     69  C   UNL     1     143.701 164.161 188.322  0.00  0.00    -0.017 C 
ATOM     70  H   UNL     1     144.117 164.832 187.556  0.00  0.00    +0.032 HD
BRANCH  69  71
ATOM     71  C   UNL     1     142.434 163.542 187.715  0.00  0.00    -0.060 C 
ATOM     72  H   UNL     1     142.676 162.617 187.178  0.00  0.00    +0.023 HD
ATOM     73  H   UNL     1     141.942 164.228 187.016  0.00  0.00    +0.023 HD
ATOM     74  H   UNL     1     141.710 163.277 188.490  0.00  0.00    +0.023 HD
ENDBRANCH  69  71
BRANCH  69  75
ATOM     75  C   UNL     1     143.365 165.057 189.543  0.00  0.00    -0.041 C 
ATOM     76  H   UNL     1     142.318 164.907 189.833  0.00  0.00    +0.027 HD
ATOM     77  H   UNL     1     143.956 164.692 190.394  0.00  0.00    +0.027 HD
BRANCH  75  78
ATOM     78  C   UNL     1     143.652 166.553 189.376  0.00  0.00    +0.007 C 
ATOM     79  H   UNL     1     142.756 167.147 189.557  0.00  0.00    +0.034 HD
ATOM     80  H   UNL     1     143.979 166.784 188.356  0.00  0.00    +0.034 HD
BRANCH  78  81
ATOM     81  C   UNL     1     144.777 167.007 190.295  0.00  0.00    +0.140 C 
ATOM     82  O   UNL     1     145.099 168.195 190.323  0.00  0.00    -0.297 OA
BRANCH  81  83
ATOM     83  C   UNL     1     145.385 165.976 191.255  0.00  0.00    +0.052 C 
ATOM     84  H   UNL     1     144.672 165.140 191.247  0.00  0.00    +0.041 HD
BRANCH  83  85
ATOM     85  C   UNL     1     146.715 165.408 190.759  0.00  0.00    -0.052 C 
ATOM     86  H   UNL     1     147.534 166.116 190.904  0.00  0.00    +0.024 HD
ATOM     87  H   UNL     1     146.665 165.185 189.689  0.00  0.00    +0.024 HD
ATOM     88  H   UNL     1     146.967 164.467 191.256  0.00  0.00    +0.024 HD
ENDBRANCH  83  85
BRANCH  83  89
ATOM     89  C   UNL     1     145.470 166.496 192.716  0.00  0.00    +0.118 C 
ATOM     90  H   UNL     1     145.486 167.594 192.729  0.00  0.00    +0.075 HD
BRANCH  89  91
ATOM     91  C   UNL     1     146.672 165.975 193.569  0.00  0.00    +0.014 C 
ATOM     92  H   UNL     1     147.098 165.121 193.041  0.00  0.00    +0.038 HD
BRANCH  91  93
ATOM     93  C   UNL     1     146.175 165.427 194.916  0.00  0.00    -0.056 C 
ATOM     94  H   UNL     1     146.443 164.371 195.042  0.00  0.00    +0.024 HD
ATOM     95  H   UNL     1     145.083 165.507 194.994  0.00  0.00    +0.024 HD
ATOM     96  H   UNL     1     146.603 165.984 195.755  0.00  0.00    +0.024 HD
ENDBRANCH  91  93
BRANCH  91  97
ATOM     97  C   UNL     1     147.723 167.021 193.842  0.00  0.00    -0.064 C 
ATOM     98  C   UNL     1     148.959 166.892 194.338  0.00  0.00    -0.010 C 
ATOM     99  H   UNL     1     147.434 168.030 193.542  0.00  0.00    +0.059 HD
ATOM    100  H   UNL     1     149.557 167.809 194.355  0.00  0.00    +0.078 HD
BRANCH  98 101
ATOM    101  N   UNL     1     149.681 165.822 194.837  0.00  0.00    -0.317 N 
BRANCH 101 102
ATOM    102  C   UNL     1     149.909 165.563 196.256  0.00  0.00    +0.002 C 
ATOM    103  H   UNL     1     150.406 164.597 196.404  0.00  0.00    +0.043 HD
ATOM    104  H   UNL     1     148.965 165.514 196.811  0.00  0.00    +0.043 HD
ATOM    105  H   UNL     1     150.511 166.361 196.700  0.00  0.00    +0.043 HD
ENDBRANCH 101 102
BRANCH 101 106
ATOM    106  C   UNL     1     150.307 164.861 193.944  0.00  0.00    +0.110 C 
ATOM    107  H   UNL     1     151.091 165.318 193.331  0.00  0.00    +0.077 HD
ATOM    108  H   UNL     1     149.577 164.406 193.267  0.00  0.00    +0.077 HD
BRANCH 106 109
ATOM    109  O   UNL     1     150.880 163.866 194.759  0.00  0.00    -0.377 OA
ATOM    110  H   UNL     1     150.504 163.061 194.364  0.00  0.00    +0.211 HD
ENDBRANCH 106 109
ENDBRANCH 101 106
ENDBRANCH  98 101
ENDBRANCH  91  97
ENDBRANCH  89  91
BRANCH  89 111
ATOM    111  O   UNL     1     144.269 166.038 193.409  0.00  0.00    -0.460 OA
BRANCH 111 112
ATOM    112  C   UNL     1     143.185 166.855 193.375  0.00  0.00    +0.304 C 
ATOM    113  O   UNL     1     143.152 168.013 193.766  0.00  0.00    -0.251 OA
BRANCH 112 114
ATOM    114  C   UNL     1     142.027 166.152 192.730  0.00  0.00    +0.033 C 
ATOM    115  H   UNL     1     141.132 166.227 193.358  0.00  0.00    +0.034 HD
ATOM    116  H   UNL     1     142.277 165.099 192.579  0.00  0.00    +0.034 HD
ATOM    117  H   UNL     1     141.803 166.630 191.772  0.00  0.00    +0.034 HD
ENDBRANCH 112 114
ENDBRANCH 111 112
ENDBRANCH  89 111
ENDBRANCH  83  89
ENDBRANCH  81  83
ENDBRANCH  78  81
ENDBRANCH  75  78
ENDBRANCH  69  75
ENDBRANCH  67  69
BRANCH  67 118
ATOM    118  O   UNL     1     144.219 161.839 188.864  0.00  0.00    -0.379 OA
BRANCH 118 119
ATOM    119  C   UNL     1     145.174 160.809 189.096  0.00  0.00    +0.037 C 
ATOM    120  H   UNL     1     144.770 159.875 188.694  0.00  0.00    +0.052 HD
ATOM    121  H   UNL     1     145.352 160.682 190.167  0.00  0.00    +0.052 HD
ATOM    122  H   UNL     1     146.113 161.017 188.585  0.00  0.00    +0.052 HD
ENDBRANCH 118 119
ENDBRANCH  67 118
ENDBRANCH  64  67
ENDBRANCH  13  64
BRANCH   8 123
ATOM    123  O   UNL     1     144.146 166.283 185.076  0.00  0.00    -0.391 OA
ATOM    124  H   UNL     1     143.388 166.364 185.681  0.00  0.00    +0.210 HD
ENDBRANCH   8 123
BRANCH  15 125
ATOM    125  O   UNL     1     149.348 165.366 186.134  0.00  0.00    -0.379 OA
BRANCH 125 126
ATOM    126  C   UNL     1     150.155 166.533 186.264  0.00  0.00    +0.037 C 
ATOM    127  H   UNL     1     151.215 166.271 186.344  0.00  0.00    +0.052 HD
ATOM    128  H   UNL     1     149.848 167.127 187.126  0.00  0.00    +0.052 HD
ATOM    129  H   UNL     1     150.022 167.137 185.365  0.00  0.00    +0.052 HD
ENDBRANCH 125 126
ENDBRANCH  15 125
TORSDOF 27
ENDMDL
MODEL 2
REMARK VINA RESULT:      -5.8      2.903      7.848
REMARK  Name = Ulapualide A_conf3
REMARK  27 active torsions:
REMARK  status: ('A' for Active; 'I' for Inactive)
REMARK    1  A    between atoms: C_1  and  C_2
REMARK    2  A    between atoms: C_9  and  O_63
REMARK    3  A    between atoms: C_14  and  C_38
REMARK    4  A    between atoms: C_15  and  C_37
REMARK    5  A    between atoms: C_16  and  O_35
REMARK    6  A    between atoms: O_35  and  C_36
REMARK    7  A    between atoms: C_38  and  C_39
REMARK    8  A    between atoms: C_39  and  C_40
REMARK    9  A    between atoms: C_39  and  O_61
REMARK   10  A    between atoms: C_40  and  C_41
REMARK   11  A    between atoms: C_40  and  C_42
REMARK   12  A    between atoms: C_42  and  C_43
REMARK   13  A    between atoms: C_43  and  C_44
REMARK   14  A    between atoms: C_44  and  C_46
REMARK   15  A    between atoms: C_46  and  C_47
REMARK   16  A    between atoms: C_46  and  C_48
REMARK   17  A    between atoms: C_48  and  C_49
REMARK   18  A    between atoms: C_48  and  O_57
REMARK   19  A    between atoms: C_49  and  C_50
REMARK   20  A    between atoms: C_49  and  C_51
REMARK   21  A    between atoms: C_52  and  N_53
REMARK   22  A    between atoms: N_53  and  C_54
REMARK   23  A    between atoms: N_53  and  C_55
REMARK   24  A    between atoms: C_55  and  O_56
REMARK   25  A    between atoms: O_57  and  C_58
REMARK   26  A    between atoms: C_58  and  C_60
REMARK   27  A    between atoms: O_61  and  C_62
REMARK                            x       y       z     vdW  Elec       q    Type
REMARK                         _______ _______ _______ _____ _____    ______ ____
ROOT
ATOM      1  C   UNL     1     154.552 165.652 188.929  0.00  0.00    +0.008 C 
ATOM      2  C   UNL     1     154.570 165.999 187.436  0.00  0.00    +0.014 C 
ATOM      3  C   UNL     1     153.248 165.727 186.735  0.00  0.00    +0.134 C 
ATOM      4  O   UNL     1     153.200 164.982 185.756  0.00  0.00    -0.297 OA
ATOM      5  C   UNL     1     152.032 166.476 187.256  0.00  0.00    +0.006 C 
ATOM      6  C   UNL     1     150.823 166.398 186.324  0.00  0.00    -0.044 C 
ATOM      7  C   UNL     1     149.731 167.364 186.787  0.00  0.00    -0.026 C 
ATOM      8  C   UNL     1     148.489 167.369 185.893  0.00  0.00    +0.065 C 
ATOM      9  C   UNL     1     147.731 166.049 185.812  0.00  0.00    +0.071 C 
ATOM     10  C   UNL     1     147.232 165.593 187.158  0.00  0.00    +0.310 C 
ATOM     11  O   UNL     1     147.907 164.981 187.973  0.00  0.00    -0.251 OA
ATOM     12  O   UNL     1     145.940 165.986 187.330  0.00  0.00    -0.461 OA
ATOM     13  C   UNL     1     145.249 165.533 188.516  0.00  0.00    +0.110 C 
ATOM     14  C   UNL     1     144.177 164.484 188.084  0.00  0.00    +0.020 C 
ATOM     15  C   UNL     1     144.764 163.170 187.469  0.00  0.00    +0.068 C 
ATOM     16  C   UNL     1     145.679 162.360 188.434  0.00  0.00    -0.008 C 
ATOM     17  C   UNL     1     144.958 161.172 189.028  0.00  0.00    -0.077 C 
ATOM     18  C   UNL     1     145.476 160.027 189.510  0.00  0.00    -0.003 C 
ATOM     19  C   UNL     1     146.857 159.706 189.611  0.00  0.00    +0.220 A 
ATOM     20  N   UNL     1     147.911 160.508 189.516  0.00  0.00    -0.205 NA
ATOM     21  C   UNL     1     149.006 159.699 189.712  0.00  0.00    +0.164 A 
ATOM     22  C   UNL     1     148.590 158.413 189.927  0.00  0.00    +0.125 A 
ATOM     23  O   UNL     1     147.236 158.397 189.875  0.00  0.00    -0.443 OA
ATOM     24  C   UNL     1     150.514 160.109 189.706  0.00  0.00    +0.250 A 
ATOM     25  N   UNL     1     150.980 161.336 189.547  0.00  0.00    -0.203 NA
ATOM     26  C   UNL     1     152.349 161.187 189.579  0.00  0.00    +0.164 A 
ATOM     27  C   UNL     1     152.667 159.868 189.774  0.00  0.00    +0.125 A 
ATOM     28  O   UNL     1     151.510 159.165 189.870  0.00  0.00    -0.442 OA
ATOM     29  C   UNL     1     153.431 162.304 189.418  0.00  0.00    +0.249 A 
ATOM     30  N   UNL     1     153.181 163.594 189.272  0.00  0.00    -0.212 NA
ATOM     31  C   UNL     1     154.422 164.178 189.144  0.00  0.00    +0.083 A 
ATOM     32  C   UNL     1     155.390 163.206 189.222  0.00  0.00    +0.116 A 
ATOM     33  O   UNL     1     154.779 162.010 189.409  0.00  0.00    -0.442 OA
ATOM     34  H   UNL     1     153.688 166.132 189.406  0.00  0.00    +0.037 HD
ATOM     35  H   UNL     1     155.353 165.434 186.916  0.00  0.00    +0.035 HD
ATOM     36  H   UNL     1     154.794 167.062 187.286  0.00  0.00    +0.035 HD
ATOM     37  H   UNL     1     152.332 167.523 187.377  0.00  0.00    +0.034 HD
ATOM     38  H   UNL     1     151.762 166.071 188.236  0.00  0.00    +0.034 HD
ATOM     39  H   UNL     1     150.452 165.368 186.307  0.00  0.00    +0.027 HD
ATOM     40  H   UNL     1     151.122 166.648 185.298  0.00  0.00    +0.027 HD
ATOM     41  H   UNL     1     150.140 168.383 186.805  0.00  0.00    +0.029 HD
ATOM     42  H   UNL     1     149.451 167.153 187.828  0.00  0.00    +0.029 HD
ATOM     43  H   UNL     1     148.796 167.653 184.879  0.00  0.00    +0.060 HD
ATOM     44  H   UNL     1     146.866 166.153 185.145  0.00  0.00    +0.040 HD
ATOM     45  H   UNL     1     148.346 165.250 185.387  0.00  0.00    +0.040 HD
ATOM     46  H   UNL     1     145.931 165.078 189.236  0.00  0.00    +0.074 HD
ATOM     47  H   UNL     1     143.592 164.951 187.277  0.00  0.00    +0.036 HD
ATOM     48  H   UNL     1     143.897 162.556 187.186  0.00  0.00    +0.060 HD
ATOM     49  H   UNL     1     146.578 162.030 187.906  0.00  0.00    +0.033 HD
ATOM     50  H   UNL     1     146.018 162.983 189.265  0.00  0.00    +0.033 HD
ATOM     51  H   UNL     1     143.874 161.247 189.068  0.00  0.00    +0.057 HD
ATOM     52  H   UNL     1     144.791 159.262 189.864  0.00  0.00    +0.067 HD
ATOM     53  H   UNL     1     149.082 157.472 190.122  0.00  0.00    +0.105 HD
ATOM     54  H   UNL     1     153.586 159.310 189.864  0.00  0.00    +0.105 HD
ATOM     55  H   UNL     1     156.469 163.191 189.161  0.00  0.00    +0.105 HD
ENDROOT
BRANCH   1  56
ATOM     56  C   UNL     1     155.794 166.230 189.615  0.00  0.00    -0.056 C 
ATOM     57  H   UNL     1     155.629 167.275 189.903  0.00  0.00    +0.024 HD
ATOM     58  H   UNL     1     156.671 166.199 188.959  0.00  0.00    +0.024 HD
ATOM     59  H   UNL     1     156.037 165.670 190.525  0.00  0.00    +0.024 HD
ENDBRANCH   1  56
BRANCH  14  60
ATOM     60  C   UNL     1     143.203 164.133 189.218  0.00  0.00    -0.057 C 
ATOM     61  H   UNL     1     142.262 164.682 189.124  0.00  0.00    +0.023 HD
ATOM     62  H   UNL     1     142.977 163.063 189.232  0.00  0.00    +0.023 HD
ATOM     63  H   UNL     1     143.640 164.362 190.196  0.00  0.00    +0.023 HD
ENDBRANCH  14  60
BRANCH  13  64
ATOM     64  C   UNL     1     144.643 166.802 189.148  0.00  0.00    +0.011 C 
ATOM     65  H   UNL     1     143.665 166.568 189.577  0.00  0.00    +0.033 HD
ATOM     66  H   UNL     1     144.509 167.554 188.359  0.00  0.00    +0.033 HD
BRANCH  64  67
ATOM     67  C   UNL     1     145.514 167.401 190.278  0.00  0.00    +0.064 C 
ATOM     68  H   UNL     1     146.195 166.633 190.671  0.00  0.00    +0.060 HD
BRANCH  67  69
ATOM     69  C   UNL     1     146.387 168.586 189.766  0.00  0.00    -0.017 C 
ATOM     70  H   UNL     1     146.323 168.551 188.669  0.00  0.00    +0.032 HD
BRANCH  69  71
ATOM     71  C   UNL     1     145.861 169.965 190.188  0.00  0.00    -0.060 C 
ATOM     72  H   UNL     1     145.454 170.502 189.324  0.00  0.00    +0.023 HD
ATOM     73  H   UNL     1     146.648 170.579 190.639  0.00  0.00    +0.023 HD
ATOM     74  H   UNL     1     145.048 169.874 190.914  0.00  0.00    +0.023 HD
ENDBRANCH  69  71
BRANCH  69  75
ATOM     75  C   UNL     1     147.890 168.421 190.116  0.00  0.00    -0.041 C 
ATOM     76  H   UNL     1     148.464 168.244 189.198  0.00  0.00    +0.027 HD
ATOM     77  H   UNL     1     148.248 169.386 190.498  0.00  0.00    +0.027 HD
BRANCH  75  78
ATOM     78  C   UNL     1     148.223 167.347 191.157  0.00  0.00    +0.007 C 
ATOM     79  H   UNL     1     149.176 166.868 190.935  0.00  0.00    +0.034 HD
ATOM     80  H   UNL     1     147.468 166.553 191.164  0.00  0.00    +0.034 HD
BRANCH  78  81
ATOM     81  C   UNL     1     148.241 167.927 192.564  0.00  0.00    +0.140 C 
ATOM     82  O   UNL     1     148.153 169.145 192.722  0.00  0.00    -0.297 OA
BRANCH  81  83
ATOM     83  C   UNL     1     148.236 166.950 193.747  0.00  0.00    +0.052 C 
ATOM     84  H   UNL     1     147.802 167.526 194.576  0.00  0.00    +0.041 HD
BRANCH  83  85
ATOM     85  C   UNL     1     147.313 165.751 193.529  0.00  0.00    -0.052 C 
ATOM     86  H   UNL     1     147.238 165.489 192.470  0.00  0.00    +0.024 HD
ATOM     87  H   UNL     1     146.301 165.972 193.881  0.00  0.00    +0.024 HD
ATOM     88  H   UNL     1     147.647 164.873 194.088  0.00  0.00    +0.024 HD
ENDBRANCH  83  85
BRANCH  83  89
ATOM     89  C   UNL     1     149.666 166.527 194.180  0.00  0.00    +0.118 C 
ATOM     90  H   UNL     1     150.167 167.354 194.702  0.00  0.00    +0.075 HD
BRANCH  89  91
ATOM     91  C   UNL     1     150.613 166.018 193.044  0.00  0.00    +0.014 C 
ATOM     92  H   UNL     1     150.122 166.233 192.093  0.00  0.00    +0.038 HD
BRANCH  91  93
ATOM     93  C   UNL     1     150.750 164.489 193.106  0.00  0.00    -0.056 C 
ATOM     94  H   UNL     1     150.354 164.014 192.200  0.00  0.00    +0.024 HD
ATOM     95  H   UNL     1     150.203 164.080 193.966  0.00  0.00    +0.024 HD
ATOM     96  H   UNL     1     151.797 164.187 193.214  0.00  0.00    +0.024 HD
ENDBRANCH  91  93
BRANCH  91  97
ATOM     97  C   UNL     1     151.994 166.621 193.087  0.00  0.00    -0.064 C 
ATOM     98  C   UNL     1     152.467 167.733 192.513  0.00  0.00    -0.010 C 
ATOM     99  H   UNL     1     152.695 166.079 193.725  0.00  0.00    +0.059 HD
ATOM    100  H   UNL     1     153.497 167.996 192.776  0.00  0.00    +0.078 HD
BRANCH  98 101
ATOM    101  N   UNL     1     151.926 168.665 191.645  0.00  0.00    -0.317 N 
BRANCH 101 102
ATOM    102  C   UNL     1     151.638 168.418 190.235  0.00  0.00    +0.002 C 
ATOM    103  H   UNL     1     150.739 167.802 190.120  0.00  0.00    +0.043 HD
ATOM    104  H   UNL     1     152.454 167.869 189.750  0.00  0.00    +0.043 HD
ATOM    105  H   UNL     1     151.511 169.361 189.698  0.00  0.00    +0.043 HD
ENDBRANCH 101 102
BRANCH 101 106
ATOM    106  C   UNL     1     151.620 170.014 192.093  0.00  0.00    +0.110 C 
ATOM    107  H   UNL     1     152.464 170.696 191.954  0.00  0.00    +0.077 HD
ATOM    108  H   UNL     1     151.346 170.033 193.153  0.00  0.00    +0.077 HD
BRANCH 106 109
ATOM    109  O   UNL     1     150.533 170.460 191.316  0.00  0.00    -0.377 OA
ATOM    110  H   UNL     1     150.316 171.296 191.761  0.00  0.00    +0.211 HD
ENDBRANCH 106 109
ENDBRANCH 101 106
ENDBRANCH  98 101
ENDBRANCH  91  97
ENDBRANCH  89  91
BRANCH  89 111
ATOM    111  O   UNL     1     149.526 165.407 195.105  0.00  0.00    -0.460 OA
BRANCH 111 112
ATOM    112  C   UNL     1     150.205 165.484 196.279  0.00  0.00    +0.304 C 
ATOM    113  O   UNL     1     150.220 166.445 197.032  0.00  0.00    -0.251 OA
BRANCH 112 114
ATOM    114  C   UNL     1     150.901 164.185 196.560  0.00  0.00    +0.033 C 
ATOM    115  H   UNL     1     151.988 164.307 196.489  0.00  0.00    +0.034 HD
ATOM    116  H   UNL     1     150.574 163.431 195.838  0.00  0.00    +0.034 HD
ATOM    117  H   UNL     1     150.668 163.862 197.578  0.00  0.00    +0.034 HD
ENDBRANCH 112 114
ENDBRANCH 111 112
ENDBRANCH  89 111
ENDBRANCH  83  89
ENDBRANCH  81  83
ENDBRANCH  78  81
ENDBRANCH  75  78
ENDBRANCH  69  75
ENDBRANCH  67  69
BRANCH  67 118
ATOM    118  O   UNL     1     144.635 167.875 191.308  0.00  0.00    -0.379 OA
BRANCH 118 119
ATOM    119  C   UNL     1     143.966 166.824 191.998  0.00  0.00    +0.037 C 
ATOM    120  H   UNL     1     144.692 166.332 192.652  0.00  0.00    +0.052 HD
ATOM    121  H   UNL     1     143.574 166.087 191.292  0.00  0.00    +0.052 HD
ATOM    122  H   UNL     1     143.159 167.210 192.620  0.00  0.00    +0.052 HD
ENDBRANCH 118 119
ENDBRANCH  67 118
ENDBRANCH  64  67
ENDBRANCH  13  64
BRANCH   8 123
ATOM    123  O   UNL     1     147.627 168.413 186.358  0.00  0.00    -0.391 OA
ATOM    124  H   UNL     1     147.333 168.182 187.256  0.00  0.00    +0.210 HD
ENDBRANCH   8 123
BRANCH  15 125
ATOM    125  O   UNL     1     145.430 163.496 186.237  0.00  0.00    -0.379 OA
BRANCH 125 126
ATOM    126  C   UNL     1     146.119 162.396 185.650  0.00  0.00    +0.037 C 
ATOM    127  H   UNL     1     145.501 161.492 185.662  0.00  0.00    +0.052 HD
ATOM    128  H   UNL     1     147.066 162.211 186.159  0.00  0.00    +0.052 HD
ATOM    129  H   UNL     1     146.332 162.648 184.610  0.00  0.00    +0.052 HD
ENDBRANCH 125 126
ENDBRANCH  15 125
TORSDOF 27
ENDMDL
MODEL 3
REMARK VINA RESULT:      -5.5      2.965      7.856
REMARK  Name = Ulapualide A_conf3
REMARK  27 active torsions:
REMARK  status: ('A' for Active; 'I' for Inactive)
REMARK    1  A    between atoms: C_1  and  C_2
REMARK    2  A    between atoms: C_9  and  O_63
REMARK    3  A    between atoms: C_14  and  C_38
REMARK    4  A    between atoms: C_15  and  C_37
REMARK    5  A    between atoms: C_16  and  O_35
REMARK    6  A    between atoms: O_35  and  C_36
REMARK    7  A    between atoms: C_38  and  C_39
REMARK    8  A    between atoms: C_39  and  C_40
REMARK    9  A    between atoms: C_39  and  O_61
REMARK   10  A    between atoms: C_40  and  C_41
REMARK   11  A    between atoms: C_40  and  C_42
REMARK   12  A    between atoms: C_42  and  C_43
REMARK   13  A    between atoms: C_43  and  C_44
REMARK   14  A    between atoms: C_44  and  C_46
REMARK   15  A    between atoms: C_46  and  C_47
REMARK   16  A    between atoms: C_46  and  C_48
REMARK   17  A    between atoms: C_48  and  C_49
REMARK   18  A    between atoms: C_48  and  O_57
REMARK   19  A    between atoms: C_49  and  C_50
REMARK   20  A    between atoms: C_49  and  C_51
REMARK   21  A    between atoms: C_52  and  N_53
REMARK   22  A    between atoms: N_53  and  C_54
REMARK   23  A    between atoms: N_53  and  C_55
REMARK   24  A    between atoms: C_55  and  O_56
REMARK   25  A    between atoms: O_57  and  C_58
REMARK   26  A    between atoms: C_58  and  C_60
REMARK   27  A    between atoms: O_61  and  C_62
REMARK                            x       y       z     vdW  Elec       q    Type
REMARK                         _______ _______ _______ _____ _____    ______ ____
ROOT
ATOM      1  C   UNL     1     154.545 165.624 188.853  0.00  0.00    +0.008 C 
ATOM      2  C   UNL     1     154.559 165.967 187.359  0.00  0.00    +0.014 C 
ATOM      3  C   UNL     1     153.238 165.684 186.660  0.00  0.00    +0.134 C 
ATOM      4  O   UNL     1     153.194 164.935 185.682  0.00  0.00    -0.297 OA
ATOM      5  C   UNL     1     152.017 166.425 187.181  0.00  0.00    +0.006 C 
ATOM      6  C   UNL     1     150.807 166.335 186.250  0.00  0.00    -0.044 C 
ATOM      7  C   UNL     1     149.709 167.293 186.711  0.00  0.00    -0.026 C 
ATOM      8  C   UNL     1     148.465 167.287 185.819  0.00  0.00    +0.065 C 
ATOM      9  C   UNL     1     147.717 165.960 185.742  0.00  0.00    +0.071 C 
ATOM     10  C   UNL     1     147.223 165.505 187.090  0.00  0.00    +0.310 C 
ATOM     11  O   UNL     1     147.904 164.899 187.905  0.00  0.00    -0.251 OA
ATOM     12  O   UNL     1     145.929 165.888 187.262  0.00  0.00    -0.461 OA
ATOM     13  C   UNL     1     145.242 165.433 188.449  0.00  0.00    +0.110 C 
ATOM     14  C   UNL     1     144.178 164.374 188.021  0.00  0.00    +0.020 C 
ATOM     15  C   UNL     1     144.774 163.063 187.409  0.00  0.00    +0.068 C 
ATOM     16  C   UNL     1     145.697 162.262 188.375  0.00  0.00    -0.008 C 
ATOM     17  C   UNL     1     144.986 161.070 188.973  0.00  0.00    -0.077 C 
ATOM     18  C   UNL     1     145.512 159.931 189.457  0.00  0.00    -0.003 C 
ATOM     19  C   UNL     1     146.896 159.620 189.558  0.00  0.00    +0.220 A 
ATOM     20  N   UNL     1     147.944 160.430 189.459  0.00  0.00    -0.205 NA
ATOM     21  C   UNL     1     149.045 159.631 189.656  0.00  0.00    +0.164 A 
ATOM     22  C   UNL     1     148.639 158.342 189.875  0.00  0.00    +0.125 A 
ATOM     23  O   UNL     1     147.286 158.315 189.824  0.00  0.00    -0.443 OA
ATOM     24  C   UNL     1     150.550 160.052 189.648  0.00  0.00    +0.250 A 
ATOM     25  N   UNL     1     151.006 161.282 189.485  0.00  0.00    -0.203 NA
ATOM     26  C   UNL     1     152.377 161.143 189.516  0.00  0.00    +0.164 A 
ATOM     27  C   UNL     1     152.705 159.828 189.714  0.00  0.00    +0.125 A 
ATOM     28  O   UNL     1     151.553 159.116 189.813  0.00  0.00    -0.442 OA
ATOM     29  C   UNL     1     153.450 162.268 189.351  0.00  0.00    +0.249 A 
ATOM     30  N   UNL     1     153.190 163.557 189.202  0.00  0.00    -0.212 NA
ATOM     31  C   UNL     1     154.426 164.150 189.071  0.00  0.00    +0.083 A 
ATOM     32  C   UNL     1     155.402 163.185 189.151  0.00  0.00    +0.116 A 
ATOM     33  O   UNL     1     154.800 161.985 189.342  0.00  0.00    -0.442 OA
ATOM     34  H   UNL     1     153.677 166.098 189.330  0.00  0.00    +0.037 HD
ATOM     35  H   UNL     1     155.345 165.407 186.840  0.00  0.00    +0.035 HD
ATOM     36  H   UNL     1     154.774 167.032 187.206  0.00  0.00    +0.035 HD
ATOM     37  H   UNL     1     152.309 167.474 187.298  0.00  0.00    +0.034 HD
ATOM     38  H   UNL     1     151.751 166.020 188.162  0.00  0.00    +0.034 HD
ATOM     39  H   UNL     1     150.445 165.302 186.236  0.00  0.00    +0.027 HD
ATOM     40  H   UNL     1     151.104 166.584 185.223  0.00  0.00    +0.027 HD
ATOM     41  H   UNL     1     150.110 168.316 186.726  0.00  0.00    +0.029 HD
ATOM     42  H   UNL     1     149.431 167.083 187.753  0.00  0.00    +0.029 HD
ATOM     43  H   UNL     1     148.769 167.571 184.804  0.00  0.00    +0.060 HD
ATOM     44  H   UNL     1     146.851 166.057 185.076  0.00  0.00    +0.040 HD
ATOM     45  H   UNL     1     148.338 165.165 185.318  0.00  0.00    +0.040 HD
ATOM     46  H   UNL     1     145.928 164.984 189.170  0.00  0.00    +0.074 HD
ATOM     47  H   UNL     1     143.589 164.835 187.214  0.00  0.00    +0.036 HD
ATOM     48  H   UNL     1     143.912 162.442 187.128  0.00  0.00    +0.060 HD
ATOM     49  H   UNL     1     146.598 161.938 187.847  0.00  0.00    +0.033 HD
ATOM     50  H   UNL     1     146.032 162.891 189.204  0.00  0.00    +0.033 HD
ATOM     51  H   UNL     1     143.900 161.137 189.014  0.00  0.00    +0.057 HD
ATOM     52  H   UNL     1     144.834 159.161 189.814  0.00  0.00    +0.067 HD
ATOM     53  H   UNL     1     149.139 157.405 190.071  0.00  0.00    +0.105 HD
ATOM     54  H   UNL     1     153.628 159.277 189.805  0.00  0.00    +0.105 HD
ATOM     55  H   UNL     1     156.481 163.178 189.089  0.00  0.00    +0.105 HD
ENDROOT
BRANCH   1  56
ATOM     56  C   UNL     1     155.783 166.213 189.537  0.00  0.00    -0.056 C 
ATOM     57  H   UNL     1     155.739 167.308 189.543  0.00  0.00    +0.024 HD
ATOM     58  H   UNL     1     156.707 165.919 189.026  0.00  0.00    +0.024 HD
ATOM     59  H   UNL     1     155.854 165.878 190.577  0.00  0.00    +0.024 HD
ENDBRANCH   1  56
BRANCH  14  60
ATOM     60  C   UNL     1     143.208 164.018 189.157  0.00  0.00    -0.057 C 
ATOM     61  H   UNL     1     142.874 164.910 189.695  0.00  0.00    +0.023 HD
ATOM     62  H   UNL     1     142.326 163.494 188.778  0.00  0.00    +0.023 HD
ATOM     63  H   UNL     1     143.678 163.338 189.875  0.00  0.00    +0.023 HD
ENDBRANCH  14  60
BRANCH  13  64
ATOM     64  C   UNL     1     144.628 166.699 189.079  0.00  0.00    +0.011 C 
ATOM     65  H   UNL     1     143.712 166.434 189.616  0.00  0.00    +0.033 HD
ATOM     66  H   UNL     1     144.372 167.399 188.273  0.00  0.00    +0.033 HD
BRANCH  64  67
ATOM     67  C   UNL     1     145.569 167.403 190.084  0.00  0.00    +0.064 C 
ATOM     68  H   UNL     1     146.410 166.742 190.335  0.00  0.00    +0.060 HD
BRANCH  67  69
ATOM     69  C   UNL     1     146.162 168.717 189.495  0.00  0.00    -0.017 C 
ATOM     70  H   UNL     1     146.095 168.611 188.402  0.00  0.00    +0.032 HD
BRANCH  69  71
ATOM     71  C   UNL     1     145.358 169.973 189.859  0.00  0.00    -0.060 C 
ATOM     72  H   UNL     1     145.978 170.871 189.755  0.00  0.00    +0.023 HD
ATOM     73  H   UNL     1     144.981 169.930 190.886  0.00  0.00    +0.023 HD
ATOM     74  H   UNL     1     144.501 170.103 189.192  0.00  0.00    +0.023 HD
ENDBRANCH  69  71
BRANCH  69  75
ATOM     75  C   UNL     1     147.669 168.896 189.818  0.00  0.00    -0.041 C 
ATOM     76  H   UNL     1     148.252 168.856 188.890  0.00  0.00    +0.027 HD
ATOM     77  H   UNL     1     147.807 169.915 190.202  0.00  0.00    +0.027 HD
BRANCH  75  78
ATOM     78  C   UNL     1     148.255 167.921 190.845  0.00  0.00    +0.007 C 
ATOM     79  H   UNL     1     149.267 167.625 190.572  0.00  0.00    +0.034 HD
ATOM     80  H   UNL     1     147.664 167.000 190.900  0.00  0.00    +0.034 HD
BRANCH  78  81
ATOM     81  C   UNL     1     148.242 168.517 192.245  0.00  0.00    +0.140 C 
ATOM     82  O   UNL     1     147.810 169.658 192.418  0.00  0.00    -0.297 OA
BRANCH  81  83
ATOM     83  C   UNL     1     148.651 167.616 193.418  0.00  0.00    +0.052 C 
ATOM     84  H   UNL     1     148.867 168.314 194.238  0.00  0.00    +0.041 HD
BRANCH  83  85
ATOM     85  C   UNL     1     147.513 166.720 193.908  0.00  0.00    -0.052 C 
ATOM     86  H   UNL     1     147.176 166.033 193.127  0.00  0.00    +0.024 HD
ATOM     87  H   UNL     1     146.649 167.321 194.206  0.00  0.00    +0.024 HD
ATOM     88  H   UNL     1     147.802 166.140 194.789  0.00  0.00    +0.024 HD
ENDBRANCH  83  85
BRANCH  83  89
ATOM     89  C   UNL     1     149.953 166.819 193.134  0.00  0.00    +0.118 C 
ATOM     90  H   UNL     1     149.957 166.450 192.099  0.00  0.00    +0.075 HD
BRANCH  89  91
ATOM     91  C   UNL     1     150.253 165.617 194.087  0.00  0.00    +0.014 C 
ATOM     92  H   UNL     1     149.293 165.237 194.441  0.00  0.00    +0.038 HD
BRANCH  91  93
ATOM     93  C   UNL     1     150.998 166.101 195.342  0.00  0.00    -0.056 C 
ATOM     94  H   UNL     1     150.346 166.700 195.988  0.00  0.00    +0.024 HD
ATOM     95  H   UNL     1     151.863 166.720 195.071  0.00  0.00    +0.024 HD
ATOM     96  H   UNL     1     151.372 165.258 195.931  0.00  0.00    +0.024 HD
ENDBRANCH  91  93
BRANCH  91  97
ATOM     97  C   UNL     1     151.065 164.521 193.447  0.00  0.00    -0.064 C 
ATOM     98  C   UNL     1     150.957 163.963 192.235  0.00  0.00    -0.010 C 
ATOM     99  H   UNL     1     151.896 164.167 194.060  0.00  0.00    +0.059 HD
ATOM    100  H   UNL     1     151.736 163.237 191.980  0.00  0.00    +0.078 HD
BRANCH  98 101
ATOM    101  N   UNL     1     150.061 164.113 191.191  0.00  0.00    -0.317 N 
BRANCH 101 102
ATOM    102  C   UNL     1     150.294 164.938 190.009  0.00  0.00    +0.002 C 
ATOM    103  H   UNL     1     151.286 165.403 190.045  0.00  0.00    +0.043 HD
ATOM    104  H   UNL     1     149.569 165.759 189.945  0.00  0.00    +0.043 HD
ATOM    105  H   UNL     1     150.197 164.341 189.099  0.00  0.00    +0.043 HD
ENDBRANCH 101 102
BRANCH 101 106
ATOM    106  C   UNL     1     148.766 163.453 191.217  0.00  0.00    +0.110 C 
ATOM    107  H   UNL     1     148.368 163.286 190.211  0.00  0.00    +0.077 HD
ATOM    108  H   UNL     1     148.028 164.036 191.776  0.00  0.00    +0.077 HD
BRANCH 106 109
ATOM    109  O   UNL     1     148.961 162.209 191.848  0.00  0.00    -0.377 OA
ATOM    110  H   UNL     1     148.069 162.033 192.195  0.00  0.00    +0.211 HD
ENDBRANCH 106 109
ENDBRANCH 101 106
ENDBRANCH  98 101
ENDBRANCH  91  97
ENDBRANCH  89  91
BRANCH  89 111
ATOM    111  O   UNL     1     151.072 167.744 193.304  0.00  0.00    -0.460 OA
BRANCH 111 112
ATOM    112  C   UNL     1     151.820 168.019 192.204  0.00  0.00    +0.304 C 
ATOM    113  O   UNL     1     152.475 167.208 191.566  0.00  0.00    -0.251 OA
BRANCH 112 114
ATOM    114  C   UNL     1     151.687 169.467 191.837  0.00  0.00    +0.033 C 
ATOM    115  H   UNL     1     152.438 170.068 192.362  0.00  0.00    +0.034 HD
ATOM    116  H   UNL     1     150.687 169.821 192.104  0.00  0.00    +0.034 HD
ATOM    117  H   UNL     1     151.857 169.585 190.763  0.00  0.00    +0.034 HD
ENDBRANCH 112 114
ENDBRANCH 111 112
ENDBRANCH  89 111
ENDBRANCH  83  89
ENDBRANCH  81  83
ENDBRANCH  78  81
ENDBRANCH  75  78
ENDBRANCH  69  75
ENDBRANCH  67  69
BRANCH  67 118
ATOM    118  O   UNL     1     144.805 167.717 191.258  0.00  0.00    -0.379 OA
BRANCH 118 119
ATOM    119  C   UNL     1     144.350 166.562 191.953  0.00  0.00    +0.037 C 
ATOM    120  H   UNL     1     145.119 166.275 192.676  0.00  0.00    +0.052 HD
ATOM    121  H   UNL     1     144.192 165.731 191.260  0.00  0.00    +0.052 HD
ATOM    122  H   UNL     1     143.431 166.766 192.502  0.00  0.00    +0.052 HD
ENDBRANCH 118 119
ENDBRANCH  67 118
ENDBRANCH  64  67
ENDBRANCH  13  64
BRANCH   8 123
ATOM    123  O   UNL     1     147.596 168.326 186.282  0.00  0.00    -0.391 OA
ATOM    124  H   UNL     1     146.947 167.926 186.887  0.00  0.00    +0.210 HD
ENDBRANCH   8 123
BRANCH  15 125
ATOM    125  O   UNL     1     145.437 163.391 186.175  0.00  0.00    -0.379 OA
BRANCH 125 126
ATOM    126  C   UNL     1     146.133 162.296 185.590  0.00  0.00    +0.037 C 
ATOM    127  H   UNL     1     145.584 161.359 185.732  0.00  0.00    +0.052 HD
ATOM    128  H   UNL     1     147.140 162.206 186.002  0.00  0.00    +0.052 HD
ATOM    129  H   UNL     1     146.216 162.482 184.518  0.00  0.00    +0.052 HD
ENDBRANCH 125 126
ENDBRANCH  15 125
TORSDOF 27
ENDMDL
MODEL 4
REMARK VINA RESULT:      -5.5      2.253      7.446
REMARK  Name = Ulapualide A_conf3
REMARK  27 active torsions:
REMARK  status: ('A' for Active; 'I' for Inactive)
REMARK    1  A    between atoms: C_1  and  C_2
REMARK    2  A    between atoms: C_9  and  O_63
REMARK    3  A    between atoms: C_14  and  C_38
REMARK    4  A    between atoms: C_15  and  C_37
REMARK    5  A    between atoms: C_16  and  O_35
REMARK    6  A    between atoms: O_35  and  C_36
REMARK    7  A    between atoms: C_38  and  C_39
REMARK    8  A    between atoms: C_39  and  C_40
REMARK    9  A    between atoms: C_39  and  O_61
REMARK   10  A    between atoms: C_40  and  C_41
REMARK   11  A    between atoms: C_40  and  C_42
REMARK   12  A    between atoms: C_42  and  C_43
REMARK   13  A    between atoms: C_43  and  C_44
REMARK   14  A    between atoms: C_44  and  C_46
REMARK   15  A    between atoms: C_46  and  C_47
REMARK   16  A    between atoms: C_46  and  C_48
REMARK   17  A    between atoms: C_48  and  C_49
REMARK   18  A    between atoms: C_48  and  O_57
REMARK   19  A    between atoms: C_49  and  C_50
REMARK   20  A    between atoms: C_49  and  C_51
REMARK   21  A    between atoms: C_52  and  N_53
REMARK   22  A    between atoms: N_53  and  C_54
REMARK   23  A    between atoms: N_53  and  C_55
REMARK   24  A    between atoms: C_55  and  O_56
REMARK   25  A    between atoms: O_57  and  C_58
REMARK   26  A    between atoms: C_58  and  C_60
REMARK   27  A    between atoms: O_61  and  C_62
REMARK                            x       y       z     vdW  Elec       q    Type
REMARK                         _______ _______ _______ _____ _____    ______ ____
ROOT
ATOM      1  C   UNL     1     151.867 166.960 191.596  0.00  0.00    +0.008 C 
ATOM      2  C   UNL     1     152.404 165.640 191.030  0.00  0.00    +0.014 C 
ATOM      3  C   UNL     1     151.455 164.970 190.049  0.00  0.00    +0.134 C 
ATOM      4  O   UNL     1     151.066 163.817 190.242  0.00  0.00    -0.297 OA
ATOM      5  C   UNL     1     151.087 165.763 188.806  0.00  0.00    +0.006 C 
ATOM      6  C   UNL     1     150.395 164.924 187.731  0.00  0.00    -0.044 C 
ATOM      7  C   UNL     1     150.276 165.718 186.429  0.00  0.00    -0.026 C 
ATOM      8  C   UNL     1     149.615 164.944 185.288  0.00  0.00    +0.065 C 
ATOM      9  C   UNL     1     148.172 164.516 185.531  0.00  0.00    +0.071 C 
ATOM     10  C   UNL     1     147.262 165.692 185.772  0.00  0.00    +0.310 C 
ATOM     11  O   UNL     1     147.121 166.245 186.854  0.00  0.00    -0.251 OA
ATOM     12  O   UNL     1     146.650 166.050 184.610  0.00  0.00    -0.461 OA
ATOM     13  C   UNL     1     145.644 167.085 184.668  0.00  0.00    +0.110 C 
ATOM     14  C   UNL     1     144.251 166.424 184.424  0.00  0.00    +0.020 C 
ATOM     15  C   UNL     1     143.809 165.410 185.532  0.00  0.00    +0.068 C 
ATOM     16  C   UNL     1     143.658 166.033 186.951  0.00  0.00    -0.008 C 
ATOM     17  C   UNL     1     142.210 166.286 187.303  0.00  0.00    -0.077 C 
ATOM     18  C   UNL     1     141.642 166.372 188.519  0.00  0.00    -0.003 C 
ATOM     19  C   UNL     1     142.314 166.290 189.770  0.00  0.00    +0.220 A 
ATOM     20  N   UNL     1     143.614 166.376 190.027  0.00  0.00    -0.205 NA
ATOM     21  C   UNL     1     143.726 166.256 191.393  0.00  0.00    +0.164 A 
ATOM     22  C   UNL     1     142.481 166.101 191.940  0.00  0.00    +0.125 A 
ATOM     23  O   UNL     1     141.574 166.127 190.933  0.00  0.00    -0.443 OA
ATOM     24  C   UNL     1     145.030 166.283 192.254  0.00  0.00    +0.250 A 
ATOM     25  N   UNL     1     146.255 166.470 191.793  0.00  0.00    -0.203 NA
ATOM     26  C   UNL     1     147.056 166.374 192.911  0.00  0.00    +0.164 A 
ATOM     27  C   UNL     1     146.281 166.147 194.018  0.00  0.00    +0.125 A 
ATOM     28  O   UNL     1     144.984 166.098 193.622  0.00  0.00    -0.442 OA
ATOM     29  C   UNL     1     148.613 166.491 192.976  0.00  0.00    +0.249 A 
ATOM     30  N   UNL     1     149.404 166.753 191.949  0.00  0.00    -0.212 NA
ATOM     31  C   UNL     1     150.677 166.731 192.473  0.00  0.00    +0.083 A 
ATOM     32  C   UNL     1     150.608 166.457 193.818  0.00  0.00    +0.116 A 
ATOM     33  O   UNL     1     149.303 166.314 194.157  0.00  0.00    -0.442 OA
ATOM     34  H   UNL     1     151.547 167.609 190.771  0.00  0.00    +0.037 HD
ATOM     35  H   UNL     1     152.615 164.929 191.838  0.00  0.00    +0.035 HD
ATOM     36  H   UNL     1     153.348 165.802 190.495  0.00  0.00    +0.035 HD
ATOM     37  H   UNL     1     152.019 166.173 188.403  0.00  0.00    +0.034 HD
ATOM     38  H   UNL     1     150.433 166.592 189.096  0.00  0.00    +0.034 HD
ATOM     39  H   UNL     1     149.407 164.622 188.096  0.00  0.00    +0.027 HD
ATOM     40  H   UNL     1     150.964 164.004 187.548  0.00  0.00    +0.027 HD
ATOM     41  H   UNL     1     151.281 166.016 186.101  0.00  0.00    +0.029 HD
ATOM     42  H   UNL     1     149.745 166.664 186.606  0.00  0.00    +0.029 HD
ATOM     43  H   UNL     1     150.213 164.044 185.092  0.00  0.00    +0.060 HD
ATOM     44  H   UNL     1     147.793 163.964 184.662  0.00  0.00    +0.040 HD
ATOM     45  H   UNL     1     148.085 163.836 186.384  0.00  0.00    +0.040 HD
ATOM     46  H   UNL     1     145.638 167.594 185.634  0.00  0.00    +0.074 HD
ATOM     47  H   UNL     1     144.346 165.831 183.503  0.00  0.00    +0.036 HD
ATOM     48  H   UNL     1     142.839 165.009 185.204  0.00  0.00    +0.060 HD
ATOM     49  H   UNL     1     144.118 165.378 187.696  0.00  0.00    +0.033 HD
ATOM     50  H   UNL     1     144.181 166.991 187.015  0.00  0.00    +0.033 HD
ATOM     51  H   UNL     1     141.532 166.412 186.461  0.00  0.00    +0.057 HD
ATOM     52  H   UNL     1     140.567 166.521 188.576  0.00  0.00    +0.067 HD
ATOM     53  H   UNL     1     142.095 165.976 192.941  0.00  0.00    +0.105 HD
ATOM     54  H   UNL     1     146.476 166.011 195.071  0.00  0.00    +0.105 HD
ATOM     55  H   UNL     1     151.330 166.330 194.613  0.00  0.00    +0.105 HD
ENDROOT
BRANCH   1  56
ATOM     56  C   UNL     1     152.986 167.712 192.323  0.00  0.00    -0.056 C 
ATOM     57  H   UNL     1     153.854 167.846 191.667  0.00  0.00    +0.024 HD
ATOM     58  H   UNL     1     153.323 167.174 193.216  0.00  0.00    +0.024 HD
ATOM     59  H   UNL     1     152.651 168.706 192.638  0.00  0.00    +0.024 HD
ENDBRANCH   1  56
BRANCH  14  60
ATOM     60  C   UNL     1     143.138 167.457 184.196  0.00  0.00    -0.057 C 
ATOM     61  H   UNL     1     142.680 167.769 185.139  0.00  0.00    +0.023 HD
ATOM     62  H   UNL     1     143.518 168.347 183.687  0.00  0.00    +0.023 HD
ATOM     63  H   UNL     1     142.353 167.051 183.549  0.00  0.00    +0.023 HD
ENDBRANCH  14  60
BRANCH  13  64
ATOM     64  C   UNL     1     146.038 168.103 183.579  0.00  0.00    +0.011 C 
ATOM     65  H   UNL     1     145.262 168.136 182.809  0.00  0.00    +0.033 HD
ATOM     66  H   UNL     1     146.977 167.772 183.117  0.00  0.00    +0.033 HD
BRANCH  64  67
ATOM     67  C   UNL     1     146.217 169.541 184.119  0.00  0.00    +0.064 C 
ATOM     68  H   UNL     1     145.247 170.058 184.133  0.00  0.00    +0.060 HD
BRANCH  67  69
ATOM     69  C   UNL     1     146.774 169.546 185.574  0.00  0.00    -0.017 C 
ATOM     70  H   UNL     1     146.333 168.666 186.065  0.00  0.00    +0.032 HD
BRANCH  69  71
ATOM     71  C   UNL     1     148.296 169.367 185.650  0.00  0.00    -0.060 C 
ATOM     72  H   UNL     1     148.609 169.165 186.681  0.00  0.00    +0.023 HD
ATOM     73  H   UNL     1     148.828 170.258 185.297  0.00  0.00    +0.023 HD
ATOM     74  H   UNL     1     148.627 168.517 185.048  0.00  0.00    +0.023 HD
ENDBRANCH  69  71
BRANCH  69  75
ATOM     75  C   UNL     1     146.305 170.777 186.394  0.00  0.00    -0.041 C 
ATOM     76  H   UNL     1     147.047 171.007 187.168  0.00  0.00    +0.027 HD
ATOM     77  H   UNL     1     146.312 171.645 185.721  0.00  0.00    +0.027 HD
BRANCH  75  78
ATOM     78  C   UNL     1     144.910 170.675 187.020  0.00  0.00    +0.007 C 
ATOM     79  H   UNL     1     144.730 169.677 187.417  0.00  0.00    +0.034 HD
ATOM     80  H   UNL     1     144.127 170.861 186.277  0.00  0.00    +0.034 HD
BRANCH  78  81
ATOM     81  C   UNL     1     144.716 171.718 188.111  0.00  0.00    +0.140 C 
ATOM     82  O   UNL     1     144.926 172.905 187.864  0.00  0.00    -0.297 OA
BRANCH  81  83
ATOM     83  C   UNL     1     144.133 171.257 189.454  0.00  0.00    +0.052 C 
ATOM     84  H   UNL     1     143.422 172.047 189.730  0.00  0.00    +0.041 HD
BRANCH  83  85
ATOM     85  C   UNL     1     143.320 169.968 189.342  0.00  0.00    -0.052 C 
ATOM     86  H   UNL     1     143.223 169.642 188.303  0.00  0.00    +0.024 HD
ATOM     87  H   UNL     1     142.308 170.113 189.732  0.00  0.00    +0.024 HD
ATOM     88  H   UNL     1     143.759 169.156 189.928  0.00  0.00    +0.024 HD
ENDBRANCH  83  85
BRANCH  83  89
ATOM     89  C   UNL     1     145.203 171.187 190.578  0.00  0.00    +0.118 C 
ATOM     90  H   UNL     1     144.948 170.400 191.300  0.00  0.00    +0.075 HD
BRANCH  89  91
ATOM     91  C   UNL     1     145.469 172.511 191.366  0.00  0.00    +0.014 C 
ATOM     92  H   UNL     1     145.553 172.247 192.422  0.00  0.00    +0.038 HD
BRANCH  91  93
ATOM     93  C   UNL     1     144.254 173.447 191.267  0.00  0.00    -0.056 C 
ATOM     94  H   UNL     1     143.384 173.031 191.789  0.00  0.00    +0.024 HD
ATOM     95  H   UNL     1     143.969 173.610 190.219  0.00  0.00    +0.024 HD
ATOM     96  H   UNL     1     144.470 174.427 191.702  0.00  0.00    +0.024 HD
ENDBRANCH  91  93
BRANCH  91  97
ATOM     97  C   UNL     1     146.687 173.264 190.899  0.00  0.00    -0.064 C 
ATOM     98  C   UNL     1     147.829 173.540 191.541  0.00  0.00    -0.010 C 
ATOM     99  H   UNL     1     146.635 173.592 189.859  0.00  0.00    +0.059 HD
ATOM    100  H   UNL     1     148.599 174.033 190.938  0.00  0.00    +0.078 HD
BRANCH  98 101
ATOM    101  N   UNL     1     148.276 173.321 192.832  0.00  0.00    -0.317 N 
BRANCH 101 102
ATOM    102  C   UNL     1     147.579 173.760 194.037  0.00  0.00    +0.002 C 
ATOM    103  H   UNL     1     147.962 173.239 194.923  0.00  0.00    +0.043 HD
ATOM    104  H   UNL     1     146.507 173.533 193.985  0.00  0.00    +0.043 HD
ATOM    105  H   UNL     1     147.681 174.840 194.169  0.00  0.00    +0.043 HD
ENDBRANCH 101 102
BRANCH 101 106
ATOM    106  C   UNL     1     149.534 172.636 193.081  0.00  0.00    +0.110 C 
ATOM    107  H   UNL     1     149.571 172.194 194.081  0.00  0.00    +0.077 HD
ATOM    108  H   UNL     1     150.388 173.314 192.984  0.00  0.00    +0.077 HD
BRANCH 106 109
ATOM    109  O   UNL     1     149.632 171.612 192.119  0.00  0.00    -0.377 OA
ATOM    110  H   UNL     1     149.806 170.841 192.685  0.00  0.00    +0.211 HD
ENDBRANCH 106 109
ENDBRANCH 101 106
ENDBRANCH  98 101
ENDBRANCH  91  97
ENDBRANCH  89  91
BRANCH  89 111
ATOM    111  O   UNL     1     146.475 170.846 189.945  0.00  0.00    -0.460 OA
BRANCH 111 112
ATOM    112  C   UNL     1     147.156 169.787 190.455  0.00  0.00    +0.304 C 
ATOM    113  O   UNL     1     147.489 169.649 191.622  0.00  0.00    -0.251 OA
BRANCH 112 114
ATOM    114  C   UNL     1     147.399 168.765 189.384  0.00  0.00    +0.033 C 
ATOM    115  H   UNL     1     147.152 169.174 188.398  0.00  0.00    +0.034 HD
ATOM    116  H   UNL     1     146.783 167.882 189.576  0.00  0.00    +0.034 HD
ATOM    117  H   UNL     1     148.459 168.494 189.377  0.00  0.00    +0.034 HD
ENDBRANCH 112 114
ENDBRANCH 111 112
ENDBRANCH  89 111
ENDBRANCH  83  89
ENDBRANCH  81  83
ENDBRANCH  78  81
ENDBRANCH  75  78
ENDBRANCH  69  75
ENDBRANCH  67  69
BRANCH  67 118
ATOM    118  O   UNL     1     147.141 170.223 183.259  0.00  0.00    -0.379 OA
BRANCH 118 119
ATOM    119  C   UNL     1     146.590 171.390 182.659  0.00  0.00    +0.037 C 
ATOM    120  H   UNL     1     146.944 172.260 183.220  0.00  0.00    +0.052 HD
ATOM    121  H   UNL     1     145.498 171.367 182.702  0.00  0.00    +0.052 HD
ATOM    122  H   UNL     1     146.920 171.498 181.627  0.00  0.00    +0.052 HD
ENDBRANCH 118 119
ENDBRANCH  67 118
ENDBRANCH  64  67
ENDBRANCH  13  64
BRANCH   8 123
ATOM    123  O   UNL     1     149.707 165.749 184.108  0.00  0.00    -0.391 OA
ATOM    124  H   UNL     1     150.648 165.828 183.872  0.00  0.00    +0.210 HD
ENDBRANCH   8 123
BRANCH  15 125
ATOM    125  O   UNL     1     144.717 164.295 185.523  0.00  0.00    -0.379 OA
BRANCH 125 126
ATOM    126  C   UNL     1     144.085 163.045 185.263  0.00  0.00    +0.037 C 
ATOM    127  H   UNL     1     143.005 163.107 185.434  0.00  0.00    +0.052 HD
ATOM    128  H   UNL     1     144.517 162.253 185.877  0.00  0.00    +0.052 HD
ATOM    129  H   UNL     1     144.249 162.796 184.214  0.00  0.00    +0.052 HD
ENDBRANCH 125 126
ENDBRANCH  15 125
TORSDOF 27
ENDMDL
MODEL 5
REMARK VINA RESULT:      -5.5      1.720      3.007
REMARK  Name = Ulapualide A_conf3
REMARK  27 active torsions:
REMARK  status: ('A' for Active; 'I' for Inactive)
REMARK    1  A    between atoms: C_1  and  C_2
REMARK    2  A    between atoms: C_9  and  O_63
REMARK    3  A    between atoms: C_14  and  C_38
REMARK    4  A    between atoms: C_15  and  C_37
REMARK    5  A    between atoms: C_16  and  O_35
REMARK    6  A    between atoms: O_35  and  C_36
REMARK    7  A    between atoms: C_38  and  C_39
REMARK    8  A    between atoms: C_39  and  C_40
REMARK    9  A    between atoms: C_39  and  O_61
REMARK   10  A    between atoms: C_40  and  C_41
REMARK   11  A    between atoms: C_40  and  C_42
REMARK   12  A    between atoms: C_42  and  C_43
REMARK   13  A    between atoms: C_43  and  C_44
REMARK   14  A    between atoms: C_44  and  C_46
REMARK   15  A    between atoms: C_46  and  C_47
REMARK   16  A    between atoms: C_46  and  C_48
REMARK   17  A    between atoms: C_48  and  C_49
REMARK   18  A    between atoms: C_48  and  O_57
REMARK   19  A    between atoms: C_49  and  C_50
REMARK   20  A    between atoms: C_49  and  C_51
REMARK   21  A    between atoms: C_52  and  N_53
REMARK   22  A    between atoms: N_53  and  C_54
REMARK   23  A    between atoms: N_53  and  C_55
REMARK   24  A    between atoms: C_55  and  O_56
REMARK   25  A    between atoms: O_57  and  C_58
REMARK   26  A    between atoms: C_58  and  C_60
REMARK   27  A    between atoms: O_61  and  C_62
REMARK                            x       y       z     vdW  Elec       q    Type
REMARK                         _______ _______ _______ _____ _____    ______ ____
ROOT
ATOM      1  C   UNL     1     143.105 170.077 187.097  0.00  0.00    +0.008 C 
ATOM      2  C   UNL     1     143.585 170.101 185.641  0.00  0.00    +0.014 C 
ATOM      3  C   UNL     1     144.977 169.516 185.454  0.00  0.00    +0.134 C 
ATOM      4  O   UNL     1     145.872 170.184 184.933  0.00  0.00    -0.297 OA
ATOM      5  C   UNL     1     145.169 168.066 185.864  0.00  0.00    +0.006 C 
ATOM      6  C   UNL     1     146.481 167.460 185.365  0.00  0.00    -0.044 C 
ATOM      7  C   UNL     1     146.494 165.949 185.602  0.00  0.00    -0.026 C 
ATOM      8  C   UNL     1     147.765 165.255 185.108  0.00  0.00    +0.065 C 
ATOM      9  C   UNL     1     149.060 165.693 185.783  0.00  0.00    +0.071 C 
ATOM     10  C   UNL     1     149.041 165.445 187.269  0.00  0.00    +0.310 C 
ATOM     11  O   UNL     1     148.537 166.200 188.088  0.00  0.00    -0.251 OA
ATOM     12  O   UNL     1     149.644 164.257 187.547  0.00  0.00    -0.461 OA
ATOM     13  C   UNL     1     149.831 163.904 188.935  0.00  0.00    +0.110 C 
ATOM     14  C   UNL     1     151.355 163.997 189.260  0.00  0.00    +0.020 C 
ATOM     15  C   UNL     1     151.956 165.438 189.157  0.00  0.00    +0.068 C 
ATOM     16  C   UNL     1     151.325 166.471 190.138  0.00  0.00    -0.008 C 
ATOM     17  C   UNL     1     152.211 166.723 191.335  0.00  0.00    -0.077 C 
ATOM     18  C   UNL     1     152.263 167.807 192.130  0.00  0.00    -0.003 C 
ATOM     19  C   UNL     1     151.434 168.958 192.039  0.00  0.00    +0.220 A 
ATOM     20  N   UNL     1     150.301 169.121 191.366  0.00  0.00    -0.205 NA
ATOM     21  C   UNL     1     149.896 170.408 191.634  0.00  0.00    +0.164 A 
ATOM     22  C   UNL     1     150.798 171.003 192.474  0.00  0.00    +0.125 A 
ATOM     23  O   UNL     1     151.773 170.103 192.748  0.00  0.00    -0.443 OA
ATOM     24  C   UNL     1     148.623 171.143 191.103  0.00  0.00    +0.250 A 
ATOM     25  N   UNL     1     147.694 170.613 190.326  0.00  0.00    -0.203 NA
ATOM     26  C   UNL     1     146.809 171.646 190.103  0.00  0.00    +0.164 A 
ATOM     27  C   UNL     1     147.228 172.767 190.770  0.00  0.00    +0.125 A 
ATOM     28  O   UNL     1     148.377 172.464 191.425  0.00  0.00    -0.442 OA
ATOM     29  C   UNL     1     145.513 171.614 189.230  0.00  0.00    +0.249 A 
ATOM     30  N   UNL     1     145.039 170.551 188.603  0.00  0.00    -0.212 NA
ATOM     31  C   UNL     1     143.912 171.001 187.952  0.00  0.00    +0.083 A 
ATOM     32  C   UNL     1     143.741 172.339 188.217  0.00  0.00    +0.116 A 
ATOM     33  O   UNL     1     144.742 172.742 189.039  0.00  0.00    -0.442 OA
ATOM     34  H   UNL     1     143.222 169.065 187.505  0.00  0.00    +0.037 HD
ATOM     35  H   UNL     1     143.592 171.126 185.253  0.00  0.00    +0.035 HD
ATOM     36  H   UNL     1     142.911 169.522 184.999  0.00  0.00    +0.035 HD
ATOM     37  H   UNL     1     144.326 167.503 185.448  0.00  0.00    +0.034 HD
ATOM     38  H   UNL     1     145.131 168.001 186.956  0.00  0.00    +0.034 HD
ATOM     39  H   UNL     1     147.316 167.944 185.881  0.00  0.00    +0.027 HD
ATOM     40  H   UNL     1     146.605 167.663 184.294  0.00  0.00    +0.027 HD
ATOM     41  H   UNL     1     145.637 165.499 185.083  0.00  0.00    +0.029 HD
ATOM     42  H   UNL     1     146.328 165.728 186.665  0.00  0.00    +0.029 HD
ATOM     43  H   UNL     1     147.859 165.437 184.030  0.00  0.00    +0.060 HD
ATOM     44  H   UNL     1     149.909 165.146 185.357  0.00  0.00    +0.040 HD
ATOM     45  H   UNL     1     149.269 166.754 185.616  0.00  0.00    +0.040 HD
ATOM     46  H   UNL     1     149.279 164.567 189.603  0.00  0.00    +0.074 HD
ATOM     47  H   UNL     1     151.874 163.406 188.490  0.00  0.00    +0.036 HD
ATOM     48  H   UNL     1     153.028 165.334 189.376  0.00  0.00    +0.060 HD
ATOM     49  H   UNL     1     151.124 167.409 189.612  0.00  0.00    +0.033 HD
ATOM     50  H   UNL     1     150.363 166.113 190.514  0.00  0.00    +0.033 HD
ATOM     51  H   UNL     1     152.906 165.925 191.588  0.00  0.00    +0.057 HD
ATOM     52  H   UNL     1     153.000 167.825 192.928  0.00  0.00    +0.067 HD
ATOM     53  H   UNL     1     150.888 171.974 192.936  0.00  0.00    +0.105 HD
ATOM     54  H   UNL     1     146.856 173.774 190.878  0.00  0.00    +0.105 HD
ATOM     55  H   UNL     1     143.027 173.095 187.921  0.00  0.00    +0.105 HD
ENDROOT
BRANCH   1  56
ATOM     56  C   UNL     1     141.607 170.392 187.159  0.00  0.00    -0.056 C 
ATOM     57  H   UNL     1     141.184 170.084 188.123  0.00  0.00    +0.024 HD
ATOM     58  H   UNL     1     141.051 169.873 186.370  0.00  0.00    +0.024 HD
ATOM     59  H   UNL     1     141.426 171.466 187.046  0.00  0.00    +0.024 HD
ENDBRANCH   1  56
BRANCH  14  60
ATOM     60  C   UNL     1     151.707 163.387 190.625  0.00  0.00    -0.057 C 
ATOM     61  H   UNL     1     150.813 163.055 191.160  0.00  0.00    +0.023 HD
ATOM     62  H   UNL     1     152.382 162.533 190.519  0.00  0.00    +0.023 HD
ATOM     63  H   UNL     1     152.236 164.113 191.253  0.00  0.00    +0.023 HD
ENDBRANCH  14  60
BRANCH  13  64
ATOM     64  C   UNL     1     149.261 162.479 189.078  0.00  0.00    +0.011 C 
ATOM     65  H   UNL     1     149.962 161.857 189.643  0.00  0.00    +0.033 HD
ATOM     66  H   UNL     1     149.142 162.050 188.074  0.00  0.00    +0.033 HD
BRANCH  64  67
ATOM     67  C   UNL     1     147.901 162.432 189.814  0.00  0.00    +0.064 C 
ATOM     68  H   UNL     1     147.768 163.346 190.409  0.00  0.00    +0.060 HD
BRANCH  67  69
ATOM     69  C   UNL     1     146.708 162.341 188.816  0.00  0.00    -0.017 C 
ATOM     70  H   UNL     1     147.153 162.096 187.841  0.00  0.00    +0.032 HD
BRANCH  69  71
ATOM     71  C   UNL     1     145.721 161.211 189.139  0.00  0.00    -0.060 C 
ATOM     72  H   UNL     1     146.257 160.271 189.315  0.00  0.00    +0.023 HD
ATOM     73  H   UNL     1     145.005 161.053 188.326  0.00  0.00    +0.023 HD
ATOM     74  H   UNL     1     145.155 161.426 190.050  0.00  0.00    +0.023 HD
ENDBRANCH  69  71
BRANCH  69  75
ATOM     75  C   UNL     1     145.976 163.696 188.628  0.00  0.00    -0.041 C 
ATOM     76  H   UNL     1     146.364 164.203 187.737  0.00  0.00    +0.027 HD
ATOM     77  H   UNL     1     144.925 163.476 188.400  0.00  0.00    +0.027 HD
BRANCH  75  78
ATOM     78  C   UNL     1     146.009 164.649 189.828  0.00  0.00    +0.007 C 
ATOM     79  H   UNL     1     146.872 165.311 189.780  0.00  0.00    +0.034 HD
ATOM     80  H   UNL     1     146.091 164.097 190.771  0.00  0.00    +0.034 HD
BRANCH  78  81
ATOM     81  C   UNL     1     144.727 165.463 189.923  0.00  0.00    +0.140 C 
ATOM     82  O   UNL     1     143.660 164.965 189.564  0.00  0.00    -0.297 OA
BRANCH  81  83
ATOM     83  C   UNL     1     144.795 166.842 190.593  0.00  0.00    +0.052 C 
ATOM     84  H   UNL     1     145.768 167.249 190.283  0.00  0.00    +0.041 HD
BRANCH  83  85
ATOM     85  C   UNL     1     143.738 167.814 190.070  0.00  0.00    -0.052 C 
ATOM     86  H   UNL     1     143.823 168.795 190.544  0.00  0.00    +0.024 HD
ATOM     87  H   UNL     1     142.731 167.440 190.279  0.00  0.00    +0.024 HD
ATOM     88  H   UNL     1     143.800 167.938 188.985  0.00  0.00    +0.024 HD
ENDBRANCH  83  85
BRANCH  83  89
ATOM     89  C   UNL     1     144.806 166.754 192.143  0.00  0.00    +0.118 C 
ATOM     90  H   UNL     1     144.635 167.747 192.583  0.00  0.00    +0.075 HD
BRANCH  89  91
ATOM     91  C   UNL     1     146.088 166.143 192.795  0.00  0.00    +0.014 C 
ATOM     92  H   UNL     1     146.309 165.214 192.266  0.00  0.00    +0.038 HD
BRANCH  91  93
ATOM     93  C   UNL     1     145.807 165.735 194.250  0.00  0.00    -0.056 C 
ATOM     94  H   UNL     1     145.362 166.561 194.819  0.00  0.00    +0.024 HD
ATOM     95  H   UNL     1     146.733 165.438 194.761  0.00  0.00    +0.024 HD
ATOM     96  H   UNL     1     145.121 164.885 194.300  0.00  0.00    +0.024 HD
ENDBRANCH  91  93
BRANCH  91  97
ATOM     97  C   UNL     1     147.278 167.067 192.783  0.00  0.00    -0.064 C 
ATOM     98  C   UNL     1     148.569 166.814 193.028  0.00  0.00    -0.010 C 
ATOM     99  H   UNL     1     147.043 168.090 192.483  0.00  0.00    +0.059 HD
ATOM    100  H   UNL     1     149.252 167.654 192.865  0.00  0.00    +0.078 HD
BRANCH  98 101
ATOM    101  N   UNL     1     149.261 165.688 193.439  0.00  0.00    -0.317 N 
BRANCH 101 102
ATOM    102  C   UNL     1     149.303 164.426 192.707  0.00  0.00    +0.002 C 
ATOM    103  H   UNL     1     148.322 163.934 192.715  0.00  0.00    +0.043 HD
ATOM    104  H   UNL     1     150.007 163.720 193.164  0.00  0.00    +0.043 HD
ATOM    105  H   UNL     1     149.625 164.591 191.675  0.00  0.00    +0.043 HD
ENDBRANCH 101 102
BRANCH 101 106
ATOM    106  C   UNL     1     149.999 165.681 194.691  0.00  0.00    +0.110 C 
ATOM    107  H   UNL     1     150.468 166.647 194.899  0.00  0.00    +0.077 HD
ATOM    108  H   UNL     1     150.788 164.921 194.689  0.00  0.00    +0.077 HD
BRANCH 106 109
ATOM    109  O   UNL     1     149.067 165.391 195.707  0.00  0.00    -0.377 OA
ATOM    110  H   UNL     1     148.985 164.426 195.615  0.00  0.00    +0.211 HD
ENDBRANCH 106 109
ENDBRANCH 101 106
ENDBRANCH  98 101
ENDBRANCH  91  97
ENDBRANCH  89  91
BRANCH  89 111
ATOM    111  O   UNL     1     143.708 165.874 192.535  0.00  0.00    -0.460 OA
BRANCH 111 112
ATOM    112  C   UNL     1     142.513 166.459 192.808  0.00  0.00    +0.304 C 
ATOM    113  O   UNL     1     141.458 166.226 192.237  0.00  0.00    -0.251 OA
BRANCH 112 114
ATOM    114  C   UNL     1     142.652 167.403 193.965  0.00  0.00    +0.033 C 
ATOM    115  H   UNL     1     141.679 167.831 194.232  0.00  0.00    +0.034 HD
ATOM    116  H   UNL     1     143.341 168.209 193.698  0.00  0.00    +0.034 HD
ATOM    117  H   UNL     1     143.026 166.856 194.836  0.00  0.00    +0.034 HD
ENDBRANCH 112 114
ENDBRANCH 111 112
ENDBRANCH  89 111
ENDBRANCH  83  89
ENDBRANCH  81  83
ENDBRANCH  78  81
ENDBRANCH  75  78
ENDBRANCH  69  75
ENDBRANCH  67  69
BRANCH  67 118
ATOM    118  O   UNL     1     147.897 161.273 190.659  0.00  0.00    -0.379 OA
BRANCH 118 119
ATOM    119  C   UNL     1     149.196 160.727 190.865  0.00  0.00    +0.037 C 
ATOM    120  H   UNL     1     149.386 160.700 191.942  0.00  0.00    +0.052 HD
ATOM    121  H   UNL     1     149.957 161.353 190.390  0.00  0.00    +0.052 HD
ATOM    122  H   UNL     1     149.262 159.708 190.485  0.00  0.00    +0.052 HD
ENDBRANCH 118 119
ENDBRANCH  67 118
ENDBRANCH  64  67
ENDBRANCH  13  64
BRANCH   8 123
ATOM    123  O   UNL     1     147.574 163.844 185.260  0.00  0.00    -0.391 OA
ATOM    124  H   UNL     1     146.673 163.699 185.600  0.00  0.00    +0.210 HD
ENDBRANCH   8 123
BRANCH  15 125
ATOM    125  O   UNL     1     151.877 165.872 187.788  0.00  0.00    -0.379 OA
BRANCH 125 126
ATOM    126  C   UNL     1     152.258 167.231 187.596  0.00  0.00    +0.037 C 
ATOM    127  H   UNL     1     153.325 167.374 187.800  0.00  0.00    +0.052 HD
ATOM    128  H   UNL     1     151.664 167.897 188.223  0.00  0.00    +0.052 HD
ATOM    129  H   UNL     1     152.075 167.488 186.551  0.00  0.00    +0.052 HD
ENDBRANCH 125 126
ENDBRANCH  15 125
TORSDOF 27
ENDMDL
MODEL 6
REMARK VINA RESULT:      -5.4      3.086      8.081
REMARK  Name = Ulapualide A_conf3
REMARK  27 active torsions:
REMARK  status: ('A' for Active; 'I' for Inactive)
REMARK    1  A    between atoms: C_1  and  C_2
REMARK    2  A    between atoms: C_9  and  O_63
REMARK    3  A    between atoms: C_14  and  C_38
REMARK    4  A    between atoms: C_15  and  C_37
REMARK    5  A    between atoms: C_16  and  O_35
REMARK    6  A    between atoms: O_35  and  C_36
REMARK    7  A    between atoms: C_38  and  C_39
REMARK    8  A    between atoms: C_39  and  C_40
REMARK    9  A    between atoms: C_39  and  O_61
REMARK   10  A    between atoms: C_40  and  C_41
REMARK   11  A    between atoms: C_40  and  C_42
REMARK   12  A    between atoms: C_42  and  C_43
REMARK   13  A    between atoms: C_43  and  C_44
REMARK   14  A    between atoms: C_44  and  C_46
REMARK   15  A    between atoms: C_46  and  C_47
REMARK   16  A    between atoms: C_46  and  C_48
REMARK   17  A    between atoms: C_48  and  C_49
REMARK   18  A    between atoms: C_48  and  O_57
REMARK   19  A    between atoms: C_49  and  C_50
REMARK   20  A    between atoms: C_49  and  C_51
REMARK   21  A    between atoms: C_52  and  N_53
REMARK   22  A    between atoms: N_53  and  C_54
REMARK   23  A    between atoms: N_53  and  C_55
REMARK   24  A    between atoms: C_55  and  O_56
REMARK   25  A    between atoms: O_57  and  C_58
REMARK   26  A    between atoms: C_58  and  C_60
REMARK   27  A    between atoms: O_61  and  C_62
REMARK                            x       y       z     vdW  Elec       q    Type
REMARK                         _______ _______ _______ _____ _____    ______ ____
ROOT
ATOM      1  C   UNL     1     154.374 165.235 188.507  0.00  0.00    +0.008 C 
ATOM      2  C   UNL     1     154.340 165.560 187.009  0.00  0.00    +0.014 C 
ATOM      3  C   UNL     1     153.010 165.230 186.349  0.00  0.00    +0.134 C 
ATOM      4  O   UNL     1     152.963 164.469 185.381  0.00  0.00    -0.297 OA
ATOM      5  C   UNL     1     151.782 165.942 186.892  0.00  0.00    +0.006 C 
ATOM      6  C   UNL     1     150.552 165.806 185.995  0.00  0.00    -0.044 C 
ATOM      7  C   UNL     1     149.438 166.738 186.474  0.00  0.00    -0.026 C 
ATOM      8  C   UNL     1     148.173 166.685 185.615  0.00  0.00    +0.065 C 
ATOM      9  C   UNL     1     147.462 165.337 185.571  0.00  0.00    +0.071 C 
ATOM     10  C   UNL     1     147.016 164.883 186.937  0.00  0.00    +0.310 C 
ATOM     11  O   UNL     1     147.735 164.308 187.741  0.00  0.00    -0.251 OA
ATOM     12  O   UNL     1     145.716 165.231 187.138  0.00  0.00    -0.461 OA
ATOM     13  C   UNL     1     145.074 164.771 188.348  0.00  0.00    +0.110 C 
ATOM     14  C   UNL     1     144.030 163.677 187.960  0.00  0.00    +0.020 C 
ATOM     15  C   UNL     1     144.649 162.376 187.347  0.00  0.00    +0.068 C 
ATOM     16  C   UNL     1     145.618 161.614 188.298  0.00  0.00    -0.008 C 
ATOM     17  C   UNL     1     144.958 160.409 188.927  0.00  0.00    -0.077 C 
ATOM     18  C   UNL     1     145.530 159.292 189.410  0.00  0.00    -0.003 C 
ATOM     19  C   UNL     1     146.924 159.022 189.478  0.00  0.00    +0.220 A 
ATOM     20  N   UNL     1     147.945 159.861 189.343  0.00  0.00    -0.205 NA
ATOM     21  C   UNL     1     149.074 159.095 189.521  0.00  0.00    +0.164 A 
ATOM     22  C   UNL     1     148.711 157.798 189.764  0.00  0.00    +0.125 A 
ATOM     23  O   UNL     1     147.358 157.732 189.749  0.00  0.00    -0.443 OA
ATOM     24  C   UNL     1     150.565 159.560 189.468  0.00  0.00    +0.250 A 
ATOM     25  N   UNL     1     150.981 160.801 189.280  0.00  0.00    -0.203 NA
ATOM     26  C   UNL     1     152.355 160.702 189.276  0.00  0.00    +0.164 A 
ATOM     27  C   UNL     1     152.726 159.398 189.481  0.00  0.00    +0.125 A 
ATOM     28  O   UNL     1     151.599 158.655 189.618  0.00  0.00    -0.442 OA
ATOM     29  C   UNL     1     153.391 161.855 189.071  0.00  0.00    +0.249 A 
ATOM     30  N   UNL     1     153.090 163.133 188.915  0.00  0.00    -0.212 NA
ATOM     31  C   UNL     1     154.304 163.760 188.745  0.00  0.00    +0.083 A 
ATOM     32  C   UNL     1     155.309 162.825 188.810  0.00  0.00    +0.116 A 
ATOM     33  O   UNL     1     154.747 161.610 189.030  0.00  0.00    -0.442 OA
ATOM     34  H   UNL     1     153.506 165.689 189.001  0.00  0.00    +0.037 HD
ATOM     35  H   UNL     1     155.129 165.016 186.476  0.00  0.00    +0.035 HD
ATOM     36  H   UNL     1     154.519 166.629 186.839  0.00  0.00    +0.035 HD
ATOM     37  H   UNL     1     152.046 167.001 186.991  0.00  0.00    +0.034 HD
ATOM     38  H   UNL     1     151.553 165.542 187.885  0.00  0.00    +0.034 HD
ATOM     39  H   UNL     1     150.219 164.763 186.001  0.00  0.00    +0.027 HD
ATOM     40  H   UNL     1     150.814 166.052 184.958  0.00  0.00    +0.027 HD
ATOM     41  H   UNL     1     149.810 167.772 186.467  0.00  0.00    +0.029 HD
ATOM     42  H   UNL     1     149.194 166.533 187.525  0.00  0.00    +0.029 HD
ATOM     43  H   UNL     1     148.442 166.966 184.588  0.00  0.00    +0.060 HD
ATOM     44  H   UNL     1     146.576 165.400 184.927  0.00  0.00    +0.040 HD
ATOM     45  H   UNL     1     148.094 164.555 185.141  0.00  0.00    +0.040 HD
ATOM     46  H   UNL     1     145.791 164.351 189.056  0.00  0.00    +0.074 HD
ATOM     47  H   UNL     1     143.407 164.111 187.164  0.00  0.00    +0.036 HD
ATOM     48  H   UNL     1     143.797 161.727 187.096  0.00  0.00    +0.060 HD
ATOM     49  H   UNL     1     146.514 161.309 187.750  0.00  0.00    +0.033 HD
ATOM     50  H   UNL     1     145.956 162.262 189.111  0.00  0.00    +0.033 HD
ATOM     51  H   UNL     1     143.873 160.445 188.996  0.00  0.00    +0.057 HD
ATOM     52  H   UNL     1     144.883 158.507 189.793  0.00  0.00    +0.067 HD
ATOM     53  H   UNL     1     149.243 156.879 189.958  0.00  0.00    +0.105 HD
ATOM     54  H   UNL     1     153.668 158.876 189.554  0.00  0.00    +0.105 HD
ATOM     55  H   UNL     1     156.386 162.848 188.720  0.00  0.00    +0.105 HD
ENDROOT
BRANCH   1  56
ATOM     56  C   UNL     1     155.611 165.867 189.152  0.00  0.00    -0.056 C 
ATOM     57  H   UNL     1     155.797 166.866 188.740  0.00  0.00    +0.024 HD
ATOM     58  H   UNL     1     156.510 165.264 188.981  0.00  0.00    +0.024 HD
ATOM     59  H   UNL     1     155.480 165.974 190.234  0.00  0.00    +0.024 HD
ENDBRANCH   1  56
BRANCH  14  60
ATOM     60  C   UNL     1     143.100 163.307 189.125  0.00  0.00    -0.057 C 
ATOM     61  H   UNL     1     142.048 163.429 188.853  0.00  0.00    +0.023 HD
ATOM     62  H   UNL     1     143.255 162.273 189.446  0.00  0.00    +0.023 HD
ATOM     63  H   UNL     1     143.305 163.929 190.003  0.00  0.00    +0.023 HD
ENDBRANCH  14  60
BRANCH  13  64
ATOM     64  C   UNL     1     144.439 166.026 188.980  0.00  0.00    +0.011 C 
ATOM     65  H   UNL     1     143.350 165.926 188.980  0.00  0.00    +0.033 HD
ATOM     66  H   UNL     1     144.712 166.898 188.370  0.00  0.00    +0.033 HD
BRANCH  64  67
ATOM     67  C   UNL     1     144.883 166.269 190.441  0.00  0.00    +0.064 C 
ATOM     68  H   UNL     1     144.387 165.549 191.107  0.00  0.00    +0.060 HD
BRANCH  67  69
ATOM     69  C   UNL     1     146.420 166.089 190.615  0.00  0.00    -0.017 C 
ATOM     70  H   UNL     1     146.687 165.208 190.012  0.00  0.00    +0.032 HD
BRANCH  69  71
ATOM     71  C   UNL     1     147.244 167.259 190.059  0.00  0.00    -0.060 C 
ATOM     72  H   UNL     1     146.635 167.871 189.384  0.00  0.00    +0.023 HD
ATOM     73  H   UNL     1     148.125 166.911 189.511  0.00  0.00    +0.023 HD
ATOM     74  H   UNL     1     147.586 167.920 190.861  0.00  0.00    +0.023 HD
ENDBRANCH  69  71
BRANCH  69  75
ATOM     75  C   UNL     1     146.826 165.752 192.074  0.00  0.00    -0.041 C 
ATOM     76  H   UNL     1     145.933 165.497 192.655  0.00  0.00    +0.027 HD
ATOM     77  H   UNL     1     147.425 164.831 192.047  0.00  0.00    +0.027 HD
BRANCH  75  78
ATOM     78  C   UNL     1     147.641 166.822 192.808  0.00  0.00    +0.007 C 
ATOM     79  H   UNL     1     147.022 167.367 193.520  0.00  0.00    +0.034 HD
ATOM     80  H   UNL     1     148.040 167.566 192.109  0.00  0.00    +0.034 HD
BRANCH  78  81
ATOM     81  C   UNL     1     148.844 166.215 193.514  0.00  0.00    +0.140 C 
ATOM     82  O   UNL     1     148.759 165.089 194.005  0.00  0.00    -0.297 OA
BRANCH  81  83
ATOM     83  C   UNL     1     150.170 166.986 193.473  0.00  0.00    +0.052 C 
ATOM     84  H   UNL     1     150.015 167.835 194.153  0.00  0.00    +0.041 HD
BRANCH  83  85
ATOM     85  C   UNL     1     151.343 166.189 194.044  0.00  0.00    -0.052 C 
ATOM     86  H   UNL     1     151.926 165.709 193.254  0.00  0.00    +0.024 HD
ATOM     87  H   UNL     1     150.986 165.398 194.709  0.00  0.00    +0.024 HD
ATOM     88  H   UNL     1     152.008 166.817 194.643  0.00  0.00    +0.024 HD
ENDBRANCH  83  85
BRANCH  83  89
ATOM     89  C   UNL     1     150.478 167.572 192.068  0.00  0.00    +0.118 C 
ATOM     90  H   UNL     1     149.544 167.823 191.546  0.00  0.00    +0.075 HD
BRANCH  89  91
ATOM     91  C   UNL     1     151.346 166.682 191.120  0.00  0.00    +0.014 C 
ATOM     92  H   UNL     1     151.937 166.016 191.752  0.00  0.00    +0.038 HD
BRANCH  91  93
ATOM     93  C   UNL     1     152.365 167.545 190.359  0.00  0.00    -0.056 C 
ATOM     94  H   UNL     1     152.153 168.615 190.479  0.00  0.00    +0.024 HD
ATOM     95  H   UNL     1     152.348 167.318 189.285  0.00  0.00    +0.024 HD
ATOM     96  H   UNL     1     153.384 167.364 190.714  0.00  0.00    +0.024 HD
ENDBRANCH  91  93
BRANCH  91  97
ATOM     97  C   UNL     1     150.542 165.899 190.114  0.00  0.00    -0.064 C 
ATOM     98  C   UNL     1     150.043 164.660 190.185  0.00  0.00    -0.010 C 
ATOM     99  H   UNL     1     150.298 166.458 189.209  0.00  0.00    +0.059 HD
ATOM    100  H   UNL     1     149.415 164.357 189.342  0.00  0.00    +0.078 HD
BRANCH  98 101
ATOM    101  N   UNL     1     150.133 163.647 191.124  0.00  0.00    -0.317 N 
BRANCH 101 102
ATOM    102  C   UNL     1     151.333 163.333 191.895  0.00  0.00    +0.002 C 
ATOM    103  H   UNL     1     151.770 164.241 192.327  0.00  0.00    +0.043 HD
ATOM    104  H   UNL     1     152.109 162.885 191.263  0.00  0.00    +0.043 HD
ATOM    105  H   UNL     1     151.102 162.619 192.690  0.00  0.00    +0.043 HD
ENDBRANCH 101 102
BRANCH 101 106
ATOM    106  C   UNL     1     149.000 162.777 191.395  0.00  0.00    +0.110 C 
ATOM    107  H   UNL     1     148.290 163.230 192.093  0.00  0.00    +0.077 HD
ATOM    108  H   UNL     1     149.321 161.819 191.819  0.00  0.00    +0.077 HD
BRANCH 106 109
ATOM    109  O   UNL     1     148.358 162.555 190.161  0.00  0.00    -0.377 OA
ATOM    110  H   UNL     1     148.986 162.970 189.546  0.00  0.00    +0.211 HD
ENDBRANCH 106 109
ENDBRANCH 101 106
ENDBRANCH  98 101
ENDBRANCH  91  97
ENDBRANCH  89  91
BRANCH  89 111
ATOM    111  O   UNL     1     151.246 168.798 192.268  0.00  0.00    -0.460 OA
BRANCH 111 112
ATOM    112  C   UNL     1     150.582 169.974 192.130  0.00  0.00    +0.304 C 
ATOM    113  O   UNL     1     150.977 171.066 192.512  0.00  0.00    -0.251 OA
BRANCH 112 114
ATOM    114  C   UNL     1     149.300 169.759 191.380  0.00  0.00    +0.033 C 
ATOM    115  H   UNL     1     148.492 169.490 192.070  0.00  0.00    +0.034 HD
ATOM    116  H   UNL     1     149.434 168.958 190.649  0.00  0.00    +0.034 HD
ATOM    117  H   UNL     1     149.014 170.688 190.878  0.00  0.00    +0.034 HD
ENDBRANCH 112 114
ENDBRANCH 111 112
ENDBRANCH  89 111
ENDBRANCH  83  89
ENDBRANCH  81  83
ENDBRANCH  78  81
ENDBRANCH  75  78
ENDBRANCH  69  75
ENDBRANCH  67  69
BRANCH  67 118
ATOM    118  O   UNL     1     144.524 167.614 190.793  0.00  0.00    -0.379 OA
BRANCH 118 119
ATOM    119  C   UNL     1     143.309 167.693 191.529  0.00  0.00    +0.037 C 
ATOM    120  H   UNL     1     142.871 166.692 191.572  0.00  0.00    +0.052 HD
ATOM    121  H   UNL     1     142.601 168.364 191.035  0.00  0.00    +0.052 HD
ATOM    122  H   UNL     1     143.486 168.028 192.551  0.00  0.00    +0.052 HD
ENDBRANCH 118 119
ENDBRANCH  67 118
ENDBRANCH  64  67
ENDBRANCH  13  64
BRANCH   8 123
ATOM    123  O   UNL     1     147.286 167.704 186.088  0.00  0.00    -0.391 OA
ATOM    124  H   UNL     1     146.385 167.335 186.100  0.00  0.00    +0.210 HD
ENDBRANCH   8 123
BRANCH  15 125
ATOM    125  O   UNL     1     145.269 162.709 186.093  0.00  0.00    -0.379 OA
BRANCH 125 126
ATOM    126  C   UNL     1     145.911 161.605 185.462  0.00  0.00    +0.037 C 
ATOM    127  H   UNL     1     146.546 161.062 186.169  0.00  0.00    +0.052 HD
ATOM    128  H   UNL     1     146.499 161.933 184.604  0.00  0.00    +0.052 HD
ATOM    129  H   UNL     1     145.137 160.923 185.107  0.00  0.00    +0.052 HD
ENDBRANCH 125 126
ENDBRANCH  15 125
TORSDOF 27
ENDMDL
MODEL 7
REMARK VINA RESULT:      -5.4      2.248      7.650
REMARK  Name = Ulapualide A_conf3
REMARK  27 active torsions:
REMARK  status: ('A' for Active; 'I' for Inactive)
REMARK    1  A    between atoms: C_1  and  C_2
REMARK    2  A    between atoms: C_9  and  O_63
REMARK    3  A    between atoms: C_14  and  C_38
REMARK    4  A    between atoms: C_15  and  C_37
REMARK    5  A    between atoms: C_16  and  O_35
REMARK    6  A    between atoms: O_35  and  C_36
REMARK    7  A    between atoms: C_38  and  C_39
REMARK    8  A    between atoms: C_39  and  C_40
REMARK    9  A    between atoms: C_39  and  O_61
REMARK   10  A    between atoms: C_40  and  C_41
REMARK   11  A    between atoms: C_40  and  C_42
REMARK   12  A    between atoms: C_42  and  C_43
REMARK   13  A    between atoms: C_43  and  C_44
REMARK   14  A    between atoms: C_44  and  C_46
REMARK   15  A    between atoms: C_46  and  C_47
REMARK   16  A    between atoms: C_46  and  C_48
REMARK   17  A    between atoms: C_48  and  C_49
REMARK   18  A    between atoms: C_48  and  O_57
REMARK   19  A    between atoms: C_49  and  C_50
REMARK   20  A    between atoms: C_49  and  C_51
REMARK   21  A    between atoms: C_52  and  N_53
REMARK   22  A    between atoms: N_53  and  C_54
REMARK   23  A    between atoms: N_53  and  C_55
REMARK   24  A    between atoms: C_55  and  O_56
REMARK   25  A    between atoms: O_57  and  C_58
REMARK   26  A    between atoms: C_58  and  C_60
REMARK   27  A    between atoms: O_61  and  C_62
REMARK                            x       y       z     vdW  Elec       q    Type
REMARK                         _______ _______ _______ _____ _____    ______ ____
ROOT
ATOM      1  C   UNL     1     152.052 166.862 187.380  0.00  0.00    +0.008 C 
ATOM      2  C   UNL     1     151.717 165.842 186.285  0.00  0.00    +0.014 C 
ATOM      3  C   UNL     1     150.229 165.557 186.158  0.00  0.00    +0.134 C 
ATOM      4  O   UNL     1     149.800 164.407 186.261  0.00  0.00    -0.297 OA
ATOM      5  C   UNL     1     149.333 166.739 185.825  0.00  0.00    +0.006 C 
ATOM      6  C   UNL     1     147.919 166.334 185.408  0.00  0.00    -0.044 C 
ATOM      7  C   UNL     1     147.159 167.542 184.859  0.00  0.00    -0.026 C 
ATOM      8  C   UNL     1     145.737 167.220 184.394  0.00  0.00    +0.065 C 
ATOM      9  C   UNL     1     144.789 166.713 185.475  0.00  0.00    +0.071 C 
ATOM     10  C   UNL     1     144.610 167.710 186.590  0.00  0.00    +0.310 C 
ATOM     11  O   UNL     1     145.377 167.834 187.534  0.00  0.00    -0.251 OA
ATOM     12  O   UNL     1     143.491 168.453 186.371  0.00  0.00    -0.461 OA
ATOM     13  C   UNL     1     143.087 169.383 187.400  0.00  0.00    +0.110 C 
ATOM     14  C   UNL     1     141.788 168.834 188.069  0.00  0.00    +0.020 C 
ATOM     15  C   UNL     1     141.973 167.483 188.838  0.00  0.00    +0.068 C 
ATOM     16  C   UNL     1     142.978 167.551 190.026  0.00  0.00    -0.008 C 
ATOM     17  C   UNL     1     142.269 167.639 191.357  0.00  0.00    -0.077 C 
ATOM     18  C   UNL     1     142.713 167.273 192.574  0.00  0.00    -0.003 C 
ATOM     19  C   UNL     1     144.002 166.756 192.878  0.00  0.00    +0.220 A 
ATOM     20  N   UNL     1     145.102 166.762 192.134  0.00  0.00    -0.205 NA
ATOM     21  C   UNL     1     146.069 166.160 192.905  0.00  0.00    +0.164 A 
ATOM     22  C   UNL     1     145.532 165.801 194.111  0.00  0.00    +0.125 A 
ATOM     23  O   UNL     1     144.229 166.174 194.118  0.00  0.00    -0.443 OA
ATOM     24  C   UNL     1     147.564 165.894 192.533  0.00  0.00    +0.250 A 
ATOM     25  N   UNL     1     148.154 166.253 191.406  0.00  0.00    -0.203 NA
ATOM     26  C   UNL     1     149.440 165.772 191.528  0.00  0.00    +0.164 A 
ATOM     27  C   UNL     1     149.588 165.150 192.740  0.00  0.00    +0.125 A 
ATOM     28  O   UNL     1     148.406 165.228 193.402  0.00  0.00    -0.442 OA
ATOM     29  C   UNL     1     150.598 165.880 190.483  0.00  0.00    +0.249 A 
ATOM     30  N   UNL     1     150.522 166.506 189.321  0.00  0.00    -0.212 NA
ATOM     31  C   UNL     1     151.757 166.316 188.740  0.00  0.00    +0.083 A 
ATOM     32  C   UNL     1     152.545 165.574 189.588  0.00  0.00    +0.116 A 
ATOM     33  O   UNL     1     151.829 165.300 190.706  0.00  0.00    -0.442 OA
ATOM     34  H   UNL     1     151.436 167.760 187.246  0.00  0.00    +0.037 HD
ATOM     35  H   UNL     1     152.231 164.892 186.471  0.00  0.00    +0.035 HD
ATOM     36  H   UNL     1     152.055 166.200 185.304  0.00  0.00    +0.035 HD
ATOM     37  H   UNL     1     149.814 167.280 185.003  0.00  0.00    +0.034 HD
ATOM     38  H   UNL     1     149.280 167.398 186.697  0.00  0.00    +0.034 HD
ATOM     39  H   UNL     1     147.402 165.906 186.273  0.00  0.00    +0.027 HD
ATOM     40  H   UNL     1     147.964 165.550 184.642  0.00  0.00    +0.027 HD
ATOM     41  H   UNL     1     147.712 167.952 184.004  0.00  0.00    +0.029 HD
ATOM     42  H   UNL     1     147.143 168.352 185.601  0.00  0.00    +0.029 HD
ATOM     43  H   UNL     1     145.798 166.461 183.604  0.00  0.00    +0.060 HD
ATOM     44  H   UNL     1     143.803 166.506 185.042  0.00  0.00    +0.040 HD
ATOM     45  H   UNL     1     145.133 165.770 185.911  0.00  0.00    +0.040 HD
ATOM     46  H   UNL     1     143.859 169.510 188.161  0.00  0.00    +0.074 HD
ATOM     47  H   UNL     1     141.086 168.614 187.251  0.00  0.00    +0.036 HD
ATOM     48  H   UNL     1     140.977 167.213 189.217  0.00  0.00    +0.060 HD
ATOM     49  H   UNL     1     143.636 166.678 190.006  0.00  0.00    +0.033 HD
ATOM     50  H   UNL     1     143.623 168.429 189.941  0.00  0.00    +0.033 HD
ATOM     51  H   UNL     1     141.262 168.049 191.333  0.00  0.00    +0.057 HD
ATOM     52  H   UNL     1     142.040 167.376 193.420  0.00  0.00    +0.067 HD
ATOM     53  H   UNL     1     145.905 165.317 195.002  0.00  0.00    +0.105 HD
ATOM     54  H   UNL     1     150.399 164.648 193.245  0.00  0.00    +0.105 HD
ATOM     55  H   UNL     1     153.551 165.180 189.551  0.00  0.00    +0.105 HD
ENDROOT
BRANCH   1  56
ATOM     56  C   UNL     1     153.508 167.318 187.243  0.00  0.00    -0.056 C 
ATOM     57  H   UNL     1     153.779 167.443 186.188  0.00  0.00    +0.024 HD
ATOM     58  H   UNL     1     154.203 166.594 187.682  0.00  0.00    +0.024 HD
ATOM     59  H   UNL     1     153.668 168.280 187.743  0.00  0.00    +0.024 HD
ENDBRANCH   1  56
BRANCH  14  60
ATOM     60  C   UNL     1     141.116 169.864 188.990  0.00  0.00    -0.057 C 
ATOM     61  H   UNL     1     140.965 169.464 189.997  0.00  0.00    +0.023 HD
ATOM     62  H   UNL     1     141.712 170.778 189.068  0.00  0.00    +0.023 HD
ATOM     63  H   UNL     1     140.143 170.171 188.591  0.00  0.00    +0.023 HD
ENDBRANCH  14  60
BRANCH  13  64
ATOM     64  C   UNL     1     142.882 170.731 186.679  0.00  0.00    +0.011 C 
ATOM     65  H   UNL     1     142.169 171.343 187.240  0.00  0.00    +0.033 HD
ATOM     66  H   UNL     1     142.465 170.532 185.683  0.00  0.00    +0.033 HD
BRANCH  64  67
ATOM     67  C   UNL     1     144.184 171.552 186.531  0.00  0.00    +0.064 C 
ATOM     68  H   UNL     1     144.651 171.340 185.559  0.00  0.00    +0.060 HD
BRANCH  67  69
ATOM     69  C   UNL     1     143.909 173.084 186.596  0.00  0.00    -0.017 C 
ATOM     70  H   UNL     1     144.825 173.534 187.008  0.00  0.00    +0.032 HD
BRANCH  69  71
ATOM     71  C   UNL     1     143.690 173.729 185.220  0.00  0.00    -0.060 C 
ATOM     72  H   UNL     1     143.373 174.772 185.330  0.00  0.00    +0.023 HD
ATOM     73  H   UNL     1     142.929 173.196 184.640  0.00  0.00    +0.023 HD
ATOM     74  H   UNL     1     144.614 173.740 184.635  0.00  0.00    +0.023 HD
ENDBRANCH  69  71
BRANCH  69  75
ATOM     75  C   UNL     1     142.769 173.450 187.582  0.00  0.00    -0.041 C 
ATOM     76  H   UNL     1     142.070 174.141 187.096  0.00  0.00    +0.027 HD
ATOM     77  H   UNL     1     142.188 172.537 187.771  0.00  0.00    +0.027 HD
BRANCH  75  78
ATOM     78  C   UNL     1     143.209 174.018 188.936  0.00  0.00    +0.007 C 
ATOM     79  H   UNL     1     143.082 175.100 188.968  0.00  0.00    +0.034 HD
ATOM     80  H   UNL     1     144.271 173.823 189.122  0.00  0.00    +0.034 HD
BRANCH  78  81
ATOM     81  C   UNL     1     142.451 173.366 190.083  0.00  0.00    +0.140 C 
ATOM     82  O   UNL     1     141.233 173.203 189.994  0.00  0.00    -0.297 OA
BRANCH  81  83
ATOM     83  C   UNL     1     143.262 172.813 191.262  0.00  0.00    +0.052 C 
ATOM     84  H   UNL     1     142.553 172.804 192.102  0.00  0.00    +0.041 HD
BRANCH  83  85
ATOM     85  C   UNL     1     143.702 171.363 191.058  0.00  0.00    -0.052 C 
ATOM     86  H   UNL     1     143.316 170.954 190.121  0.00  0.00    +0.024 HD
ATOM     87  H   UNL     1     143.329 170.728 191.867  0.00  0.00    +0.024 HD
ATOM     88  H   UNL     1     144.790 171.263 191.067  0.00  0.00    +0.024 HD
ENDBRANCH  83  85
BRANCH  83  89
ATOM     89  C   UNL     1     144.441 173.740 191.664  0.00  0.00    +0.118 C 
ATOM     90  H   UNL     1     144.599 174.511 190.897  0.00  0.00    +0.075 HD
BRANCH  89  91
ATOM     91  C   UNL     1     145.810 173.040 191.945  0.00  0.00    +0.014 C 
ATOM     92  H   UNL     1     145.596 171.997 192.188  0.00  0.00    +0.038 HD
BRANCH  91  93
ATOM     93  C   UNL     1     146.468 173.633 193.202  0.00  0.00    -0.056 C 
ATOM     94  H   UNL     1     145.729 173.818 193.991  0.00  0.00    +0.024 HD
ATOM     95  H   UNL     1     146.961 174.587 192.974  0.00  0.00    +0.024 HD
ATOM     96  H   UNL     1     147.230 172.961 193.607  0.00  0.00    +0.024 HD
ENDBRANCH  91  93
BRANCH  91  97
ATOM     97  C   UNL     1     146.791 173.139 190.805  0.00  0.00    -0.064 C 
ATOM     98  C   UNL     1     147.760 172.297 190.426  0.00  0.00    -0.010 C 
ATOM     99  H   UNL     1     146.649 174.017 190.172  0.00  0.00    +0.059 HD
ATOM    100  H   UNL     1     148.279 172.566 189.500  0.00  0.00    +0.078 HD
BRANCH  98 101
ATOM    101  N   UNL     1     148.259 171.117 190.948  0.00  0.00    -0.317 N 
BRANCH 101 102
ATOM    102  C   UNL     1     149.429 171.023 191.816  0.00  0.00    +0.002 C 
ATOM    103  H   UNL     1     149.137 171.047 192.873  0.00  0.00    +0.043 HD
ATOM    104  H   UNL     1     150.111 171.869 191.664  0.00  0.00    +0.043 HD
ATOM    105  H   UNL     1     149.989 170.108 191.608  0.00  0.00    +0.043 HD
ENDBRANCH 101 102
BRANCH 101 106
ATOM    106  C   UNL     1     147.641 169.840 190.633  0.00  0.00    +0.110 C 
ATOM    107  H   UNL     1     146.897 169.928 189.835  0.00  0.00    +0.077 HD
ATOM    108  H   UNL     1     147.144 169.407 191.507  0.00  0.00    +0.077 HD
BRANCH 106 109
ATOM    109  O   UNL     1     148.676 168.986 190.207  0.00  0.00    -0.377 OA
ATOM    110  H   UNL     1     148.216 168.129 190.187  0.00  0.00    +0.211 HD
ENDBRANCH 106 109
ENDBRANCH 101 106
ENDBRANCH  98 101
ENDBRANCH  91  97
ENDBRANCH  89  91
BRANCH  89 111
ATOM    111  O   UNL     1     144.070 174.395 192.916  0.00  0.00    -0.460 OA
BRANCH 111 112
ATOM    112  C   UNL     1     143.150 175.391 192.845  0.00  0.00    +0.304 C 
ATOM    113  O   UNL     1     143.132 176.288 192.016  0.00  0.00    -0.251 OA
BRANCH 112 114
ATOM    114  C   UNL     1     142.105 175.205 193.905  0.00  0.00    +0.033 C 
ATOM    115  H   UNL     1     141.435 174.378 193.645  0.00  0.00    +0.034 HD
ATOM    116  H   UNL     1     141.522 176.124 194.009  0.00  0.00    +0.034 HD
ATOM    117  H   UNL     1     142.591 174.954 194.852  0.00  0.00    +0.034 HD
ENDBRANCH 112 114
ENDBRANCH 111 112
ENDBRANCH  89 111
ENDBRANCH  83  89
ENDBRANCH  81  83
ENDBRANCH  78  81
ENDBRANCH  75  78
ENDBRANCH  69  75
ENDBRANCH  67  69
BRANCH  67 118
ATOM    118  O   UNL     1     145.061 171.185 187.606  0.00  0.00    -0.379 OA
BRANCH 118 119
ATOM    119  C   UNL     1     146.419 171.054 187.198  0.00  0.00    +0.037 C 
ATOM    120  H   UNL     1     146.545 171.594 186.256  0.00  0.00    +0.052 HD
ATOM    121  H   UNL     1     146.673 170.002 187.036  0.00  0.00    +0.052 HD
ATOM    122  H   UNL     1     147.096 171.491 187.931  0.00  0.00    +0.052 HD
ENDBRANCH 118 119
ENDBRANCH  67 118
ENDBRANCH  64  67
ENDBRANCH  13  64
BRANCH   8 123
ATOM    123  O   UNL     1     145.208 168.398 183.776  0.00  0.00    -0.391 OA
ATOM    124  H   UNL     1     145.943 169.021 183.640  0.00  0.00    +0.210 HD
ENDBRANCH   8 123
BRANCH  15 125
ATOM    125  O   UNL     1     142.321 166.459 187.890  0.00  0.00    -0.379 OA
BRANCH 125 126
ATOM    126  C   UNL     1     142.577 165.191 188.486  0.00  0.00    +0.037 C 
ATOM    127  H   UNL     1     141.790 164.926 189.200  0.00  0.00    +0.052 HD
ATOM    128  H   UNL     1     143.550 165.179 188.979  0.00  0.00    +0.052 HD
ATOM    129  H   UNL     1     142.584 164.441 187.694  0.00  0.00    +0.052 HD
ENDBRANCH 125 126
ENDBRANCH  15 125
TORSDOF 27
ENDMDL
MODEL 8
REMARK VINA RESULT:      -5.3      2.261      7.503
REMARK  Name = Ulapualide A_conf3
REMARK  27 active torsions:
REMARK  status: ('A' for Active; 'I' for Inactive)
REMARK    1  A    between atoms: C_1  and  C_2
REMARK    2  A    between atoms: C_9  and  O_63
REMARK    3  A    between atoms: C_14  and  C_38
REMARK    4  A    between atoms: C_15  and  C_37
REMARK    5  A    between atoms: C_16  and  O_35
REMARK    6  A    between atoms: O_35  and  C_36
REMARK    7  A    between atoms: C_38  and  C_39
REMARK    8  A    between atoms: C_39  and  C_40
REMARK    9  A    between atoms: C_39  and  O_61
REMARK   10  A    between atoms: C_40  and  C_41
REMARK   11  A    between atoms: C_40  and  C_42
REMARK   12  A    between atoms: C_42  and  C_43
REMARK   13  A    between atoms: C_43  and  C_44
REMARK   14  A    between atoms: C_44  and  C_46
REMARK   15  A    between atoms: C_46  and  C_47
REMARK   16  A    between atoms: C_46  and  C_48
REMARK   17  A    between atoms: C_48  and  C_49
REMARK   18  A    between atoms: C_48  and  O_57
REMARK   19  A    between atoms: C_49  and  C_50
REMARK   20  A    between atoms: C_49  and  C_51
REMARK   21  A    between atoms: C_52  and  N_53
REMARK   22  A    between atoms: N_53  and  C_54
REMARK   23  A    between atoms: N_53  and  C_55
REMARK   24  A    between atoms: C_55  and  O_56
REMARK   25  A    between atoms: O_57  and  C_58
REMARK   26  A    between atoms: C_58  and  C_60
REMARK   27  A    between atoms: O_61  and  C_62
REMARK                            x       y       z     vdW  Elec       q    Type
REMARK                         _______ _______ _______ _____ _____    ______ ____
ROOT
ATOM      1  C   UNL     1     151.497 167.590 192.551  0.00  0.00    +0.008 C 
ATOM      2  C   UNL     1     152.190 168.954 192.651  0.00  0.00    +0.014 C 
ATOM      3  C   UNL     1     151.482 170.051 191.870  0.00  0.00    +0.134 C 
ATOM      4  O   UNL     1     152.082 170.691 191.006  0.00  0.00    -0.297 OA
ATOM      5  C   UNL     1     150.047 170.355 192.268  0.00  0.00    +0.006 C 
ATOM      6  C   UNL     1     149.511 171.655 191.669  0.00  0.00    -0.044 C 
ATOM      7  C   UNL     1     148.166 172.017 192.299  0.00  0.00    -0.026 C 
ATOM      8  C   UNL     1     147.566 173.323 191.774  0.00  0.00    +0.065 C 
ATOM      9  C   UNL     1     147.235 173.344 190.286  0.00  0.00    +0.071 C 
ATOM     10  C   UNL     1     146.232 172.284 189.910  0.00  0.00    +0.310 C 
ATOM     11  O   UNL     1     146.516 171.118 189.676  0.00  0.00    -0.251 OA
ATOM     12  O   UNL     1     144.980 172.816 189.896  0.00  0.00    -0.461 OA
ATOM     13  C   UNL     1     143.895 171.978 189.438  0.00  0.00    +0.110 C 
ATOM     14  C   UNL     1     143.421 172.512 188.050  0.00  0.00    +0.020 C 
ATOM     15  C   UNL     1     144.487 172.400 186.910  0.00  0.00    +0.068 C 
ATOM     16  C   UNL     1     144.937 170.944 186.590  0.00  0.00    -0.008 C 
ATOM     17  C   UNL     1     144.273 170.411 185.342  0.00  0.00    -0.077 C 
ATOM     18  C   UNL     1     144.697 169.445 184.509  0.00  0.00    -0.003 C 
ATOM     19  C   UNL     1     145.874 168.661 184.659  0.00  0.00    +0.220 A 
ATOM     20  N   UNL     1     146.648 168.513 185.729  0.00  0.00    -0.205 NA
ATOM     21  C   UNL     1     147.635 167.633 185.348  0.00  0.00    +0.164 A 
ATOM     22  C   UNL     1     147.435 167.261 184.046  0.00  0.00    +0.125 A 
ATOM     23  O   UNL     1     146.325 167.893 183.595  0.00  0.00    -0.443 OA
ATOM     24  C   UNL     1     148.825 167.096 186.207  0.00  0.00    +0.250 A 
ATOM     25  N   UNL     1     149.049 167.382 187.478  0.00  0.00    -0.203 NA
ATOM     26  C   UNL     1     150.216 166.713 187.776  0.00  0.00    +0.164 A 
ATOM     27  C   UNL     1     150.651 166.027 186.672  0.00  0.00    +0.125 A 
ATOM     28  O   UNL     1     149.770 166.249 185.663  0.00  0.00    -0.442 OA
ATOM     29  C   UNL     1     150.983 166.699 189.138  0.00  0.00    +0.249 A 
ATOM     30  N   UNL     1     150.585 167.304 190.245  0.00  0.00    -0.212 NA
ATOM     31  C   UNL     1     151.577 167.039 191.164  0.00  0.00    +0.083 A 
ATOM     32  C   UNL     1     152.548 166.268 190.571  0.00  0.00    +0.116 A 
ATOM     33  O   UNL     1     152.180 166.031 189.287  0.00  0.00    -0.442 OA
ATOM     34  H   UNL     1     150.433 167.700 192.801  0.00  0.00    +0.037 HD
ATOM     35  H   UNL     1     153.223 168.891 192.288  0.00  0.00    +0.035 HD
ATOM     36  H   UNL     1     152.239 169.290 193.694  0.00  0.00    +0.035 HD
ATOM     37  H   UNL     1     150.028 170.423 193.361  0.00  0.00    +0.034 HD
ATOM     38  H   UNL     1     149.410 169.521 191.955  0.00  0.00    +0.034 HD
ATOM     39  H   UNL     1     149.415 171.535 190.585  0.00  0.00    +0.027 HD
ATOM     40  H   UNL     1     150.227 172.470 191.838  0.00  0.00    +0.027 HD
ATOM     41  H   UNL     1     148.296 172.117 193.385  0.00  0.00    +0.029 HD
ATOM     42  H   UNL     1     147.451 171.193 192.175  0.00  0.00    +0.029 HD
ATOM     43  H   UNL     1     148.276 174.135 191.980  0.00  0.00    +0.060 HD
ATOM     44  H   UNL     1     146.819 174.320 190.007  0.00  0.00    +0.040 HD
ATOM     45  H   UNL     1     148.126 173.206 189.666  0.00  0.00    +0.040 HD
ATOM     46  H   UNL     1     144.201 170.935 189.338  0.00  0.00    +0.074 HD
ATOM     47  H   UNL     1     143.238 173.590 188.178  0.00  0.00    +0.036 HD
ATOM     48  H   UNL     1     144.022 172.844 186.017  0.00  0.00    +0.060 HD
ATOM     49  H   UNL     1     146.025 170.906 186.483  0.00  0.00    +0.033 HD
ATOM     50  H   UNL     1     144.681 170.268 187.409  0.00  0.00    +0.033 HD
ATOM     51  H   UNL     1     143.324 170.873 185.076  0.00  0.00    +0.057 HD
ATOM     52  H   UNL     1     144.098 169.222 183.631  0.00  0.00    +0.067 HD
ATOM     53  H   UNL     1     147.942 166.609 183.350  0.00  0.00    +0.105 HD
ATOM     54  H   UNL     1     151.492 165.387 186.454  0.00  0.00    +0.105 HD
ATOM     55  H   UNL     1     153.491 165.844 190.888  0.00  0.00    +0.105 HD
ENDROOT
BRANCH   1  56
ATOM     56  C   UNL     1     152.082 166.628 193.591  0.00  0.00    -0.056 C 
ATOM     57  H   UNL     1     153.053 166.242 193.259  0.00  0.00    +0.024 HD
ATOM     58  H   UNL     1     151.423 165.770 193.765  0.00  0.00    +0.024 HD
ATOM     59  H   UNL     1     152.236 167.132 194.550  0.00  0.00    +0.024 HD
ENDBRANCH   1  56
BRANCH  14  60
ATOM     60  C   UNL     1     142.103 171.871 187.588  0.00  0.00    -0.057 C 
ATOM     61  H   UNL     1     141.276 172.586 187.621  0.00  0.00    +0.023 HD
ATOM     62  H   UNL     1     142.184 171.484 186.569  0.00  0.00    +0.023 HD
ATOM     63  H   UNL     1     141.844 171.013 188.217  0.00  0.00    +0.023 HD
ENDBRANCH  14  60
BRANCH  13  64
ATOM     64  C   UNL     1     142.814 172.070 190.532  0.00  0.00    +0.011 C 
ATOM     65  H   UNL     1     142.415 173.088 190.569  0.00  0.00    +0.033 HD
ATOM     66  H   UNL     1     143.277 171.839 191.500  0.00  0.00    +0.033 HD
BRANCH  64  67
ATOM     67  C   UNL     1     141.621 171.113 190.299  0.00  0.00    +0.064 C 
ATOM     68  H   UNL     1     141.306 171.158 189.247  0.00  0.00    +0.060 HD
BRANCH  67  69
ATOM     69  C   UNL     1     141.998 169.635 190.614  0.00  0.00    -0.017 C 
ATOM     70  H   UNL     1     141.352 169.335 191.453  0.00  0.00    +0.032 HD
BRANCH  69  71
ATOM     71  C   UNL     1     141.695 168.664 189.464  0.00  0.00    -0.060 C 
ATOM     72  H   UNL     1     141.934 167.635 189.757  0.00  0.00    +0.023 HD
ATOM     73  H   UNL     1     142.269 168.909 188.564  0.00  0.00    +0.023 HD
ATOM     74  H   UNL     1     140.634 168.679 189.201  0.00  0.00    +0.023 HD
ENDBRANCH  69  71
BRANCH  69  75
ATOM     75  C   UNL     1     143.457 169.480 191.118  0.00  0.00    -0.041 C 
ATOM     76  H   UNL     1     143.961 170.454 191.093  0.00  0.00    +0.027 HD
ATOM     77  H   UNL     1     143.413 169.205 192.180  0.00  0.00    +0.027 HD
BRANCH  75  78
ATOM     78  C   UNL     1     144.309 168.432 190.393  0.00  0.00    +0.007 C 
ATOM     79  H   UNL     1     144.999 168.903 189.693  0.00  0.00    +0.034 HD
ATOM     80  H   UNL     1     143.685 167.750 189.806  0.00  0.00    +0.034 HD
BRANCH  78  81
ATOM     81  C   UNL     1     145.074 167.562 191.380  0.00  0.00    +0.140 C 
ATOM     82  O   UNL     1     144.471 167.007 192.299  0.00  0.00    -0.297 OA
BRANCH  81  83
ATOM     83  C   UNL     1     146.563 167.305 191.112  0.00  0.00    +0.052 C 
ATOM     84  H   UNL     1     146.648 167.304 190.017  0.00  0.00    +0.041 HD
BRANCH  83  85
ATOM     85  C   UNL     1     147.464 168.434 191.610  0.00  0.00    -0.052 C 
ATOM     86  H   UNL     1     147.132 169.408 191.241  0.00  0.00    +0.024 HD
ATOM     87  H   UNL     1     148.492 168.290 191.264  0.00  0.00    +0.024 HD
ATOM     88  H   UNL     1     147.511 168.467 192.702  0.00  0.00    +0.024 HD
ENDBRANCH  83  85
BRANCH  83  89
ATOM     89  C   UNL     1     147.028 165.910 191.611  0.00  0.00    +0.118 C 
ATOM     90  H   UNL     1     146.167 165.234 191.713  0.00  0.00    +0.075 HD
BRANCH  89  91
ATOM     91  C   UNL     1     147.834 165.885 192.951  0.00  0.00    +0.014 C 
ATOM     92  H   UNL     1     148.332 166.851 193.047  0.00  0.00    +0.038 HD
BRANCH  91  93
ATOM     93  C   UNL     1     148.959 164.841 192.881  0.00  0.00    -0.056 C 
ATOM     94  H   UNL     1     149.934 165.287 193.112  0.00  0.00    +0.024 HD
ATOM     95  H   UNL     1     149.022 164.398 191.878  0.00  0.00    +0.024 HD
ATOM     96  H   UNL     1     148.788 164.023 193.587  0.00  0.00    +0.024 HD
ENDBRANCH  91  93
BRANCH  91  97
ATOM     97  C   UNL     1     146.989 165.590 194.164  0.00  0.00    -0.064 C 
ATOM     98  C   UNL     1     147.255 165.767 195.464  0.00  0.00    -0.010 C 
ATOM     99  H   UNL     1     145.990 165.217 193.930  0.00  0.00    +0.059 HD
ATOM    100  H   UNL     1     146.427 165.550 196.146  0.00  0.00    +0.078 HD
BRANCH  98 101
ATOM    101  N   UNL     1     148.372 166.191 196.161  0.00  0.00    -0.317 N 
BRANCH 101 102
ATOM    102  C   UNL     1     148.422 167.381 197.005  0.00  0.00    +0.002 C 
ATOM    103  H   UNL     1     147.645 168.099 196.718  0.00  0.00    +0.043 HD
ATOM    104  H   UNL     1     149.380 167.905 196.903  0.00  0.00    +0.043 HD
ATOM    105  H   UNL     1     148.305 167.110 198.058  0.00  0.00    +0.043 HD
ENDBRANCH 101 102
BRANCH 101 106
ATOM    106  C   UNL     1     149.628 165.464 196.073  0.00  0.00    +0.110 C 
ATOM    107  H   UNL     1     149.962 165.342 195.039  0.00  0.00    +0.077 HD
ATOM    108  H   UNL     1     149.547 164.467 196.518  0.00  0.00    +0.077 HD
BRANCH 106 109
ATOM    109  O   UNL     1     150.582 166.221 196.780  0.00  0.00    -0.377 OA
ATOM    110  H   UNL     1     150.271 166.107 197.695  0.00  0.00    +0.211 HD
ENDBRANCH 106 109
ENDBRANCH 101 106
ENDBRANCH  98 101
ENDBRANCH  91  97
ENDBRANCH  89  91
BRANCH  89 111
ATOM    111  O   UNL     1     147.932 165.367 190.600  0.00  0.00    -0.460 OA
BRANCH 111 112
ATOM    112  C   UNL     1     147.376 164.627 189.606  0.00  0.00    +0.304 C 
ATOM    113  O   UNL     1     146.836 165.071 188.604  0.00  0.00    -0.251 OA
BRANCH 112 114
ATOM    114  C   UNL     1     147.567 163.165 189.880  0.00  0.00    +0.033 C 
ATOM    115  H   UNL     1     147.866 162.638 188.967  0.00  0.00    +0.034 HD
ATOM    116  H   UNL     1     146.633 162.738 190.256  0.00  0.00    +0.034 HD
ATOM    117  H   UNL     1     148.366 163.037 190.616  0.00  0.00    +0.034 HD
ENDBRANCH 112 114
ENDBRANCH 111 112
ENDBRANCH  89 111
ENDBRANCH  83  89
ENDBRANCH  81  83
ENDBRANCH  78  81
ENDBRANCH  75  78
ENDBRANCH  69  75
ENDBRANCH  67  69
BRANCH  67 118
ATOM    118  O   UNL     1     140.552 171.522 191.165  0.00  0.00    -0.379 OA
BRANCH 118 119
ATOM    119  C   UNL     1     140.915 172.588 192.035  0.00  0.00    +0.037 C 
ATOM    120  H   UNL     1     141.589 173.256 191.491  0.00  0.00    +0.052 HD
ATOM    121  H   UNL     1     141.436 172.206 192.917  0.00  0.00    +0.052 HD
ATOM    122  H   UNL     1     140.042 173.165 192.340  0.00  0.00    +0.052 HD
ENDBRANCH 118 119
ENDBRANCH  67 118
ENDBRANCH  64  67
ENDBRANCH  13  64
BRANCH   8 123
ATOM    123  O   UNL     1     146.398 173.606 192.551  0.00  0.00    -0.391 OA
ATOM    124  H   UNL     1     146.686 174.004 193.391  0.00  0.00    +0.210 HD
ENDBRANCH   8 123
BRANCH  15 125
ATOM    125  O   UNL     1     145.599 173.252 187.235  0.00  0.00    -0.379 OA
BRANCH 125 126
ATOM    126  C   UNL     1     146.082 174.010 186.130  0.00  0.00    +0.037 C 
ATOM    127  H   UNL     1     145.792 173.550 185.180  0.00  0.00    +0.052 HD
ATOM    128  H   UNL     1     147.166 174.124 186.177  0.00  0.00    +0.052 HD
ATOM    129  H   UNL     1     145.630 175.002 186.178  0.00  0.00    +0.052 HD
ENDBRANCH 125 126
ENDBRANCH  15 125
TORSDOF 27
ENDMDL
MODEL 9
REMARK VINA RESULT:      -5.3      2.316      7.543
REMARK  Name = Ulapualide A_conf3
REMARK  27 active torsions:
REMARK  status: ('A' for Active; 'I' for Inactive)
REMARK    1  A    between atoms: C_1  and  C_2
REMARK    2  A    between atoms: C_9  and  O_63
REMARK    3  A    between atoms: C_14  and  C_38
REMARK    4  A    between atoms: C_15  and  C_37
REMARK    5  A    between atoms: C_16  and  O_35
REMARK    6  A    between atoms: O_35  and  C_36
REMARK    7  A    between atoms: C_38  and  C_39
REMARK    8  A    between atoms: C_39  and  C_40
REMARK    9  A    between atoms: C_39  and  O_61
REMARK   10  A    between atoms: C_40  and  C_41
REMARK   11  A    between atoms: C_40  and  C_42
REMARK   12  A    between atoms: C_42  and  C_43
REMARK   13  A    between atoms: C_43  and  C_44
REMARK   14  A    between atoms: C_44  and  C_46
REMARK   15  A    between atoms: C_46  and  C_47
REMARK   16  A    between atoms: C_46  and  C_48
REMARK   17  A    between atoms: C_48  and  C_49
REMARK   18  A    between atoms: C_48  and  O_57
REMARK   19  A    between atoms: C_49  and  C_50
REMARK   20  A    between atoms: C_49  and  C_51
REMARK   21  A    between atoms: C_52  and  N_53
REMARK   22  A    between atoms: N_53  and  C_54
REMARK   23  A    between atoms: N_53  and  C_55
REMARK   24  A    between atoms: C_55  and  O_56
REMARK   25  A    between atoms: O_57  and  C_58
REMARK   26  A    between atoms: C_58  and  C_60
REMARK   27  A    between atoms: O_61  and  C_62
REMARK                            x       y       z     vdW  Elec       q    Type
REMARK                         _______ _______ _______ _____ _____    ______ ____
ROOT
ATOM      1  C   UNL     1     151.285 167.524 192.500  0.00  0.00    +0.008 C 
ATOM      2  C   UNL     1     152.006 168.872 192.615  0.00  0.00    +0.014 C 
ATOM      3  C   UNL     1     151.354 169.978 191.800  0.00  0.00    +0.134 C 
ATOM      4  O   UNL     1     152.001 170.597 190.954  0.00  0.00    -0.297 OA
ATOM      5  C   UNL     1     149.912 170.319 192.140  0.00  0.00    +0.006 C 
ATOM      6  C   UNL     1     149.431 171.626 191.511  0.00  0.00    -0.044 C 
ATOM      7  C   UNL     1     148.071 172.025 192.087  0.00  0.00    -0.026 C 
ATOM      8  C   UNL     1     147.523 173.340 191.528  0.00  0.00    +0.065 C 
ATOM      9  C   UNL     1     147.249 173.355 190.028  0.00  0.00    +0.071 C 
ATOM     10  C   UNL     1     146.237 172.316 189.623  0.00  0.00    +0.310 C 
ATOM     11  O   UNL     1     146.502 171.141 189.409  0.00  0.00    -0.251 OA
ATOM     12  O   UNL     1     144.999 172.877 189.556  0.00  0.00    -0.461 OA
ATOM     13  C   UNL     1     143.913 172.060 189.063  0.00  0.00    +0.110 C 
ATOM     14  C   UNL     1     143.504 172.594 187.654  0.00  0.00    +0.020 C 
ATOM     15  C   UNL     1     144.611 172.447 186.557  0.00  0.00    +0.068 C 
ATOM     16  C   UNL     1     145.038 170.978 186.266  0.00  0.00    -0.008 C 
ATOM     17  C   UNL     1     144.409 170.450 184.997  0.00  0.00    -0.077 C 
ATOM     18  C   UNL     1     144.843 169.467 184.188  0.00  0.00    -0.003 C 
ATOM     19  C   UNL     1     145.994 168.657 184.390  0.00  0.00    +0.220 A 
ATOM     20  N   UNL     1     146.723 168.500 185.489  0.00  0.00    -0.205 NA
ATOM     21  C   UNL     1     147.702 167.595 185.154  0.00  0.00    +0.164 A 
ATOM     22  C   UNL     1     147.544 167.216 183.848  0.00  0.00    +0.125 A 
ATOM     23  O   UNL     1     146.467 167.870 183.349  0.00  0.00    -0.443 OA
ATOM     24  C   UNL     1     148.846 167.038 186.062  0.00  0.00    +0.250 A 
ATOM     25  N   UNL     1     149.028 167.330 187.338  0.00  0.00    -0.203 NA
ATOM     26  C   UNL     1     150.167 166.636 187.686  0.00  0.00    +0.164 A 
ATOM     27  C   UNL     1     150.628 165.931 186.604  0.00  0.00    +0.125 A 
ATOM     28  O   UNL     1     149.791 166.164 185.561  0.00  0.00    -0.442 OA
ATOM     29  C   UNL     1     150.880 166.615 189.077  0.00  0.00    +0.249 A 
ATOM     30  N   UNL     1     150.456 167.239 190.163  0.00  0.00    -0.212 NA
ATOM     31  C   UNL     1     151.404 166.959 191.121  0.00  0.00    +0.083 A 
ATOM     32  C   UNL     1     152.380 166.161 190.571  0.00  0.00    +0.116 A 
ATOM     33  O   UNL     1     152.056 165.922 189.277  0.00  0.00    -0.442 OA
ATOM     34  H   UNL     1     150.216 167.661 192.708  0.00  0.00    +0.037 HD
ATOM     35  H   UNL     1     153.050 168.782 192.293  0.00  0.00    +0.035 HD
ATOM     36  H   UNL     1     152.023 169.216 193.657  0.00  0.00    +0.035 HD
ATOM     37  H   UNL     1     149.853 170.397 193.231  0.00  0.00    +0.034 HD
ATOM     38  H   UNL     1     149.269 169.498 191.809  0.00  0.00    +0.034 HD
ATOM     39  H   UNL     1     149.373 171.499 190.425  0.00  0.00    +0.027 HD
ATOM     40  H   UNL     1     150.158 172.425 191.701  0.00  0.00    +0.027 HD
ATOM     41  H   UNL     1     148.162 172.131 193.176  0.00  0.00    +0.029 HD
ATOM     42  H   UNL     1     147.343 171.216 191.941  0.00  0.00    +0.029 HD
ATOM     43  H   UNL     1     148.243 174.137 191.755  0.00  0.00    +0.060 HD
ATOM     44  H   UNL     1     146.867 174.338 189.727  0.00  0.00    +0.040 HD
ATOM     45  H   UNL     1     148.160 173.192 189.445  0.00  0.00    +0.040 HD
ATOM     46  H   UNL     1     144.197 171.010 188.983  0.00  0.00    +0.074 HD
ATOM     47  H   UNL     1     143.342 173.676 187.767  0.00  0.00    +0.036 HD
ATOM     48  H   UNL     1     144.191 172.893 185.644  0.00  0.00    +0.060 HD
ATOM     49  H   UNL     1     146.128 170.913 186.201  0.00  0.00    +0.033 HD
ATOM     50  H   UNL     1     144.735 170.315 187.080  0.00  0.00    +0.033 HD
ATOM     51  H   UNL     1     143.483 170.932 184.691  0.00  0.00    +0.057 HD
ATOM     52  H   UNL     1     144.272 169.250 183.290  0.00  0.00    +0.067 HD
ATOM     53  H   UNL     1     148.061 166.546 183.177  0.00  0.00    +0.105 HD
ATOM     54  H   UNL     1     151.461 165.270 186.424  0.00  0.00    +0.105 HD
ATOM     55  H   UNL     1     153.299 165.718 190.928  0.00  0.00    +0.105 HD
ENDROOT
BRANCH   1  56
ATOM     56  C   UNL     1     151.807 166.558 193.568  0.00  0.00    -0.056 C 
ATOM     57  H   UNL     1     152.549 167.050 194.208  0.00  0.00    +0.024 HD
ATOM     58  H   UNL     1     152.284 165.678 193.121  0.00  0.00    +0.024 HD
ATOM     59  H   UNL     1     150.994 166.207 194.213  0.00  0.00    +0.024 HD
ENDBRANCH   1  56
BRANCH  14  60
ATOM     60  C   UNL     1     142.191 171.979 187.148  0.00  0.00    -0.057 C 
ATOM     61  H   UNL     1     142.368 171.253 186.350  0.00  0.00    +0.023 HD
ATOM     62  H   UNL     1     141.647 171.480 187.955  0.00  0.00    +0.023 HD
ATOM     63  H   UNL     1     141.518 172.754 186.766  0.00  0.00    +0.023 HD
ENDBRANCH  14  60
BRANCH  13  64
ATOM     64  C   UNL     1     142.793 172.187 190.115  0.00  0.00    +0.011 C 
ATOM     65  H   UNL     1     142.185 173.071 189.899  0.00  0.00    +0.033 HD
ATOM     66  H   UNL     1     143.255 172.312 191.103  0.00  0.00    +0.033 HD
BRANCH  64  67
ATOM     67  C   UNL     1     141.843 170.967 190.150  0.00  0.00    +0.064 C 
ATOM     68  H   UNL     1     141.254 170.925 189.223  0.00  0.00    +0.060 HD
BRANCH  67  69
ATOM     69  C   UNL     1     142.629 169.627 190.268  0.00  0.00    -0.017 C 
ATOM     70  H   UNL     1     143.693 169.900 190.213  0.00  0.00    +0.032 HD
BRANCH  69  71
ATOM     71  C   UNL     1     142.433 168.916 191.615  0.00  0.00    -0.060 C 
ATOM     72  H   UNL     1     142.473 167.829 191.484  0.00  0.00    +0.023 HD
ATOM     73  H   UNL     1     141.473 169.174 192.074  0.00  0.00    +0.023 HD
ATOM     74  H   UNL     1     143.225 169.179 192.321  0.00  0.00    +0.023 HD
ENDBRANCH  69  71
BRANCH  69  75
ATOM     75  C   UNL     1     142.368 168.668 189.077  0.00  0.00    -0.041 C 
ATOM     76  H   UNL     1     141.571 167.963 189.340  0.00  0.00    +0.027 HD
ATOM     77  H   UNL     1     141.961 169.268 188.252  0.00  0.00    +0.027 HD
BRANCH  75  78
ATOM     78  C   UNL     1     143.588 167.905 188.550  0.00  0.00    +0.007 C 
ATOM     79  H   UNL     1     144.515 168.356 188.902  0.00  0.00    +0.034 HD
ATOM     80  H   UNL     1     143.627 167.927 187.455  0.00  0.00    +0.034 HD
BRANCH  78  81
ATOM     81  C   UNL     1     143.534 166.436 188.942  0.00  0.00    +0.140 C 
ATOM     82  O   UNL     1     142.506 165.975 189.439  0.00  0.00    -0.297 OA
BRANCH  81  83
ATOM     83  C   UNL     1     144.732 165.548 188.580  0.00  0.00    +0.052 C 
ATOM     84  H   UNL     1     144.344 164.523 188.653  0.00  0.00    +0.041 HD
BRANCH  83  85
ATOM     85  C   UNL     1     145.194 165.729 187.134  0.00  0.00    -0.052 C 
ATOM     86  H   UNL     1     144.727 165.000 186.467  0.00  0.00    +0.024 HD
ATOM     87  H   UNL     1     146.277 165.594 187.054  0.00  0.00    +0.024 HD
ATOM     88  H   UNL     1     144.983 166.735 186.762  0.00  0.00    +0.024 HD
ENDBRANCH  83  85
BRANCH  83  89
ATOM     89  C   UNL     1     145.899 165.673 189.596  0.00  0.00    +0.118 C 
ATOM     90  H   UNL     1     146.374 166.660 189.512  0.00  0.00    +0.075 HD
BRANCH  89  91
ATOM     91  C   UNL     1     147.014 164.581 189.511  0.00  0.00    +0.014 C 
ATOM     92  H   UNL     1     147.520 164.710 188.553  0.00  0.00    +0.038 HD
BRANCH  91  93
ATOM     93  C   UNL     1     146.388 163.178 189.467  0.00  0.00    -0.056 C 
ATOM     94  H   UNL     1     145.936 162.972 188.489  0.00  0.00    +0.024 HD
ATOM     95  H   UNL     1     145.603 163.074 190.227  0.00  0.00    +0.024 HD
ATOM     96  H   UNL     1     147.135 162.403 189.662  0.00  0.00    +0.024 HD
ENDBRANCH  91  93
BRANCH  91  97
ATOM     97  C   UNL     1     147.998 164.625 190.652  0.00  0.00    -0.064 C 
ATOM     98  C   UNL     1     149.099 163.896 190.870  0.00  0.00    -0.010 C 
ATOM     99  H   UNL     1     147.794 165.408 191.385  0.00  0.00    +0.059 HD
ATOM    100  H   UNL     1     149.692 164.190 191.741  0.00  0.00    +0.078 HD
BRANCH  98 101
ATOM    101  N   UNL     1     149.683 162.829 190.211  0.00  0.00    -0.317 N 
BRANCH 101 102
ATOM    102  C   UNL     1     150.413 162.930 188.950  0.00  0.00    +0.002 C 
ATOM    103  H   UNL     1     150.296 162.017 188.354  0.00  0.00    +0.043 HD
ATOM    104  H   UNL     1     151.489 163.054 189.119  0.00  0.00    +0.043 HD
ATOM    105  H   UNL     1     150.068 163.794 188.375  0.00  0.00    +0.043 HD
ENDBRANCH 101 102
BRANCH 101 106
ATOM    106  C   UNL     1     149.583 161.478 190.739  0.00  0.00    +0.110 C 
ATOM    107  H   UNL     1     150.565 161.021 190.892  0.00  0.00    +0.077 HD
ATOM    108  H   UNL     1     149.011 160.826 190.070  0.00  0.00    +0.077 HD
BRANCH 106 109
ATOM    109  O   UNL     1     148.922 161.579 191.979  0.00  0.00    -0.377 OA
ATOM    110  H   UNL     1     148.218 162.214 191.764  0.00  0.00    +0.211 HD
ENDBRANCH 106 109
ENDBRANCH 101 106
ENDBRANCH  98 101
ENDBRANCH  91  97
ENDBRANCH  89  91
BRANCH  89 111
ATOM    111  O   UNL     1     145.324 165.545 190.933  0.00  0.00    -0.460 OA
BRANCH 111 112
ATOM    112  C   UNL     1     145.437 166.615 191.761  0.00  0.00    +0.304 C 
ATOM    113  O   UNL     1     145.804 167.734 191.435  0.00  0.00    -0.251 OA
BRANCH 112 114
ATOM    114  C   UNL     1     144.987 166.248 193.145  0.00  0.00    +0.033 C 
ATOM    115  H   UNL     1     145.222 165.199 193.360  0.00  0.00    +0.034 HD
ATOM    116  H   UNL     1     143.909 166.403 193.232  0.00  0.00    +0.034 HD
ATOM    117  H   UNL     1     145.520 166.865 193.874  0.00  0.00    +0.034 HD
ENDBRANCH 112 114
ENDBRANCH 111 112
ENDBRANCH  89 111
ENDBRANCH  83  89
ENDBRANCH  81  83
ENDBRANCH  78  81
ENDBRANCH  75  78
ENDBRANCH  69  75
ENDBRANCH  67  69
BRANCH  67 118
ATOM    118  O   UNL     1     140.983 171.111 191.290  0.00  0.00    -0.379 OA
BRANCH 118 119
ATOM    119  C   UNL     1     139.643 171.441 190.941  0.00  0.00    +0.037 C 
ATOM    120  H   UNL     1     139.369 172.357 191.474  0.00  0.00    +0.052 HD
ATOM    121  H   UNL     1     138.958 170.643 191.240  0.00  0.00    +0.052 HD
ATOM    122  H   UNL     1     139.548 171.632 189.873  0.00  0.00    +0.052 HD
ENDBRANCH 118 119
ENDBRANCH  67 118
ENDBRANCH  64  67
ENDBRANCH  13  64
BRANCH   8 123
ATOM    123  O   UNL     1     146.333 173.656 192.258  0.00  0.00    -0.391 OA
ATOM    124  H   UNL     1     146.479 173.414 193.189  0.00  0.00    +0.210 HD
ENDBRANCH   8 123
BRANCH  15 125
ATOM    125  O   UNL     1     145.729 173.276 186.918  0.00  0.00    -0.379 OA
BRANCH 125 126
ATOM    126  C   UNL     1     146.102 174.206 185.907  0.00  0.00    +0.037 C 
ATOM    127  H   UNL     1     146.178 173.717 184.930  0.00  0.00    +0.052 HD
ATOM    128  H   UNL     1     147.044 174.698 186.155  0.00  0.00    +0.052 HD
ATOM    129  H   UNL     1     145.323 174.968 185.845  0.00  0.00    +0.052 HD
ENDBRANCH 125 126
ENDBRANCH  15 125
TORSDOF 27
ENDMDL
MODEL 10
REMARK VINA RESULT:      -5.3      4.985     10.781
REMARK  Name = Ulapualide A_conf3
REMARK  27 active torsions:
REMARK  status: ('A' for Active; 'I' for Inactive)
REMARK    1  A    between atoms: C_1  and  C_2
REMARK    2  A    between atoms: C_9  and  O_63
REMARK    3  A    between atoms: C_14  and  C_38
REMARK    4  A    between atoms: C_15  and  C_37
REMARK    5  A    between atoms: C_16  and  O_35
REMARK    6  A    between atoms: O_35  and  C_36
REMARK    7  A    between atoms: C_38  and  C_39
REMARK    8  A    between atoms: C_39  and  C_40
REMARK    9  A    between atoms: C_39  and  O_61
REMARK   10  A    between atoms: C_40  and  C_41
REMARK   11  A    between atoms: C_40  and  C_42
REMARK   12  A    between atoms: C_42  and  C_43
REMARK   13  A    between atoms: C_43  and  C_44
REMARK   14  A    between atoms: C_44  and  C_46
REMARK   15  A    between atoms: C_46  and  C_47
REMARK   16  A    between atoms: C_46  and  C_48
REMARK   17  A    between atoms: C_48  and  C_49
REMARK   18  A    between atoms: C_48  and  O_57
REMARK   19  A    between atoms: C_49  and  C_50
REMARK   20  A    between atoms: C_49  and  C_51
REMARK   21  A    between atoms: C_52  and  N_53
REMARK   22  A    between atoms: N_53  and  C_54
REMARK   23  A    between atoms: N_53  and  C_55
REMARK   24  A    between atoms: C_55  and  O_56
REMARK   25  A    between atoms: O_57  and  C_58
REMARK   26  A    between atoms: C_58  and  C_60
REMARK   27  A    between atoms: O_61  and  C_62
REMARK                            x       y       z     vdW  Elec       q    Type
REMARK                         _______ _______ _______ _____ _____    ______ ____
ROOT
ATOM      1  C   UNL     1     151.464 167.544 192.509  0.00  0.00    +0.008 C 
ATOM      2  C   UNL     1     152.161 168.906 192.607  0.00  0.00    +0.014 C 
ATOM      3  C   UNL     1     151.418 170.020 191.885  0.00  0.00    +0.134 C 
ATOM      4  O   UNL     1     151.978 170.680 191.008  0.00  0.00    -0.297 OA
ATOM      5  C   UNL     1     150.003 170.313 192.354  0.00  0.00    +0.006 C 
ATOM      6  C   UNL     1     149.440 171.626 191.809  0.00  0.00    -0.044 C 
ATOM      7  C   UNL     1     148.125 171.973 192.508  0.00  0.00    -0.026 C 
ATOM      8  C   UNL     1     147.501 173.289 192.039  0.00  0.00    +0.065 C 
ATOM      9  C   UNL     1     147.103 173.343 190.568  0.00  0.00    +0.071 C 
ATOM     10  C   UNL     1     146.085 172.290 190.215  0.00  0.00    +0.310 C 
ATOM     11  O   UNL     1     146.358 171.130 189.942  0.00  0.00    -0.251 OA
ATOM     12  O   UNL     1     144.833 172.821 190.269  0.00  0.00    -0.461 OA
ATOM     13  C   UNL     1     143.729 171.993 189.842  0.00  0.00    +0.110 C 
ATOM     14  C   UNL     1     143.192 172.557 188.489  0.00  0.00    +0.020 C 
ATOM     15  C   UNL     1     144.206 172.472 187.300  0.00  0.00    +0.068 C 
ATOM     16  C   UNL     1     144.641 171.024 186.927  0.00  0.00    -0.008 C 
ATOM     17  C   UNL     1     143.920 170.519 185.699  0.00  0.00    -0.077 C 
ATOM     18  C   UNL     1     144.307 169.571 184.826  0.00  0.00    -0.003 C 
ATOM     19  C   UNL     1     145.490 168.786 184.905  0.00  0.00    +0.220 A 
ATOM     20  N   UNL     1     146.311 168.614 185.935  0.00  0.00    -0.205 NA
ATOM     21  C   UNL     1     147.280 167.745 185.490  0.00  0.00    +0.164 A 
ATOM     22  C   UNL     1     147.022 167.402 184.191  0.00  0.00    +0.125 A 
ATOM     23  O   UNL     1     145.892 168.043 183.804  0.00  0.00    -0.443 OA
ATOM     24  C   UNL     1     148.508 167.190 186.282  0.00  0.00    +0.250 A 
ATOM     25  N   UNL     1     148.789 167.448 187.548  0.00  0.00    -0.203 NA
ATOM     26  C   UNL     1     149.969 166.773 187.777  0.00  0.00    +0.164 A 
ATOM     27  C   UNL     1     150.353 166.113 186.640  0.00  0.00    +0.125 A 
ATOM     28  O   UNL     1     149.428 166.356 185.677  0.00  0.00    -0.442 OA
ATOM     29  C   UNL     1     150.796 166.729 189.103  0.00  0.00    +0.249 A 
ATOM     30  N   UNL     1     150.449 167.309 190.240  0.00  0.00    -0.212 NA
ATOM     31  C   UNL     1     151.481 167.025 191.107  0.00  0.00    +0.083 A 
ATOM     32  C   UNL     1     152.425 166.269 190.453  0.00  0.00    +0.116 A 
ATOM     33  O   UNL     1     151.999 166.060 189.183  0.00  0.00    -0.442 OA
ATOM     34  H   UNL     1     150.413 167.647 192.809  0.00  0.00    +0.037 HD
ATOM     35  H   UNL     1     153.176 168.853 192.197  0.00  0.00    +0.035 HD
ATOM     36  H   UNL     1     152.257 169.220 193.654  0.00  0.00    +0.035 HD
ATOM     37  H   UNL     1     150.033 170.356 193.448  0.00  0.00    +0.034 HD
ATOM     38  H   UNL     1     149.353 169.486 192.051  0.00  0.00    +0.034 HD
ATOM     39  H   UNL     1     149.295 171.530 190.727  0.00  0.00    +0.027 HD
ATOM     40  H   UNL     1     150.162 172.437 191.964  0.00  0.00    +0.027 HD
ATOM     41  H   UNL     1     148.304 172.047 193.588  0.00  0.00    +0.029 HD
ATOM     42  H   UNL     1     147.405 171.150 192.397  0.00  0.00    +0.029 HD
ATOM     43  H   UNL     1     148.219 174.097 192.231  0.00  0.00    +0.060 HD
ATOM     44  H   UNL     1     146.675 174.324 190.331  0.00  0.00    +0.040 HD
ATOM     45  H   UNL     1     147.965 173.220 189.906  0.00  0.00    +0.040 HD
ATOM     46  H   UNL     1     144.029 170.952 189.705  0.00  0.00    +0.074 HD
ATOM     47  H   UNL     1     143.015 173.631 188.649  0.00  0.00    +0.036 HD
ATOM     48  H   UNL     1     143.701 172.935 186.440  0.00  0.00    +0.060 HD
ATOM     49  H   UNL     1     145.723 170.989 186.771  0.00  0.00    +0.033 HD
ATOM     50  H   UNL     1     144.423 170.329 187.742  0.00  0.00    +0.033 HD
ATOM     51  H   UNL     1     142.961 170.985 185.486  0.00  0.00    +0.057 HD
ATOM     52  H   UNL     1     143.668 169.368 183.971  0.00  0.00    +0.067 HD
ATOM     53  H   UNL     1     147.496 166.766 183.458  0.00  0.00    +0.105 HD
ATOM     54  H   UNL     1     151.184 165.479 186.370  0.00  0.00    +0.105 HD
ATOM     55  H   UNL     1     153.381 165.838 190.718  0.00  0.00    +0.105 HD
ENDROOT
BRANCH   1  56
ATOM     56  C   UNL     1     152.096 166.560 193.499  0.00  0.00    -0.056 C 
ATOM     57  H   UNL     1     153.186 166.540 193.384  0.00  0.00    +0.024 HD
ATOM     58  H   UNL     1     151.725 165.540 193.348  0.00  0.00    +0.024 HD
ATOM     59  H   UNL     1     151.877 166.847 194.532  0.00  0.00    +0.024 HD
ENDBRANCH   1  56
BRANCH  14  60
ATOM     60  C   UNL     1     141.855 171.926 188.074  0.00  0.00    -0.057 C 
ATOM     61  H   UNL     1     142.005 171.047 187.440  0.00  0.00    +0.023 HD
ATOM     62  H   UNL     1     141.268 171.625 188.946  0.00  0.00    +0.023 HD
ATOM     63  H   UNL     1     141.235 172.644 187.526  0.00  0.00    +0.023 HD
ENDBRANCH  14  60
BRANCH  13  64
ATOM     64  C   UNL     1     142.698 172.059 190.986  0.00  0.00    +0.011 C 
ATOM     65  H   UNL     1     143.140 171.659 191.903  0.00  0.00    +0.033 HD
ATOM     66  H   UNL     1     141.834 171.438 190.712  0.00  0.00    +0.033 HD
BRANCH  64  67
ATOM     67  C   UNL     1     142.213 173.495 191.293  0.00  0.00    +0.064 C 
ATOM     68  H   UNL     1     142.120 174.066 190.358  0.00  0.00    +0.060 HD
BRANCH  67  69
ATOM     69  C   UNL     1     140.817 173.497 191.985  0.00  0.00    -0.017 C 
ATOM     70  H   UNL     1     140.423 174.516 191.858  0.00  0.00    +0.032 HD
BRANCH  69  71
ATOM     71  C   UNL     1     139.802 172.554 191.325  0.00  0.00    -0.060 C 
ATOM     72  H   UNL     1     138.807 173.013 191.305  0.00  0.00    +0.023 HD
ATOM     73  H   UNL     1     139.731 171.598 191.855  0.00  0.00    +0.023 HD
ATOM     74  H   UNL     1     140.073 172.342 190.286  0.00  0.00    +0.023 HD
ENDBRANCH  69  71
BRANCH  69  75
ATOM     75  C   UNL     1     140.904 173.255 193.515  0.00  0.00    -0.041 C 
ATOM     76  H   UNL     1     140.662 172.209 193.737  0.00  0.00    +0.027 HD
ATOM     77  H   UNL     1     141.954 173.378 193.811  0.00  0.00    +0.027 HD
BRANCH  75  78
ATOM     78  C   UNL     1     140.055 174.184 194.390  0.00  0.00    +0.007 C 
ATOM     79  H   UNL     1     139.741 173.684 195.305  0.00  0.00    +0.034 HD
ATOM     80  H   UNL     1     139.139 174.491 193.872  0.00  0.00    +0.034 HD
BRANCH  78  81
ATOM     81  C   UNL     1     140.803 175.467 194.723  0.00  0.00    +0.140 C 
ATOM     82  O   UNL     1     141.962 175.408 195.134  0.00  0.00    -0.297 OA
BRANCH  81  83
ATOM     83  C   UNL     1     140.120 176.804 194.406  0.00  0.00    +0.052 C 
ATOM     84  H   UNL     1     140.850 177.565 194.714  0.00  0.00    +0.041 HD
BRANCH  83  85
ATOM     85  C   UNL     1     139.885 177.016 192.911  0.00  0.00    -0.052 C 
ATOM     86  H   UNL     1     139.612 176.083 192.410  0.00  0.00    +0.024 HD
ATOM     87  H   UNL     1     140.791 177.391 192.426  0.00  0.00    +0.024 HD
ATOM     88  H   UNL     1     139.106 177.759 192.722  0.00  0.00    +0.024 HD
ENDBRANCH  83  85
BRANCH  83  89
ATOM     89  C   UNL     1     138.834 177.033 195.248  0.00  0.00    +0.118 C 
ATOM     90  H   UNL     1     138.002 176.442 194.841  0.00  0.00    +0.075 HD
BRANCH  89  91
ATOM     91  C   UNL     1     138.358 178.515 195.399  0.00  0.00    +0.014 C 
ATOM     92  H   UNL     1     137.664 178.547 196.240  0.00  0.00    +0.038 HD
BRANCH  91  93
ATOM     93  C   UNL     1     137.542 178.943 194.169  0.00  0.00    -0.056 C 
ATOM     94  H   UNL     1     138.114 178.811 193.243  0.00  0.00    +0.024 HD
ATOM     95  H   UNL     1     137.253 180.000 194.237  0.00  0.00    +0.024 HD
ATOM     96  H   UNL     1     136.620 178.359 194.080  0.00  0.00    +0.024 HD
ENDBRANCH  91  93
BRANCH  91  97
ATOM     97  C   UNL     1     139.483 179.500 195.588  0.00  0.00    -0.064 C 
ATOM     98  C   UNL     1     139.994 180.020 196.710  0.00  0.00    -0.010 C 
ATOM     99  H   UNL     1     139.978 179.792 194.660  0.00  0.00    +0.059 HD
ATOM    100  H   UNL     1     140.876 180.654 196.574  0.00  0.00    +0.078 HD
BRANCH  98 101
ATOM    101  N   UNL     1     139.657 179.921 198.048  0.00  0.00    -0.317 N 
BRANCH 101 102
ATOM    102  C   UNL     1     138.620 180.712 198.704  0.00  0.00    +0.002 C 
ATOM    103  H   UNL     1     137.635 180.245 198.584  0.00  0.00    +0.043 HD
ATOM    104  H   UNL     1     138.542 181.714 198.265  0.00  0.00    +0.043 HD
ATOM    105  H   UNL     1     138.844 180.834 199.767  0.00  0.00    +0.043 HD
ENDBRANCH 101 102
BRANCH 101 106
ATOM    106  C   UNL     1     140.360 179.004 198.930  0.00  0.00    +0.110 C 
ATOM    107  H   UNL     1     139.791 178.087 199.111  0.00  0.00    +0.077 HD
ATOM    108  H   UNL     1     140.572 179.463 199.902  0.00  0.00    +0.077 HD
BRANCH 106 109
ATOM    109  O   UNL     1     141.571 178.677 198.289  0.00  0.00    -0.377 OA
ATOM    110  H   UNL     1     141.374 177.783 197.963  0.00  0.00    +0.211 HD
ENDBRANCH 106 109
ENDBRANCH 101 106
ENDBRANCH  98 101
ENDBRANCH  91  97
ENDBRANCH  89  91
BRANCH  89 111
ATOM    111  O   UNL     1     139.117 176.571 196.604  0.00  0.00    -0.460 OA
BRANCH 111 112
ATOM    112  C   UNL     1     138.053 176.228 197.376  0.00  0.00    +0.304 C 
ATOM    113  O   UNL     1     137.770 176.717 198.459  0.00  0.00    -0.251 OA
BRANCH 112 114
ATOM    114  C   UNL     1     137.224 175.189 196.680  0.00  0.00    +0.033 C 
ATOM    115  H   UNL     1     137.854 174.360 196.337  0.00  0.00    +0.034 HD
ATOM    116  H   UNL     1     136.718 175.639 195.822  0.00  0.00    +0.034 HD
ATOM    117  H   UNL     1     136.491 174.782 197.383  0.00  0.00    +0.034 HD
ENDBRANCH 112 114
ENDBRANCH 111 112
ENDBRANCH  89 111
ENDBRANCH  83  89
ENDBRANCH  81  83
ENDBRANCH  78  81
ENDBRANCH  75  78
ENDBRANCH  69  75
ENDBRANCH  67  69
BRANCH  67 118
ATOM    118  O   UNL     1     143.172 174.107 192.167  0.00  0.00    -0.379 OA
BRANCH 118 119
ATOM    119  C   UNL     1     143.356 175.495 191.911  0.00  0.00    +0.037 C 
ATOM    120  H   UNL     1     142.530 175.837 191.280  0.00  0.00    +0.052 HD
ATOM    121  H   UNL     1     144.297 175.669 191.382  0.00  0.00    +0.052 HD
ATOM    122  H   UNL     1     143.336 176.073 192.834  0.00  0.00    +0.052 HD
ENDBRANCH 118 119
ENDBRANCH  67 118
ENDBRANCH  64  67
ENDBRANCH  13  64
BRANCH   8 123
ATOM    123  O   UNL     1     146.370 173.553 192.875  0.00  0.00    -0.391 OA
ATOM    124  H   UNL     1     145.579 173.204 192.427  0.00  0.00    +0.210 HD
ENDBRANCH   8 123
BRANCH  15 125
ATOM    125  O   UNL     1     145.331 173.318 187.594  0.00  0.00    -0.379 OA
BRANCH 125 126
ATOM    126  C   UNL     1     146.082 173.692 186.443  0.00  0.00    +0.037 C 
ATOM    127  H   UNL     1     145.434 173.792 185.565  0.00  0.00    +0.052 HD
ATOM    128  H   UNL     1     146.876 172.971 186.242  0.00  0.00    +0.052 HD
ATOM    129  H   UNL     1     146.540 174.662 186.639  0.00  0.00    +0.052 HD
ENDBRANCH 125 126
ENDBRANCH  15 125
TORSDOF 27
ENDMDL
