MODEL 1
REMARK VINA RESULT:      -6.1      0.000      0.000
REMARK  Name = Ulapualide A_conf1
REMARK  27 active torsions:
REMARK  status: ('A' for Active; 'I' for Inactive)
REMARK    1  A    between atoms: C_1  and  C_2
REMARK    2  A    between atoms: C_9  and  O_63
REMARK    3  A    between atoms: C_14  and  C_38
REMARK    4  A    between atoms: C_15  and  C_37
REMARK    5  A    between atoms: C_16  and  O_35
REMARK    6  A    between atoms: O_35  and  C_36
REMARK    7  A    between atoms: C_38  and  C_39
REMARK    8  A    between atoms: C_39  and  C_40
REMARK    9  A    between atoms: C_39  and  O_61
REMARK   10  A    between atoms: C_40  and  C_41
REMARK   11  A    between atoms: C_40  and  C_42
REMARK   12  A    between atoms: C_42  and  C_43
REMARK   13  A    between atoms: C_43  and  C_44
REMARK   14  A    between atoms: C_44  and  C_46
REMARK   15  A    between atoms: C_46  and  C_47
REMARK   16  A    between atoms: C_46  and  C_48
REMARK   17  A    between atoms: C_48  and  C_49
REMARK   18  A    between atoms: C_48  and  O_57
REMARK   19  A    between atoms: C_49  and  C_50
REMARK   20  A    between atoms: C_49  and  C_51
REMARK   21  A    between atoms: C_52  and  N_53
REMARK   22  A    between atoms: N_53  and  C_54
REMARK   23  A    between atoms: N_53  and  C_55
REMARK   24  A    between atoms: C_55  and  O_56
REMARK   25  A    between atoms: O_57  and  C_58
REMARK   26  A    between atoms: C_58  and  C_60
REMARK   27  A    between atoms: O_61  and  C_62
REMARK                            x       y       z     vdW  Elec       q    Type
REMARK                         _______ _______ _______ _____ _____    ______ ____
ROOT
ATOM      1  C   UNL     1     151.302 165.660 187.642  0.00  0.00    +0.008 C 
ATOM      2  C   UNL     1     149.773 165.466 187.592  0.00  0.00    +0.014 C 
ATOM      3  C   UNL     1     149.323 164.898 186.261  0.00  0.00    +0.134 C 
ATOM      4  O   UNL     1     149.869 165.221 185.204  0.00  0.00    -0.297 OA
ATOM      5  C   UNL     1     148.175 163.909 186.258  0.00  0.00    +0.006 C 
ATOM      6  C   UNL     1     146.874 164.446 186.844  0.00  0.00    -0.044 C 
ATOM      7  C   UNL     1     146.366 165.719 186.151  0.00  0.00    -0.026 C 
ATOM      8  C   UNL     1     144.920 166.022 186.570  0.00  0.00    +0.065 C 
ATOM      9  C   UNL     1     144.527 167.468 186.277  0.00  0.00    +0.071 C 
ATOM     10  C   UNL     1     143.338 167.811 187.134  0.00  0.00    +0.310 C 
ATOM     11  O   UNL     1     142.236 167.288 187.011  0.00  0.00    -0.251 OA
ATOM     12  O   UNL     1     143.682 168.707 188.102  0.00  0.00    -0.461 OA
ATOM     13  C   UNL     1     142.754 168.837 189.206  0.00  0.00    +0.110 C 
ATOM     14  C   UNL     1     143.062 170.160 189.960  0.00  0.00    +0.020 C 
ATOM     15  C   UNL     1     143.011 171.379 188.988  0.00  0.00    +0.068 C 
ATOM     16  C   UNL     1     143.533 172.698 189.615  0.00  0.00    -0.008 C 
ATOM     17  C   UNL     1     144.903 172.536 190.204  0.00  0.00    -0.077 C 
ATOM     18  C   UNL     1     145.243 172.846 191.467  0.00  0.00    -0.003 C 
ATOM     19  C   UNL     1     146.536 172.506 191.956  0.00  0.00    +0.220 A 
ATOM     20  N   UNL     1     147.339 171.586 191.439  0.00  0.00    -0.205 NA
ATOM     21  C   UNL     1     148.466 171.603 192.221  0.00  0.00    +0.164 A 
ATOM     22  C   UNL     1     148.324 172.531 193.215  0.00  0.00    +0.125 A 
ATOM     23  O   UNL     1     147.089 173.095 193.082  0.00  0.00    -0.443 OA
ATOM     24  C   UNL     1     149.706 170.688 191.992  0.00  0.00    +0.250 A 
ATOM     25  N   UNL     1     149.734 169.736 191.076  0.00  0.00    -0.203 NA
ATOM     26  C   UNL     1     150.993 169.205 191.180  0.00  0.00    +0.164 A 
ATOM     27  C   UNL     1     151.691 169.849 192.173  0.00  0.00    +0.125 A 
ATOM     28  O   UNL     1     150.870 170.787 192.722  0.00  0.00    -0.442 OA
ATOM     29  C   UNL     1     151.556 168.053 190.294  0.00  0.00    +0.249 A 
ATOM     30  N   UNL     1     150.851 167.439 189.359  0.00  0.00    -0.212 NA
ATOM     31  C   UNL     1     151.717 166.523 188.804  0.00  0.00    +0.083 A 
ATOM     32  C   UNL     1     152.935 166.628 189.438  0.00  0.00    +0.116 A 
ATOM     33  O   UNL     1     152.844 167.590 190.396  0.00  0.00    -0.442 OA
ATOM     34  H   UNL     1     151.629 166.185 186.735  0.00  0.00    +0.037 HD
ATOM     35  H   UNL     1     149.453 164.801 188.402  0.00  0.00    +0.035 HD
ATOM     36  H   UNL     1     149.241 166.416 187.716  0.00  0.00    +0.035 HD
ATOM     37  H   UNL     1     148.008 163.583 185.225  0.00  0.00    +0.034 HD
ATOM     38  H   UNL     1     148.500 163.026 186.819  0.00  0.00    +0.034 HD
ATOM     39  H   UNL     1     146.118 163.653 186.768  0.00  0.00    +0.027 HD
ATOM     40  H   UNL     1     147.003 164.651 187.913  0.00  0.00    +0.027 HD
ATOM     41  H   UNL     1     146.419 165.590 185.064  0.00  0.00    +0.029 HD
ATOM     42  H   UNL     1     147.022 166.552 186.425  0.00  0.00    +0.029 HD
ATOM     43  H   UNL     1     144.793 165.785 187.629  0.00  0.00    +0.060 HD
ATOM     44  H   UNL     1     144.248 167.621 185.228  0.00  0.00    +0.040 HD
ATOM     45  H   UNL     1     145.342 168.159 186.514  0.00  0.00    +0.040 HD
ATOM     46  H   UNL     1     141.736 168.904 188.802  0.00  0.00    +0.074 HD
ATOM     47  H   UNL     1     144.087 170.091 190.339  0.00  0.00    +0.036 HD
ATOM     48  H   UNL     1     143.641 171.153 188.118  0.00  0.00    +0.060 HD
ATOM     49  H   UNL     1     142.817 173.076 190.354  0.00  0.00    +0.033 HD
ATOM     50  H   UNL     1     143.580 173.473 188.841  0.00  0.00    +0.033 HD
ATOM     51  H   UNL     1     145.643 172.069 189.550  0.00  0.00    +0.057 HD
ATOM     52  H   UNL     1     144.559 173.349 192.136  0.00  0.00    +0.067 HD
ATOM     53  H   UNL     1     148.922 172.862 194.049  0.00  0.00    +0.105 HD
ATOM     54  H   UNL     1     152.684 169.764 192.588  0.00  0.00    +0.105 HD
ATOM     55  H   UNL     1     153.894 166.143 189.333  0.00  0.00    +0.105 HD
ENDROOT
BRANCH   1  56
ATOM     56  C   UNL     1     152.004 164.295 187.672  0.00  0.00    -0.056 C 
ATOM     57  H   UNL     1     152.871 164.307 188.342  0.00  0.00    +0.024 HD
ATOM     58  H   UNL     1     152.370 164.015 186.681  0.00  0.00    +0.024 HD
ATOM     59  H   UNL     1     151.326 163.506 188.020  0.00  0.00    +0.024 HD
ENDBRANCH   1  56
BRANCH  14  60
ATOM     60  C   UNL     1     142.120 170.346 191.159  0.00  0.00    -0.057 C 
ATOM     61  H   UNL     1     141.093 170.534 190.834  0.00  0.00    +0.023 HD
ATOM     62  H   UNL     1     142.435 171.172 191.802  0.00  0.00    +0.023 HD
ATOM     63  H   UNL     1     142.112 169.452 191.790  0.00  0.00    +0.023 HD
ENDBRANCH  14  60
BRANCH  13  64
ATOM     64  C   UNL     1     142.852 167.573 190.098  0.00  0.00    +0.011 C 
ATOM     65  H   UNL     1     142.327 166.775 189.565  0.00  0.00    +0.033 HD
ATOM     66  H   UNL     1     142.294 167.737 191.026  0.00  0.00    +0.033 HD
BRANCH  64  67
ATOM     67  C   UNL     1     144.280 167.071 190.432  0.00  0.00    +0.064 C 
ATOM     68  H   UNL     1     145.004 167.710 189.911  0.00  0.00    +0.060 HD
BRANCH  67  69
ATOM     69  C   UNL     1     144.565 167.171 191.965  0.00  0.00    -0.017 C 
ATOM     70  H   UNL     1     144.938 168.186 192.161  0.00  0.00    +0.032 HD
BRANCH  69  71
ATOM     71  C   UNL     1     143.302 166.967 192.811  0.00  0.00    -0.060 C 
ATOM     72  H   UNL     1     143.395 167.438 193.795  0.00  0.00    +0.023 HD
ATOM     73  H   UNL     1     143.075 165.908 192.962  0.00  0.00    +0.023 HD
ATOM     74  H   UNL     1     142.424 167.384 192.314  0.00  0.00    +0.023 HD
ENDBRANCH  69  71
BRANCH  69  75
ATOM     75  C   UNL     1     145.679 166.173 192.374  0.00  0.00    -0.041 C 
ATOM     76  H   UNL     1     146.643 166.607 192.081  0.00  0.00    +0.027 HD
ATOM     77  H   UNL     1     145.577 165.234 191.818  0.00  0.00    +0.027 HD
BRANCH  75  78
ATOM     78  C   UNL     1     145.754 165.895 193.879  0.00  0.00    +0.007 C 
ATOM     79  H   UNL     1     145.257 166.708 194.417  0.00  0.00    +0.034 HD
ATOM     80  H   UNL     1     145.217 164.968 194.114  0.00  0.00    +0.034 HD
BRANCH  78  81
ATOM     81  C   UNL     1     147.167 165.815 194.449  0.00  0.00    +0.140 C 
ATOM     82  O   UNL     1     147.383 165.654 195.652  0.00  0.00    -0.297 OA
BRANCH  81  83
ATOM     83  C   UNL     1     148.302 165.947 193.442  0.00  0.00    +0.052 C 
ATOM     84  H   UNL     1     147.890 165.793 192.439  0.00  0.00    +0.041 HD
BRANCH  83  85
ATOM     85  C   UNL     1     148.841 167.380 193.504  0.00  0.00    -0.052 C 
ATOM     86  H   UNL     1     148.355 168.018 192.763  0.00  0.00    +0.024 HD
ATOM     87  H   UNL     1     148.672 167.830 194.486  0.00  0.00    +0.024 HD
ATOM     88  H   UNL     1     149.920 167.398 193.320  0.00  0.00    +0.024 HD
ENDBRANCH  83  85
BRANCH  83  89
ATOM     89  C   UNL     1     149.429 164.916 193.689  0.00  0.00    +0.118 C 
ATOM     90  H   UNL     1     149.072 164.167 194.404  0.00  0.00    +0.075 HD
BRANCH  89  91
ATOM     91  C   UNL     1     149.891 164.159 192.410  0.00  0.00    +0.014 C 
ATOM     92  H   UNL     1     150.003 163.114 192.695  0.00  0.00    +0.038 HD
BRANCH  91  93
ATOM     93  C   UNL     1     151.268 164.643 191.941  0.00  0.00    -0.056 C 
ATOM     94  H   UNL     1     152.053 164.442 192.680  0.00  0.00    +0.024 HD
ATOM     95  H   UNL     1     151.256 165.724 191.756  0.00  0.00    +0.024 HD
ATOM     96  H   UNL     1     151.550 164.150 191.004  0.00  0.00    +0.024 HD
ENDBRANCH  91  93
BRANCH  91  97
ATOM     97  C   UNL     1     148.902 164.285 191.271  0.00  0.00    -0.064 C 
ATOM     98  C   UNL     1     148.482 163.356 190.400  0.00  0.00    -0.010 C 
ATOM     99  H   UNL     1     148.422 165.263 191.203  0.00  0.00    +0.059 HD
ATOM    100  H   UNL     1     147.665 163.651 189.742  0.00  0.00    +0.078 HD
BRANCH  98 101
ATOM    101  N   UNL     1     148.839 162.035 190.180  0.00  0.00    -0.317 N 
BRANCH 101 102
ATOM    102  C   UNL     1     150.122 161.713 189.545  0.00  0.00    +0.002 C 
ATOM    103  H   UNL     1     150.791 161.199 190.249  0.00  0.00    +0.043 HD
ATOM    104  H   UNL     1     150.633 162.625 189.214  0.00  0.00    +0.043 HD
ATOM    105  H   UNL     1     149.967 161.058 188.681  0.00  0.00    +0.043 HD
ENDBRANCH 101 102
BRANCH 101 106
ATOM    106  C   UNL     1     148.196 160.887 190.807  0.00  0.00    +0.110 C 
ATOM    107  H   UNL     1     147.116 160.974 190.894  0.00  0.00    +0.077 HD
ATOM    108  H   UNL     1     148.415 159.960 190.269  0.00  0.00    +0.077 HD
BRANCH 106 109
ATOM    109  O   UNL     1     148.712 160.793 192.120  0.00  0.00    -0.377 OA
ATOM    110  H   UNL     1     148.779 159.828 192.237  0.00  0.00    +0.211 HD
ENDBRANCH 106 109
ENDBRANCH 101 106
ENDBRANCH  98 101
ENDBRANCH  91  97
ENDBRANCH  89  91
BRANCH  89 111
ATOM    111  O   UNL     1     150.564 165.645 194.232  0.00  0.00    -0.460 OA
BRANCH 111 112
ATOM    112  C   UNL     1     150.830 165.499 195.557  0.00  0.00    +0.304 C 
ATOM    113  O   UNL     1     150.747 166.372 196.409  0.00  0.00    -0.251 OA
BRANCH 112 114
ATOM    114  C   UNL     1     151.254 164.090 195.835  0.00  0.00    +0.033 C 
ATOM    115  H   UNL     1     150.680 163.688 196.673  0.00  0.00    +0.034 HD
ATOM    116  H   UNL     1     152.326 164.061 196.048  0.00  0.00    +0.034 HD
ATOM    117  H   UNL     1     151.059 163.473 194.951  0.00  0.00    +0.034 HD
ENDBRANCH 112 114
ENDBRANCH 111 112
ENDBRANCH  89 111
ENDBRANCH  83  89
ENDBRANCH  81  83
ENDBRANCH  78  81
ENDBRANCH  75  78
ENDBRANCH  69  75
ENDBRANCH  67  69
BRANCH  67 118
ATOM    118  O   UNL     1     144.423 165.708 190.025  0.00  0.00    -0.379 OA
BRANCH 118 119
ATOM    119  C   UNL     1     143.191 165.086 189.668  0.00  0.00    +0.037 C 
ATOM    120  H   UNL     1     143.303 163.999 189.649  0.00  0.00    +0.052 HD
ATOM    121  H   UNL     1     142.390 165.367 190.358  0.00  0.00    +0.052 HD
ATOM    122  H   UNL     1     142.918 165.424 188.664  0.00  0.00    +0.052 HD
ENDBRANCH 118 119
ENDBRANCH  67 118
ENDBRANCH  64  67
ENDBRANCH  13  64
BRANCH   8 123
ATOM    123  O   UNL     1     144.068 165.143 185.830  0.00  0.00    -0.391 OA
ATOM    124  H   UNL     1     143.562 165.699 185.202  0.00  0.00    +0.210 HD
ENDBRANCH   8 123
BRANCH  15 125
ATOM    125  O   UNL     1     141.650 171.560 188.566  0.00  0.00    -0.379 OA
BRANCH 125 126
ATOM    126  C   UNL     1     141.523 171.693 187.153  0.00  0.00    +0.037 C 
ATOM    127  H   UNL     1     142.053 172.586 186.806  0.00  0.00    +0.052 HD
ATOM    128  H   UNL     1     141.977 170.816 186.685  0.00  0.00    +0.052 HD
ATOM    129  H   UNL     1     140.470 171.739 186.857  0.00  0.00    +0.052 HD
ENDBRANCH 125 126
ENDBRANCH  15 125
TORSDOF 27
ENDMDL
MODEL 2
REMARK VINA RESULT:      -5.7      2.553      9.541
REMARK  Name = Ulapualide A_conf1
REMARK  27 active torsions:
REMARK  status: ('A' for Active; 'I' for Inactive)
REMARK    1  A    between atoms: C_1  and  C_2
REMARK    2  A    between atoms: C_9  and  O_63
REMARK    3  A    between atoms: C_14  and  C_38
REMARK    4  A    between atoms: C_15  and  C_37
REMARK    5  A    between atoms: C_16  and  O_35
REMARK    6  A    between atoms: O_35  and  C_36
REMARK    7  A    between atoms: C_38  and  C_39
REMARK    8  A    between atoms: C_39  and  C_40
REMARK    9  A    between atoms: C_39  and  O_61
REMARK   10  A    between atoms: C_40  and  C_41
REMARK   11  A    between atoms: C_40  and  C_42
REMARK   12  A    between atoms: C_42  and  C_43
REMARK   13  A    between atoms: C_43  and  C_44
REMARK   14  A    between atoms: C_44  and  C_46
REMARK   15  A    between atoms: C_46  and  C_47
REMARK   16  A    between atoms: C_46  and  C_48
REMARK   17  A    between atoms: C_48  and  C_49
REMARK   18  A    between atoms: C_48  and  O_57
REMARK   19  A    between atoms: C_49  and  C_50
REMARK   20  A    between atoms: C_49  and  C_51
REMARK   21  A    between atoms: C_52  and  N_53
REMARK   22  A    between atoms: N_53  and  C_54
REMARK   23  A    between atoms: N_53  and  C_55
REMARK   24  A    between atoms: C_55  and  O_56
REMARK   25  A    between atoms: O_57  and  C_58
REMARK   26  A    between atoms: C_58  and  C_60
REMARK   27  A    between atoms: O_61  and  C_62
REMARK                            x       y       z     vdW  Elec       q    Type
REMARK                         _______ _______ _______ _____ _____    ______ ____
ROOT
ATOM      1  C   UNL     1     145.610 172.725 191.305  0.00  0.00    +0.008 C 
ATOM      2  C   UNL     1     146.858 171.965 191.800  0.00  0.00    +0.014 C 
ATOM      3  C   UNL     1     148.107 172.818 191.710  0.00  0.00    +0.134 C 
ATOM      4  O   UNL     1     148.281 173.612 190.782  0.00  0.00    -0.297 OA
ATOM      5  C   UNL     1     149.149 172.676 192.801  0.00  0.00    +0.006 C 
ATOM      6  C   UNL     1     149.721 171.271 192.952  0.00  0.00    -0.044 C 
ATOM      7  C   UNL     1     150.348 170.719 191.663  0.00  0.00    -0.026 C 
ATOM      8  C   UNL     1     151.169 169.456 191.960  0.00  0.00    +0.065 C 
ATOM      9  C   UNL     1     151.437 168.634 190.700  0.00  0.00    +0.071 C 
ATOM     10  C   UNL     1     151.784 167.232 191.123  0.00  0.00    +0.310 C 
ATOM     11  O   UNL     1     152.794 166.942 191.755  0.00  0.00    -0.251 OA
ATOM     12  O   UNL     1     150.790 166.364 190.782  0.00  0.00    -0.461 OA
ATOM     13  C   UNL     1     150.816 165.076 191.446  0.00  0.00    +0.110 C 
ATOM     14  C   UNL     1     149.917 164.091 190.650  0.00  0.00    +0.020 C 
ATOM     15  C   UNL     1     150.368 164.005 189.159  0.00  0.00    +0.068 C 
ATOM     16  C   UNL     1     149.380 163.224 188.254  0.00  0.00    -0.008 C 
ATOM     17  C   UNL     1     147.981 163.751 188.364  0.00  0.00    -0.077 C 
ATOM     18  C   UNL     1     146.897 163.013 188.660  0.00  0.00    -0.003 C 
ATOM     19  C   UNL     1     145.644 163.651 188.886  0.00  0.00    +0.220 A 
ATOM     20  N   UNL     1     145.475 164.927 189.204  0.00  0.00    -0.205 NA
ATOM     21  C   UNL     1     144.119 165.098 189.319  0.00  0.00    +0.164 A 
ATOM     22  C   UNL     1     143.482 163.912 189.078  0.00  0.00    +0.125 A 
ATOM     23  O   UNL     1     144.438 162.971 188.831  0.00  0.00    -0.443 OA
ATOM     24  C   UNL     1     143.434 166.451 189.675  0.00  0.00    +0.250 A 
ATOM     25  N   UNL     1     144.116 167.536 190.002  0.00  0.00    -0.203 NA
ATOM     26  C   UNL     1     143.154 168.491 190.202  0.00  0.00    +0.164 A 
ATOM     27  C   UNL     1     141.908 167.948 190.001  0.00  0.00    +0.125 A 
ATOM     28  O   UNL     1     142.068 166.633 189.687  0.00  0.00    -0.442 OA
ATOM     29  C   UNL     1     143.432 169.976 190.584  0.00  0.00    +0.249 A 
ATOM     30  N   UNL     1     144.643 170.463 190.792  0.00  0.00    -0.212 NA
ATOM     31  C   UNL     1     144.448 171.797 191.072  0.00  0.00    +0.083 A 
ATOM     32  C   UNL     1     143.098 172.065 191.019  0.00  0.00    +0.116 A 
ATOM     33  O   UNL     1     142.439 170.914 190.720  0.00  0.00    -0.442 OA
ATOM     34  H   UNL     1     145.832 173.190 190.336  0.00  0.00    +0.037 HD
ATOM     35  H   UNL     1     146.712 171.637 192.834  0.00  0.00    +0.035 HD
ATOM     36  H   UNL     1     147.053 171.071 191.195  0.00  0.00    +0.035 HD
ATOM     37  H   UNL     1     149.960 173.383 192.592  0.00  0.00    +0.034 HD
ATOM     38  H   UNL     1     148.686 172.994 193.741  0.00  0.00    +0.034 HD
ATOM     39  H   UNL     1     150.474 171.298 193.750  0.00  0.00    +0.027 HD
ATOM     40  H   UNL     1     148.936 170.583 193.288  0.00  0.00    +0.027 HD
ATOM     41  H   UNL     1     150.991 171.484 191.212  0.00  0.00    +0.029 HD
ATOM     42  H   UNL     1     149.546 170.491 190.954  0.00  0.00    +0.029 HD
ATOM     43  H   UNL     1     150.656 168.860 192.718  0.00  0.00    +0.060 HD
ATOM     44  H   UNL     1     152.271 169.032 190.112  0.00  0.00    +0.040 HD
ATOM     45  H   UNL     1     150.554 168.598 190.053  0.00  0.00    +0.040 HD
ATOM     46  H   UNL     1     151.844 164.693 191.426  0.00  0.00    +0.074 HD
ATOM     47  H   UNL     1     148.900 164.495 190.658  0.00  0.00    +0.036 HD
ATOM     48  H   UNL     1     150.445 165.026 188.763  0.00  0.00    +0.060 HD
ATOM     49  H   UNL     1     149.427 162.152 188.478  0.00  0.00    +0.033 HD
ATOM     50  H   UNL     1     149.701 163.312 187.209  0.00  0.00    +0.033 HD
ATOM     51  H   UNL     1     147.876 164.833 188.251  0.00  0.00    +0.057 HD
ATOM     52  H   UNL     1     146.944 161.935 188.737  0.00  0.00    +0.067 HD
ATOM     53  H   UNL     1     142.458 163.577 189.081  0.00  0.00    +0.105 HD
ATOM     54  H   UNL     1     140.896 168.321 190.048  0.00  0.00    +0.105 HD
ATOM     55  H   UNL     1     142.491 172.949 191.145  0.00  0.00    +0.105 HD
ENDROOT
BRANCH   1  56
ATOM     56  C   UNL     1     145.252 173.844 192.293  0.00  0.00    -0.056 C 
ATOM     57  H   UNL     1     145.200 173.467 193.321  0.00  0.00    +0.024 HD
ATOM     58  H   UNL     1     144.277 174.280 192.063  0.00  0.00    +0.024 HD
ATOM     59  H   UNL     1     145.998 174.648 192.271  0.00  0.00    +0.024 HD
ENDBRANCH   1  56
BRANCH  14  60
ATOM     60  C   UNL     1     149.887 162.707 191.318  0.00  0.00    -0.057 C 
ATOM     61  H   UNL     1     150.515 161.992 190.780  0.00  0.00    +0.023 HD
ATOM     62  H   UNL     1     148.874 162.303 191.374  0.00  0.00    +0.023 HD
ATOM     63  H   UNL     1     150.252 162.764 192.348  0.00  0.00    +0.023 HD
ENDBRANCH  14  60
BRANCH  13  64
ATOM     64  C   UNL     1     150.384 165.262 192.923  0.00  0.00    +0.011 C 
ATOM     65  H   UNL     1     151.299 165.454 193.492  0.00  0.00    +0.033 HD
ATOM     66  H   UNL     1     149.980 164.319 193.306  0.00  0.00    +0.033 HD
BRANCH  64  67
ATOM     67  C   UNL     1     149.387 166.412 193.212  0.00  0.00    +0.064 C 
ATOM     68  H   UNL     1     149.645 167.267 192.575  0.00  0.00    +0.060 HD
BRANCH  67  69
ATOM     69  C   UNL     1     147.923 165.983 192.871  0.00  0.00    -0.017 C 
ATOM     70  H   UNL     1     147.982 165.035 192.318  0.00  0.00    +0.032 HD
BRANCH  69  71
ATOM     71  C   UNL     1     147.075 165.740 194.126  0.00  0.00    -0.060 C 
ATOM     72  H   UNL     1     146.900 164.672 194.293  0.00  0.00    +0.023 HD
ATOM     73  H   UNL     1     146.104 166.239 194.069  0.00  0.00    +0.023 HD
ATOM     74  H   UNL     1     147.560 166.149 195.014  0.00  0.00    +0.023 HD
ENDBRANCH  69  71
BRANCH  69  75
ATOM     75  C   UNL     1     147.256 167.029 191.941  0.00  0.00    -0.041 C 
ATOM     76  H   UNL     1     147.538 168.027 192.301  0.00  0.00    +0.027 HD
ATOM     77  H   UNL     1     146.164 166.968 192.015  0.00  0.00    +0.027 HD
BRANCH  75  78
ATOM     78  C   UNL     1     147.696 166.941 190.475  0.00  0.00    +0.007 C 
ATOM     79  H   UNL     1     148.696 166.498 190.431  0.00  0.00    +0.034 HD
ATOM     80  H   UNL     1     147.018 166.283 189.921  0.00  0.00    +0.034 HD
BRANCH  78  81
ATOM     81  C   UNL     1     147.798 168.281 189.753  0.00  0.00    +0.140 C 
ATOM     82  O   UNL     1     147.723 169.357 190.350  0.00  0.00    -0.297 OA
BRANCH  81  83
ATOM     83  C   UNL     1     147.997 168.215 188.245  0.00  0.00    +0.052 C 
ATOM     84  H   UNL     1     148.603 169.076 187.942  0.00  0.00    +0.041 HD
BRANCH  83  85
ATOM     85  C   UNL     1     148.797 166.950 187.917  0.00  0.00    -0.052 C 
ATOM     86  H   UNL     1     149.079 166.922 186.861  0.00  0.00    +0.024 HD
ATOM     87  H   UNL     1     149.718 166.895 188.504  0.00  0.00    +0.024 HD
ATOM     88  H   UNL     1     148.215 166.052 188.142  0.00  0.00    +0.024 HD
ENDBRANCH  83  85
BRANCH  83  89
ATOM     89  C   UNL     1     146.657 168.243 187.472  0.00  0.00    +0.118 C 
ATOM     90  H   UNL     1     145.834 168.157 188.190  0.00  0.00    +0.075 HD
BRANCH  89  91
ATOM     91  C   UNL     1     146.424 169.542 186.647  0.00  0.00    +0.014 C 
ATOM     92  H   UNL     1     145.615 169.323 185.952  0.00  0.00    +0.038 HD
BRANCH  91  93
ATOM     93  C   UNL     1     147.654 169.895 185.803  0.00  0.00    -0.056 C 
ATOM     94  H   UNL     1     148.022 170.908 186.010  0.00  0.00    +0.024 HD
ATOM     95  H   UNL     1     147.419 169.840 184.734  0.00  0.00    +0.024 HD
ATOM     96  H   UNL     1     148.470 169.191 186.000  0.00  0.00    +0.024 HD
ENDBRANCH  91  93
BRANCH  91  97
ATOM     97  C   UNL     1     146.057 170.725 187.517  0.00  0.00    -0.064 C 
ATOM     98  C   UNL     1     145.479 171.886 187.178  0.00  0.00    -0.010 C 
ATOM     99  H   UNL     1     146.238 170.568 188.583  0.00  0.00    +0.059 HD
ATOM    100  H   UNL     1     145.197 172.540 188.004  0.00  0.00    +0.078 HD
BRANCH  98 101
ATOM    101  N   UNL     1     145.099 172.435 185.964  0.00  0.00    -0.317 N 
BRANCH 101 102
ATOM    102  C   UNL     1     143.814 172.068 185.358  0.00  0.00    +0.002 C 
ATOM    103  H   UNL     1     143.965 171.524 184.416  0.00  0.00    +0.043 HD
ATOM    104  H   UNL     1     143.222 172.962 185.127  0.00  0.00    +0.043 HD
ATOM    105  H   UNL     1     143.242 171.427 186.035  0.00  0.00    +0.043 HD
ENDBRANCH 101 102
BRANCH 101 106
ATOM    106  C   UNL     1     145.715 173.607 185.355  0.00  0.00    +0.110 C 
ATOM    107  H   UNL     1     146.258 173.397 184.437  0.00  0.00    +0.077 HD
ATOM    108  H   UNL     1     144.976 174.384 185.138  0.00  0.00    +0.077 HD
BRANCH 106 109
ATOM    109  O   UNL     1     146.654 174.109 186.286  0.00  0.00    -0.377 OA
ATOM    110  H   UNL     1     147.456 173.610 186.047  0.00  0.00    +0.211 HD
ENDBRANCH 106 109
ENDBRANCH 101 106
ENDBRANCH  98 101
ENDBRANCH  91  97
ENDBRANCH  89  91
BRANCH  89 111
ATOM    111  O   UNL     1     146.665 167.110 186.561  0.00  0.00    -0.460 OA
BRANCH 111 112
ATOM    112  C   UNL     1     145.522 166.846 185.875  0.00  0.00    +0.304 C 
ATOM    113  O   UNL     1     144.395 166.791 186.345  0.00  0.00    -0.251 OA
BRANCH 112 114
ATOM    114  C   UNL     1     145.842 166.619 184.429  0.00  0.00    +0.033 C 
ATOM    115  H   UNL     1     146.581 167.352 184.095  0.00  0.00    +0.034 HD
ATOM    116  H   UNL     1     144.929 166.687 183.833  0.00  0.00    +0.034 HD
ATOM    117  H   UNL     1     146.265 165.617 184.305  0.00  0.00    +0.034 HD
ENDBRANCH 112 114
ENDBRANCH 111 112
ENDBRANCH  89 111
ENDBRANCH  83  89
ENDBRANCH  81  83
ENDBRANCH  78  81
ENDBRANCH  75  78
ENDBRANCH  69  75
ENDBRANCH  67  69
BRANCH  67 118
ATOM    118  O   UNL     1     149.450 166.774 194.594  0.00  0.00    -0.379 OA
BRANCH 118 119
ATOM    119  C   UNL     1     150.544 166.182 195.290  0.00  0.00    +0.037 C 
ATOM    120  H   UNL     1     151.457 166.246 194.694  0.00  0.00    +0.052 HD
ATOM    121  H   UNL     1     150.698 166.657 196.264  0.00  0.00    +0.052 HD
ATOM    122  H   UNL     1     150.310 165.126 195.454  0.00  0.00    +0.052 HD
ENDBRANCH 118 119
ENDBRANCH  67 118
ENDBRANCH  64  67
ENDBRANCH  13  64
BRANCH   8 123
ATOM    123  O   UNL     1     152.416 169.879 192.519  0.00  0.00    -0.391 OA
ATOM    124  H   UNL     1     152.560 170.802 192.228  0.00  0.00    +0.210 HD
ENDBRANCH   8 123
BRANCH  15 125
ATOM    125  O   UNL     1     151.656 163.372 189.115  0.00  0.00    -0.379 OA
BRANCH 125 126
ATOM    126  C   UNL     1     152.604 164.099 188.340  0.00  0.00    +0.037 C 
ATOM    127  H   UNL     1     153.572 163.587 188.345  0.00  0.00    +0.052 HD
ATOM    128  H   UNL     1     152.240 164.145 187.311  0.00  0.00    +0.052 HD
ATOM    129  H   UNL     1     152.715 165.122 188.715  0.00  0.00    +0.052 HD
ENDBRANCH 125 126
ENDBRANCH  15 125
TORSDOF 27
ENDMDL
MODEL 3
REMARK VINA RESULT:      -5.5      2.040      6.846
REMARK  Name = Ulapualide A_conf1
REMARK  27 active torsions:
REMARK  status: ('A' for Active; 'I' for Inactive)
REMARK    1  A    between atoms: C_1  and  C_2
REMARK    2  A    between atoms: C_9  and  O_63
REMARK    3  A    between atoms: C_14  and  C_38
REMARK    4  A    between atoms: C_15  and  C_37
REMARK    5  A    between atoms: C_16  and  O_35
REMARK    6  A    between atoms: O_35  and  C_36
REMARK    7  A    between atoms: C_38  and  C_39
REMARK    8  A    between atoms: C_39  and  C_40
REMARK    9  A    between atoms: C_39  and  O_61
REMARK   10  A    between atoms: C_40  and  C_41
REMARK   11  A    between atoms: C_40  and  C_42
REMARK   12  A    between atoms: C_42  and  C_43
REMARK   13  A    between atoms: C_43  and  C_44
REMARK   14  A    between atoms: C_44  and  C_46
REMARK   15  A    between atoms: C_46  and  C_47
REMARK   16  A    between atoms: C_46  and  C_48
REMARK   17  A    between atoms: C_48  and  C_49
REMARK   18  A    between atoms: C_48  and  O_57
REMARK   19  A    between atoms: C_49  and  C_50
REMARK   20  A    between atoms: C_49  and  C_51
REMARK   21  A    between atoms: C_52  and  N_53
REMARK   22  A    between atoms: N_53  and  C_54
REMARK   23  A    between atoms: N_53  and  C_55
REMARK   24  A    between atoms: C_55  and  O_56
REMARK   25  A    between atoms: O_57  and  C_58
REMARK   26  A    between atoms: C_58  and  C_60
REMARK   27  A    between atoms: O_61  and  C_62
REMARK                            x       y       z     vdW  Elec       q    Type
REMARK                         _______ _______ _______ _____ _____    ______ ____
ROOT
ATOM      1  C   UNL     1     148.572 171.538 191.617  0.00  0.00    +0.008 C 
ATOM      2  C   UNL     1     147.564 171.196 190.501  0.00  0.00    +0.014 C 
ATOM      3  C   UNL     1     146.266 171.960 190.663  0.00  0.00    +0.134 C 
ATOM      4  O   UNL     1     145.791 172.198 191.776  0.00  0.00    -0.297 OA
ATOM      5  C   UNL     1     145.557 172.437 189.411  0.00  0.00    +0.006 C 
ATOM      6  C   UNL     1     145.166 171.327 188.443  0.00  0.00    -0.044 C 
ATOM      7  C   UNL     1     144.277 170.245 189.073  0.00  0.00    -0.026 C 
ATOM      8  C   UNL     1     143.670 169.344 187.988  0.00  0.00    +0.065 C 
ATOM      9  C   UNL     1     143.158 168.022 188.556  0.00  0.00    +0.071 C 
ATOM     10  C   UNL     1     143.052 167.036 187.424  0.00  0.00    +0.310 C 
ATOM     11  O   UNL     1     142.269 167.155 186.489  0.00  0.00    -0.251 OA
ATOM     12  O   UNL     1     143.995 166.059 187.544  0.00  0.00    -0.461 OA
ATOM     13  C   UNL     1     144.250 165.274 186.354  0.00  0.00    +0.110 C 
ATOM     14  C   UNL     1     144.994 163.975 186.768  0.00  0.00    +0.020 C 
ATOM     15  C   UNL     1     144.183 163.186 187.842  0.00  0.00    +0.068 C 
ATOM     16  C   UNL     1     144.966 162.005 188.471  0.00  0.00    -0.008 C 
ATOM     17  C   UNL     1     146.296 162.437 189.012  0.00  0.00    -0.077 C 
ATOM     18  C   UNL     1     147.478 161.883 188.692  0.00  0.00    -0.003 C 
ATOM     19  C   UNL     1     148.688 162.477 189.151  0.00  0.00    +0.220 A 
ATOM     20  N   UNL     1     148.824 163.731 189.560  0.00  0.00    -0.205 NA
ATOM     21  C   UNL     1     150.144 163.860 189.910  0.00  0.00    +0.164 A 
ATOM     22  C   UNL     1     150.796 162.678 189.696  0.00  0.00    +0.125 A 
ATOM     23  O   UNL     1     149.892 161.793 189.184  0.00  0.00    -0.443 OA
ATOM     24  C   UNL     1     150.780 165.171 190.462  0.00  0.00    +0.250 A 
ATOM     25  N   UNL     1     150.116 166.311 190.543  0.00  0.00    -0.203 NA
ATOM     26  C   UNL     1     151.012 167.184 191.103  0.00  0.00    +0.164 A 
ATOM     27  C   UNL     1     152.205 166.544 191.334  0.00  0.00    +0.125 A 
ATOM     28  O   UNL     1     152.082 165.257 190.905  0.00  0.00    -0.442 OA
ATOM     29  C   UNL     1     150.716 168.676 191.442  0.00  0.00    +0.249 A 
ATOM     30  N   UNL     1     149.563 169.269 191.187  0.00  0.00    -0.212 NA
ATOM     31  C   UNL     1     149.710 170.553 191.663  0.00  0.00    +0.083 A 
ATOM     32  C   UNL     1     150.971 170.683 192.198  0.00  0.00    +0.116 A 
ATOM     33  O   UNL     1     151.627 169.500 192.055  0.00  0.00    -0.442 OA
ATOM     34  H   UNL     1     148.068 171.474 192.590  0.00  0.00    +0.037 HD
ATOM     35  H   UNL     1     148.000 171.416 189.521  0.00  0.00    +0.035 HD
ATOM     36  H   UNL     1     147.296 170.132 190.511  0.00  0.00    +0.035 HD
ATOM     37  H   UNL     1     144.663 172.992 189.716  0.00  0.00    +0.034 HD
ATOM     38  H   UNL     1     146.219 173.153 188.911  0.00  0.00    +0.034 HD
ATOM     39  H   UNL     1     144.645 171.788 187.593  0.00  0.00    +0.027 HD
ATOM     40  H   UNL     1     146.066 170.853 188.035  0.00  0.00    +0.027 HD
ATOM     41  H   UNL     1     143.476 170.720 189.652  0.00  0.00    +0.029 HD
ATOM     42  H   UNL     1     144.885 169.650 189.763  0.00  0.00    +0.029 HD
ATOM     43  H   UNL     1     144.411 169.174 187.202  0.00  0.00    +0.060 HD
ATOM     44  H   UNL     1     142.169 168.122 189.017  0.00  0.00    +0.040 HD
ATOM     45  H   UNL     1     143.843 167.620 189.309  0.00  0.00    +0.040 HD
ATOM     46  H   UNL     1     143.289 164.989 185.908  0.00  0.00    +0.074 HD
ATOM     47  H   UNL     1     145.941 164.271 187.231  0.00  0.00    +0.036 HD
ATOM     48  H   UNL     1     143.919 163.879 188.652  0.00  0.00    +0.060 HD
ATOM     49  H   UNL     1     145.069 161.189 187.746  0.00  0.00    +0.033 HD
ATOM     50  H   UNL     1     144.380 161.581 189.296  0.00  0.00    +0.033 HD
ATOM     51  H   UNL     1     146.276 163.313 189.665  0.00  0.00    +0.057 HD
ATOM     52  H   UNL     1     147.545 160.990 188.085  0.00  0.00    +0.067 HD
ATOM     53  H   UNL     1     151.811 162.330 189.801  0.00  0.00    +0.105 HD
ATOM     54  H   UNL     1     153.159 166.832 191.748  0.00  0.00    +0.105 HD
ATOM     55  H   UNL     1     151.514 171.477 192.689  0.00  0.00    +0.105 HD
ENDROOT
BRANCH   1  56
ATOM     56  C   UNL     1     149.076 172.978 191.443  0.00  0.00    -0.056 C 
ATOM     57  H   UNL     1     150.171 173.017 191.421  0.00  0.00    +0.024 HD
ATOM     58  H   UNL     1     148.751 173.614 192.271  0.00  0.00    +0.024 HD
ATOM     59  H   UNL     1     148.708 173.419 190.510  0.00  0.00    +0.024 HD
ENDBRANCH   1  56
BRANCH  14  60
ATOM     60  C   UNL     1     145.313 163.105 185.542  0.00  0.00    -0.057 C 
ATOM     61  H   UNL     1     144.408 162.656 185.125  0.00  0.00    +0.023 HD
ATOM     62  H   UNL     1     146.016 162.303 185.782  0.00  0.00    +0.023 HD
ATOM     63  H   UNL     1     145.784 163.701 184.754  0.00  0.00    +0.023 HD
ENDBRANCH  14  60
BRANCH  13  64
ATOM     64  C   UNL     1     145.032 166.143 185.335  0.00  0.00    +0.011 C 
ATOM     65  H   UNL     1     144.286 166.582 184.665  0.00  0.00    +0.033 HD
ATOM     66  H   UNL     1     145.660 165.497 184.711  0.00  0.00    +0.033 HD
BRANCH  64  67
ATOM     67  C   UNL     1     145.889 167.293 185.922  0.00  0.00    +0.064 C 
ATOM     68  H   UNL     1     145.514 167.531 186.925  0.00  0.00    +0.060 HD
BRANCH  67  69
ATOM     69  C   UNL     1     147.386 166.864 186.057  0.00  0.00    -0.017 C 
ATOM     70  H   UNL     1     147.558 166.054 185.335  0.00  0.00    +0.032 HD
BRANCH  69  71
ATOM     71  C   UNL     1     148.355 168.005 185.719  0.00  0.00    -0.060 C 
ATOM     72  H   UNL     1     148.976 167.761 184.850  0.00  0.00    +0.023 HD
ATOM     73  H   UNL     1     149.018 168.241 186.555  0.00  0.00    +0.023 HD
ATOM     74  H   UNL     1     147.816 168.929 185.506  0.00  0.00    +0.023 HD
ENDBRANCH  69  71
BRANCH  69  75
ATOM     75  C   UNL     1     147.661 166.299 187.474  0.00  0.00    -0.041 C 
ATOM     76  H   UNL     1     148.749 166.212 187.595  0.00  0.00    +0.027 HD
ATOM     77  H   UNL     1     147.254 165.286 187.570  0.00  0.00    +0.027 HD
BRANCH  75  78
ATOM     78  C   UNL     1     147.154 167.187 188.616  0.00  0.00    +0.007 C 
ATOM     79  H   UNL     1     147.994 167.761 189.020  0.00  0.00    +0.034 HD
ATOM     80  H   UNL     1     146.419 167.903 188.233  0.00  0.00    +0.034 HD
BRANCH  78  81
ATOM     81  C   UNL     1     146.553 166.433 189.798  0.00  0.00    +0.140 C 
ATOM     82  O   UNL     1     145.966 165.358 189.663  0.00  0.00    -0.297 OA
BRANCH  81  83
ATOM     83  C   UNL     1     146.720 167.087 191.163  0.00  0.00    +0.052 C 
ATOM     84  H   UNL     1     147.791 167.221 191.350  0.00  0.00    +0.041 HD
BRANCH  83  85
ATOM     85  C   UNL     1     146.083 168.479 191.115  0.00  0.00    -0.052 C 
ATOM     86  H   UNL     1     146.828 169.262 191.275  0.00  0.00    +0.024 HD
ATOM     87  H   UNL     1     145.608 168.670 190.149  0.00  0.00    +0.024 HD
ATOM     88  H   UNL     1     145.309 168.579 191.882  0.00  0.00    +0.024 HD
ENDBRANCH  83  85
BRANCH  83  89
ATOM     89  C   UNL     1     146.112 166.234 192.302  0.00  0.00    +0.118 C 
ATOM     90  H   UNL     1     145.715 165.307 191.875  0.00  0.00    +0.075 HD
BRANCH  89  91
ATOM     91  C   UNL     1     147.127 165.839 193.415  0.00  0.00    +0.014 C 
ATOM     92  H   UNL     1     147.612 164.925 193.076  0.00  0.00    +0.038 HD
BRANCH  91  93
ATOM     93  C   UNL     1     146.413 165.506 194.729  0.00  0.00    -0.056 C 
ATOM     94  H   UNL     1     145.595 164.788 194.587  0.00  0.00    +0.024 HD
ATOM     95  H   UNL     1     145.986 166.410 195.178  0.00  0.00    +0.024 HD
ATOM     96  H   UNL     1     147.117 165.079 195.451  0.00  0.00    +0.024 HD
ENDBRANCH  91  93
BRANCH  91  97
ATOM     97  C   UNL     1     148.161 166.915 193.666  0.00  0.00    -0.064 C 
ATOM     98  C   UNL     1     149.361 166.823 194.257  0.00  0.00    -0.010 C 
ATOM     99  H   UNL     1     147.905 167.888 193.241  0.00  0.00    +0.059 HD
ATOM    100  H   UNL     1     149.988 167.715 194.211  0.00  0.00    +0.078 HD
BRANCH  98 101
ATOM    101  N   UNL     1     150.026 165.787 194.894  0.00  0.00    -0.317 N 
BRANCH 101 102
ATOM    102  C   UNL     1     149.718 165.462 196.291  0.00  0.00    +0.002 C 
ATOM    103  H   UNL     1     150.540 164.899 196.754  0.00  0.00    +0.043 HD
ATOM    104  H   UNL     1     148.817 164.840 196.358  0.00  0.00    +0.043 HD
ATOM    105  H   UNL     1     149.562 166.378 196.871  0.00  0.00    +0.043 HD
ENDBRANCH 101 102
BRANCH 101 106
ATOM    106  C   UNL     1     150.799 164.756 194.214  0.00  0.00    +0.110 C 
ATOM    107  H   UNL     1     151.426 165.129 193.408  0.00  0.00    +0.077 HD
ATOM    108  H   UNL     1     151.439 164.208 194.911  0.00  0.00    +0.077 HD
BRANCH 106 109
ATOM    109  O   UNL     1     149.871 163.860 193.635  0.00  0.00    -0.377 OA
ATOM    110  H   UNL     1     150.285 162.998 193.823  0.00  0.00    +0.211 HD
ENDBRANCH 106 109
ENDBRANCH 101 106
ENDBRANCH  98 101
ENDBRANCH  91  97
ENDBRANCH  89  91
BRANCH  89 111
ATOM    111  O   UNL     1     145.047 167.020 192.903  0.00  0.00    -0.460 OA
BRANCH 111 112
ATOM    112  C   UNL     1     143.766 166.677 192.606  0.00  0.00    +0.304 C 
ATOM    113  O   UNL     1     143.386 166.127 191.582  0.00  0.00    -0.251 OA
BRANCH 112 114
ATOM    114  C   UNL     1     142.862 167.080 193.730  0.00  0.00    +0.033 C 
ATOM    115  H   UNL     1     142.305 167.979 193.453  0.00  0.00    +0.034 HD
ATOM    116  H   UNL     1     143.450 167.250 194.635  0.00  0.00    +0.034 HD
ATOM    117  H   UNL     1     142.147 166.274 193.926  0.00  0.00    +0.034 HD
ENDBRANCH 112 114
ENDBRANCH 111 112
ENDBRANCH  89 111
ENDBRANCH  83  89
ENDBRANCH  81  83
ENDBRANCH  78  81
ENDBRANCH  75  78
ENDBRANCH  69  75
ENDBRANCH  67  69
BRANCH  67 118
ATOM    118  O   UNL     1     145.813 168.438 185.070  0.00  0.00    -0.379 OA
BRANCH 118 119
ATOM    119  C   UNL     1     144.652 168.460 184.243  0.00  0.00    +0.037 C 
ATOM    120  H   UNL     1     144.753 167.746 183.422  0.00  0.00    +0.052 HD
ATOM    121  H   UNL     1     143.750 168.241 184.821  0.00  0.00    +0.052 HD
ATOM    122  H   UNL     1     144.556 169.465 183.819  0.00  0.00    +0.052 HD
ENDBRANCH 118 119
ENDBRANCH  67 118
ENDBRANCH  64  67
ENDBRANCH  13  64
BRANCH   8 123
ATOM    123  O   UNL     1     142.579 170.058 187.400  0.00  0.00    -0.391 OA
ATOM    124  H   UNL     1     141.882 169.399 187.202  0.00  0.00    +0.210 HD
ENDBRANCH   8 123
BRANCH  15 125
ATOM    125  O   UNL     1     142.986 162.688 187.224  0.00  0.00    -0.379 OA
BRANCH 125 126
ATOM    126  C   UNL     1     141.800 163.217 187.810  0.00  0.00    +0.037 C 
ATOM    127  H   UNL     1     141.123 162.404 188.096  0.00  0.00    +0.052 HD
ATOM    128  H   UNL     1     142.081 163.768 188.711  0.00  0.00    +0.052 HD
ATOM    129  H   UNL     1     141.296 163.905 187.124  0.00  0.00    +0.052 HD
ENDBRANCH 125 126
ENDBRANCH  15 125
TORSDOF 27
ENDMDL
MODEL 4
REMARK VINA RESULT:      -5.5      2.442      9.054
REMARK  Name = Ulapualide A_conf1
REMARK  27 active torsions:
REMARK  status: ('A' for Active; 'I' for Inactive)
REMARK    1  A    between atoms: C_1  and  C_2
REMARK    2  A    between atoms: C_9  and  O_63
REMARK    3  A    between atoms: C_14  and  C_38
REMARK    4  A    between atoms: C_15  and  C_37
REMARK    5  A    between atoms: C_16  and  O_35
REMARK    6  A    between atoms: O_35  and  C_36
REMARK    7  A    between atoms: C_38  and  C_39
REMARK    8  A    between atoms: C_39  and  C_40
REMARK    9  A    between atoms: C_39  and  O_61
REMARK   10  A    between atoms: C_40  and  C_41
REMARK   11  A    between atoms: C_40  and  C_42
REMARK   12  A    between atoms: C_42  and  C_43
REMARK   13  A    between atoms: C_43  and  C_44
REMARK   14  A    between atoms: C_44  and  C_46
REMARK   15  A    between atoms: C_46  and  C_47
REMARK   16  A    between atoms: C_46  and  C_48
REMARK   17  A    between atoms: C_48  and  C_49
REMARK   18  A    between atoms: C_48  and  O_57
REMARK   19  A    between atoms: C_49  and  C_50
REMARK   20  A    between atoms: C_49  and  C_51
REMARK   21  A    between atoms: C_52  and  N_53
REMARK   22  A    between atoms: N_53  and  C_54
REMARK   23  A    between atoms: N_53  and  C_55
REMARK   24  A    between atoms: C_55  and  O_56
REMARK   25  A    between atoms: O_57  and  C_58
REMARK   26  A    between atoms: C_58  and  C_60
REMARK   27  A    between atoms: O_61  and  C_62
REMARK                            x       y       z     vdW  Elec       q    Type
REMARK                         _______ _______ _______ _____ _____    ______ ____
ROOT
ATOM      1  C   UNL     1     145.581 172.884 191.398  0.00  0.00    +0.008 C 
ATOM      2  C   UNL     1     146.828 172.117 191.883  0.00  0.00    +0.014 C 
ATOM      3  C   UNL     1     148.081 172.964 191.786  0.00  0.00    +0.134 C 
ATOM      4  O   UNL     1     148.252 173.759 190.859  0.00  0.00    -0.297 OA
ATOM      5  C   UNL     1     149.129 172.815 192.870  0.00  0.00    +0.006 C 
ATOM      6  C   UNL     1     149.695 171.407 193.014  0.00  0.00    -0.044 C 
ATOM      7  C   UNL     1     150.310 170.854 191.720  0.00  0.00    -0.026 C 
ATOM      8  C   UNL     1     151.128 169.587 192.009  0.00  0.00    +0.065 C 
ATOM      9  C   UNL     1     151.383 168.766 190.746  0.00  0.00    +0.071 C 
ATOM     10  C   UNL     1     151.726 167.361 191.163  0.00  0.00    +0.310 C 
ATOM     11  O   UNL     1     152.738 167.065 191.788  0.00  0.00    -0.251 OA
ATOM     12  O   UNL     1     150.725 166.499 190.828  0.00  0.00    -0.461 OA
ATOM     13  C   UNL     1     150.750 165.210 191.489  0.00  0.00    +0.110 C 
ATOM     14  C   UNL     1     149.841 164.230 190.697  0.00  0.00    +0.020 C 
ATOM     15  C   UNL     1     150.281 164.145 189.203  0.00  0.00    +0.068 C 
ATOM     16  C   UNL     1     149.283 163.371 188.303  0.00  0.00    -0.008 C 
ATOM     17  C   UNL     1     147.888 163.905 188.423  0.00  0.00    -0.077 C 
ATOM     18  C   UNL     1     146.802 163.171 188.725  0.00  0.00    -0.003 C 
ATOM     19  C   UNL     1     145.554 163.814 188.961  0.00  0.00    +0.220 A 
ATOM     20  N   UNL     1     145.393 165.090 189.283  0.00  0.00    -0.205 NA
ATOM     21  C   UNL     1     144.039 165.268 189.407  0.00  0.00    +0.164 A 
ATOM     22  C   UNL     1     143.394 164.086 189.168  0.00  0.00    +0.125 A 
ATOM     23  O   UNL     1     144.344 163.141 188.913  0.00  0.00    -0.443 OA
ATOM     24  C   UNL     1     143.362 166.624 189.770  0.00  0.00    +0.250 A 
ATOM     25  N   UNL     1     144.052 167.705 190.094  0.00  0.00    -0.203 NA
ATOM     26  C   UNL     1     143.096 168.664 190.303  0.00  0.00    +0.164 A 
ATOM     27  C   UNL     1     141.846 168.128 190.109  0.00  0.00    +0.125 A 
ATOM     28  O   UNL     1     141.998 166.812 189.792  0.00  0.00    -0.442 OA
ATOM     29  C   UNL     1     143.384 170.147 190.686  0.00  0.00    +0.249 A 
ATOM     30  N   UNL     1     144.599 170.627 190.886  0.00  0.00    -0.212 NA
ATOM     31  C   UNL     1     144.412 171.962 191.171  0.00  0.00    +0.083 A 
ATOM     32  C   UNL     1     143.064 172.236 191.127  0.00  0.00    +0.116 A 
ATOM     33  O   UNL     1     142.396 171.089 190.830  0.00  0.00    -0.442 OA
ATOM     34  H   UNL     1     145.799 173.350 190.429  0.00  0.00    +0.037 HD
ATOM     35  H   UNL     1     146.687 171.787 192.918  0.00  0.00    +0.035 HD
ATOM     36  H   UNL     1     147.015 171.223 191.275  0.00  0.00    +0.035 HD
ATOM     37  H   UNL     1     149.942 173.518 192.657  0.00  0.00    +0.034 HD
ATOM     38  H   UNL     1     148.674 173.133 193.814  0.00  0.00    +0.034 HD
ATOM     39  H   UNL     1     150.454 171.428 193.808  0.00  0.00    +0.027 HD
ATOM     40  H   UNL     1     148.909 170.721 193.354  0.00  0.00    +0.027 HD
ATOM     41  H   UNL     1     150.954 171.617 191.266  0.00  0.00    +0.029 HD
ATOM     42  H   UNL     1     149.502 170.631 191.016  0.00  0.00    +0.029 HD
ATOM     43  H   UNL     1     150.616 168.991 192.769  0.00  0.00    +0.060 HD
ATOM     44  H   UNL     1     152.215 169.160 190.153  0.00  0.00    +0.040 HD
ATOM     45  H   UNL     1     150.496 168.735 190.105  0.00  0.00    +0.040 HD
ATOM     46  H   UNL     1     151.776 164.821 191.461  0.00  0.00    +0.074 HD
ATOM     47  H   UNL     1     148.825 164.639 190.712  0.00  0.00    +0.036 HD
ATOM     48  H   UNL     1     150.360 165.167 188.808  0.00  0.00    +0.060 HD
ATOM     49  H   UNL     1     149.327 162.298 188.524  0.00  0.00    +0.033 HD
ATOM     50  H   UNL     1     149.597 163.459 187.256  0.00  0.00    +0.033 HD
ATOM     51  H   UNL     1     147.787 164.987 188.313  0.00  0.00    +0.057 HD
ATOM     52  H   UNL     1     146.844 162.093 188.800  0.00  0.00    +0.067 HD
ATOM     53  H   UNL     1     142.369 163.755 189.177  0.00  0.00    +0.105 HD
ATOM     54  H   UNL     1     140.836 168.505 190.163  0.00  0.00    +0.105 HD
ATOM     55  H   UNL     1     142.461 173.123 191.259  0.00  0.00    +0.105 HD
ENDROOT
BRANCH   1  56
ATOM     56  C   UNL     1     145.235 174.003 192.390  0.00  0.00    -0.056 C 
ATOM     57  H   UNL     1     144.838 174.884 191.874  0.00  0.00    +0.024 HD
ATOM     58  H   UNL     1     146.119 174.329 192.944  0.00  0.00    +0.024 HD
ATOM     59  H   UNL     1     144.481 173.674 193.115  0.00  0.00    +0.024 HD
ENDBRANCH   1  56
BRANCH  14  60
ATOM     60  C   UNL     1     149.808 162.845 191.362  0.00  0.00    -0.057 C 
ATOM     61  H   UNL     1     148.827 162.376 191.258  0.00  0.00    +0.023 HD
ATOM     62  H   UNL     1     150.054 162.897 192.426  0.00  0.00    +0.023 HD
ATOM     63  H   UNL     1     150.547 162.178 190.909  0.00  0.00    +0.023 HD
ENDBRANCH  14  60
BRANCH  13  64
ATOM     64  C   UNL     1     150.329 165.395 192.969  0.00  0.00    +0.011 C 
ATOM     65  H   UNL     1     151.246 165.600 193.530  0.00  0.00    +0.033 HD
ATOM     66  H   UNL     1     149.940 164.447 193.358  0.00  0.00    +0.033 HD
BRANCH  64  67
ATOM     67  C   UNL     1     149.319 166.533 193.264  0.00  0.00    +0.064 C 
ATOM     68  H   UNL     1     149.755 167.482 192.929  0.00  0.00    +0.060 HD
BRANCH  67  69
ATOM     69  C   UNL     1     147.984 166.314 192.480  0.00  0.00    -0.017 C 
ATOM     70  H   UNL     1     148.158 165.501 191.762  0.00  0.00    +0.032 HD
BRANCH  69  71
ATOM     71  C   UNL     1     146.829 165.889 193.396  0.00  0.00    -0.060 C 
ATOM     72  H   UNL     1     146.945 166.297 194.406  0.00  0.00    +0.023 HD
ATOM     73  H   UNL     1     146.747 164.802 193.475  0.00  0.00    +0.023 HD
ATOM     74  H   UNL     1     145.869 166.225 193.000  0.00  0.00    +0.023 HD
ENDBRANCH  69  71
BRANCH  69  75
ATOM     75  C   UNL     1     147.617 167.585 191.672  0.00  0.00    -0.041 C 
ATOM     76  H   UNL     1     148.373 168.351 191.890  0.00  0.00    +0.027 HD
ATOM     77  H   UNL     1     146.656 167.991 192.009  0.00  0.00    +0.027 HD
BRANCH  75  78
ATOM     78  C   UNL     1     147.609 167.386 190.152  0.00  0.00    +0.007 C 
ATOM     79  H   UNL     1     148.557 166.931 189.848  0.00  0.00    +0.034 HD
ATOM     80  H   UNL     1     146.806 166.695 189.872  0.00  0.00    +0.034 HD
BRANCH  78  81
ATOM     81  C   UNL     1     147.477 168.668 189.336  0.00  0.00    +0.140 C 
ATOM     82  O   UNL     1     147.987 169.731 189.695  0.00  0.00    -0.297 OA
BRANCH  81  83
ATOM     83  C   UNL     1     146.674 168.560 188.046  0.00  0.00    +0.052 C 
ATOM     84  H   UNL     1     145.623 168.398 188.309  0.00  0.00    +0.041 HD
BRANCH  83  85
ATOM     85  C   UNL     1     146.763 169.899 187.307  0.00  0.00    -0.052 C 
ATOM     86  H   UNL     1     147.753 170.347 187.417  0.00  0.00    +0.024 HD
ATOM     87  H   UNL     1     146.574 169.779 186.237  0.00  0.00    +0.024 HD
ATOM     88  H   UNL     1     146.020 170.605 187.691  0.00  0.00    +0.024 HD
ENDBRANCH  83  85
BRANCH  83  89
ATOM     89  C   UNL     1     147.156 167.395 187.149  0.00  0.00    +0.118 C 
ATOM     90  H   UNL     1     147.355 166.522 187.781  0.00  0.00    +0.075 HD
BRANCH  89  91
ATOM     91  C   UNL     1     146.131 166.961 186.062  0.00  0.00    +0.014 C 
ATOM     92  H   UNL     1     146.392 167.510 185.158  0.00  0.00    +0.038 HD
BRANCH  91  93
ATOM     93  C   UNL     1     144.706 167.379 186.441  0.00  0.00    -0.056 C 
ATOM     94  H   UNL     1     144.574 168.468 186.430  0.00  0.00    +0.024 HD
ATOM     95  H   UNL     1     144.453 167.025 187.448  0.00  0.00    +0.024 HD
ATOM     96  H   UNL     1     143.980 166.943 185.746  0.00  0.00    +0.024 HD
ENDBRANCH  91  93
BRANCH  91  97
ATOM     97  C   UNL     1     146.162 165.472 185.794  0.00  0.00    -0.064 C 
ATOM     98  C   UNL     1     146.306 164.817 184.633  0.00  0.00    -0.010 C 
ATOM     99  H   UNL     1     146.124 164.856 186.695  0.00  0.00    +0.059 HD
ATOM    100  H   UNL     1     146.425 163.736 184.705  0.00  0.00    +0.078 HD
BRANCH  98 101
ATOM    101  N   UNL     1     146.393 165.235 183.315  0.00  0.00    -0.317 N 
BRANCH 101 102
ATOM    102  C   UNL     1     145.218 165.798 182.641  0.00  0.00    +0.002 C 
ATOM    103  H   UNL     1     144.356 165.840 183.321  0.00  0.00    +0.043 HD
ATOM    104  H   UNL     1     144.927 165.179 181.783  0.00  0.00    +0.043 HD
ATOM    105  H   UNL     1     145.428 166.814 182.292  0.00  0.00    +0.043 HD
ENDBRANCH 101 102
BRANCH 101 106
ATOM    106  C   UNL     1     147.641 165.470 182.600  0.00  0.00    +0.110 C 
ATOM    107  H   UNL     1     148.395 164.703 182.758  0.00  0.00    +0.077 HD
ATOM    108  H   UNL     1     147.476 165.561 181.522  0.00  0.00    +0.077 HD
BRANCH 106 109
ATOM    109  O   UNL     1     148.175 166.684 183.090  0.00  0.00    -0.377 OA
ATOM    110  H   UNL     1     148.499 167.102 182.272  0.00  0.00    +0.211 HD
ENDBRANCH 106 109
ENDBRANCH 101 106
ENDBRANCH  98 101
ENDBRANCH  91  97
ENDBRANCH  89  91
BRANCH  89 111
ATOM    111  O   UNL     1     148.373 167.839 186.489  0.00  0.00    -0.460 OA
BRANCH 111 112
ATOM    112  C   UNL     1     149.403 166.955 186.407  0.00  0.00    +0.304 C 
ATOM    113  O   UNL     1     149.492 166.023 185.623  0.00  0.00    -0.251 OA
BRANCH 112 114
ATOM    114  C   UNL     1     150.435 167.287 187.440  0.00  0.00    +0.033 C 
ATOM    115  H   UNL     1     150.267 168.298 187.821  0.00  0.00    +0.034 HD
ATOM    116  H   UNL     1     151.435 167.197 187.008  0.00  0.00    +0.034 HD
ATOM    117  H   UNL     1     150.352 166.582 188.274  0.00  0.00    +0.034 HD
ENDBRANCH 112 114
ENDBRANCH 111 112
ENDBRANCH  89 111
ENDBRANCH  83  89
ENDBRANCH  81  83
ENDBRANCH  78  81
ENDBRANCH  75  78
ENDBRANCH  69  75
ENDBRANCH  67  69
BRANCH  67 118
ATOM    118  O   UNL     1     149.029 166.574 194.663  0.00  0.00    -0.379 OA
BRANCH 118 119
ATOM    119  C   UNL     1     150.090 166.088 195.481  0.00  0.00    +0.037 C 
ATOM    120  H   UNL     1     150.813 165.531 194.880  0.00  0.00    +0.052 HD
ATOM    121  H   UNL     1     150.592 166.905 196.008  0.00  0.00    +0.052 HD
ATOM    122  H   UNL     1     149.661 165.409 196.225  0.00  0.00    +0.052 HD
ENDBRANCH 118 119
ENDBRANCH  67 118
ENDBRANCH  64  67
ENDBRANCH  13  64
BRANCH   8 123
ATOM    123  O   UNL     1     152.380 170.002 192.560  0.00  0.00    -0.391 OA
ATOM    124  H   UNL     1     152.877 169.188 192.782  0.00  0.00    +0.210 HD
ENDBRANCH   8 123
BRANCH  15 125
ATOM    125  O   UNL     1     151.565 163.506 189.150  0.00  0.00    -0.379 OA
BRANCH 125 126
ATOM    126  C   UNL     1     151.673 162.569 188.082  0.00  0.00    +0.037 C 
ATOM    127  H   UNL     1     152.101 163.051 187.196  0.00  0.00    +0.052 HD
ATOM    128  H   UNL     1     152.343 161.766 188.398  0.00  0.00    +0.052 HD
ATOM    129  H   UNL     1     150.698 162.133 187.842  0.00  0.00    +0.052 HD
ENDBRANCH 125 126
ENDBRANCH  15 125
TORSDOF 27
ENDMDL
MODEL 5
REMARK VINA RESULT:      -5.5      2.496      7.443
REMARK  Name = Ulapualide A_conf1
REMARK  27 active torsions:
REMARK  status: ('A' for Active; 'I' for Inactive)
REMARK    1  A    between atoms: C_1  and  C_2
REMARK    2  A    between atoms: C_9  and  O_63
REMARK    3  A    between atoms: C_14  and  C_38
REMARK    4  A    between atoms: C_15  and  C_37
REMARK    5  A    between atoms: C_16  and  O_35
REMARK    6  A    between atoms: O_35  and  C_36
REMARK    7  A    between atoms: C_38  and  C_39
REMARK    8  A    between atoms: C_39  and  C_40
REMARK    9  A    between atoms: C_39  and  O_61
REMARK   10  A    between atoms: C_40  and  C_41
REMARK   11  A    between atoms: C_40  and  C_42
REMARK   12  A    between atoms: C_42  and  C_43
REMARK   13  A    between atoms: C_43  and  C_44
REMARK   14  A    between atoms: C_44  and  C_46
REMARK   15  A    between atoms: C_46  and  C_47
REMARK   16  A    between atoms: C_46  and  C_48
REMARK   17  A    between atoms: C_48  and  C_49
REMARK   18  A    between atoms: C_48  and  O_57
REMARK   19  A    between atoms: C_49  and  C_50
REMARK   20  A    between atoms: C_49  and  C_51
REMARK   21  A    between atoms: C_52  and  N_53
REMARK   22  A    between atoms: N_53  and  C_54
REMARK   23  A    between atoms: N_53  and  C_55
REMARK   24  A    between atoms: C_55  and  O_56
REMARK   25  A    between atoms: O_57  and  C_58
REMARK   26  A    between atoms: C_58  and  C_60
REMARK   27  A    between atoms: O_61  and  C_62
REMARK                            x       y       z     vdW  Elec       q    Type
REMARK                         _______ _______ _______ _____ _____    ______ ____
ROOT
ATOM      1  C   UNL     1     143.446 171.690 190.937  0.00  0.00    +0.008 C 
ATOM      2  C   UNL     1     143.415 170.464 190.001  0.00  0.00    +0.014 C 
ATOM      3  C   UNL     1     142.027 169.864 189.908  0.00  0.00    +0.134 C 
ATOM      4  O   UNL     1     141.272 169.829 190.883  0.00  0.00    -0.297 OA
ATOM      5  C   UNL     1     141.578 169.306 188.573  0.00  0.00    +0.006 C 
ATOM      6  C   UNL     1     142.457 168.187 188.027  0.00  0.00    -0.044 C 
ATOM      7  C   UNL     1     142.599 166.993 188.983  0.00  0.00    -0.026 C 
ATOM      8  C   UNL     1     143.223 165.792 188.259  0.00  0.00    +0.065 C 
ATOM      9  C   UNL     1     143.786 164.760 189.234  0.00  0.00    +0.071 C 
ATOM     10  C   UNL     1     144.780 163.908 188.491  0.00  0.00    +0.310 C 
ATOM     11  O   UNL     1     144.479 163.154 187.573  0.00  0.00    -0.251 OA
ATOM     12  O   UNL     1     146.049 164.158 188.922  0.00  0.00    -0.461 OA
ATOM     13  C   UNL     1     147.116 163.699 188.057  0.00  0.00    +0.110 C 
ATOM     14  C   UNL     1     148.437 163.668 188.873  0.00  0.00    +0.020 C 
ATOM     15  C   UNL     1     148.282 162.787 190.151  0.00  0.00    +0.068 C 
ATOM     16  C   UNL     1     149.479 162.895 191.131  0.00  0.00    -0.008 C 
ATOM     17  C   UNL     1     149.782 164.318 191.492  0.00  0.00    -0.077 C 
ATOM     18  C   UNL     1     150.983 164.909 191.367  0.00  0.00    -0.003 C 
ATOM     19  C   UNL     1     151.113 166.308 191.599  0.00  0.00    +0.220 A 
ATOM     20  N   UNL     1     150.123 167.190 191.570  0.00  0.00    -0.205 NA
ATOM     21  C   UNL     1     150.703 168.400 191.851  0.00  0.00    +0.164 A 
ATOM     22  C   UNL     1     152.048 168.235 192.036  0.00  0.00    +0.125 A 
ATOM     23  O   UNL     1     152.333 166.914 191.849  0.00  0.00    -0.443 OA
ATOM     24  C   UNL     1     149.925 169.747 191.937  0.00  0.00    +0.250 A 
ATOM     25  N   UNL     1     148.641 169.852 191.641  0.00  0.00    -0.203 NA
ATOM     26  C   UNL     1     148.347 171.170 191.877  0.00  0.00    +0.164 A 
ATOM     27  C   UNL     1     149.475 171.830 192.301  0.00  0.00    +0.125 A 
ATOM     28  O   UNL     1     150.503 170.937 192.321  0.00  0.00    -0.442 OA
ATOM     29  C   UNL     1     146.941 171.818 191.706  0.00  0.00    +0.249 A 
ATOM     30  N   UNL     1     145.879 171.159 191.275  0.00  0.00    -0.212 NA
ATOM     31  C   UNL     1     144.854 172.079 191.300  0.00  0.00    +0.083 A 
ATOM     32  C   UNL     1     145.351 173.279 191.756  0.00  0.00    +0.116 A 
ATOM     33  O   UNL     1     146.680 173.132 192.008  0.00  0.00    -0.442 OA
ATOM     34  H   UNL     1     142.943 171.437 191.879  0.00  0.00    +0.037 HD
ATOM     35  H   UNL     1     143.761 170.746 189.001  0.00  0.00    +0.035 HD
ATOM     36  H   UNL     1     144.071 169.663 190.363  0.00  0.00    +0.035 HD
ATOM     37  H   UNL     1     140.549 168.947 188.681  0.00  0.00    +0.034 HD
ATOM     38  H   UNL     1     141.549 170.138 187.861  0.00  0.00    +0.034 HD
ATOM     39  H   UNL     1     142.024 167.851 187.075  0.00  0.00    +0.027 HD
ATOM     40  H   UNL     1     143.455 168.575 187.794  0.00  0.00    +0.027 HD
ATOM     41  H   UNL     1     141.613 166.720 189.376  0.00  0.00    +0.029 HD
ATOM     42  H   UNL     1     143.228 167.295 189.827  0.00  0.00    +0.029 HD
ATOM     43  H   UNL     1     143.995 166.145 187.570  0.00  0.00    +0.060 HD
ATOM     44  H   UNL     1     143.009 164.103 189.641  0.00  0.00    +0.040 HD
ATOM     45  H   UNL     1     144.295 165.242 190.074  0.00  0.00    +0.040 HD
ATOM     46  H   UNL     1     146.889 162.675 187.735  0.00  0.00    +0.074 HD
ATOM     47  H   UNL     1     148.640 164.690 189.207  0.00  0.00    +0.036 HD
ATOM     48  H   UNL     1     147.382 163.114 190.688  0.00  0.00    +0.060 HD
ATOM     49  H   UNL     1     150.357 162.387 190.715  0.00  0.00    +0.033 HD
ATOM     50  H   UNL     1     149.242 162.348 192.052  0.00  0.00    +0.033 HD
ATOM     51  H   UNL     1     148.926 164.913 191.820  0.00  0.00    +0.057 HD
ATOM     52  H   UNL     1     151.867 164.352 191.089  0.00  0.00    +0.067 HD
ATOM     53  H   UNL     1     152.880 168.888 192.245  0.00  0.00    +0.105 HD
ATOM     54  H   UNL     1     149.702 172.845 192.591  0.00  0.00    +0.105 HD
ATOM     55  H   UNL     1     144.929 174.254 191.955  0.00  0.00    +0.105 HD
ENDROOT
BRANCH   1  56
ATOM     56  C   UNL     1     142.683 172.858 190.295  0.00  0.00    -0.056 C 
ATOM     57  H   UNL     1     141.683 172.549 189.969  0.00  0.00    +0.024 HD
ATOM     58  H   UNL     1     143.204 173.235 189.412  0.00  0.00    +0.024 HD
ATOM     59  H   UNL     1     142.561 173.689 191.000  0.00  0.00    +0.024 HD
ENDBRANCH   1  56
BRANCH  14  60
ATOM     60  C   UNL     1     149.615 163.207 188.001  0.00  0.00    -0.057 C 
ATOM     61  H   UNL     1     150.542 163.157 188.578  0.00  0.00    +0.023 HD
ATOM     62  H   UNL     1     149.775 163.870 187.147  0.00  0.00    +0.023 HD
ATOM     63  H   UNL     1     149.426 162.212 187.586  0.00  0.00    +0.023 HD
ENDBRANCH  14  60
BRANCH  13  64
ATOM     64  C   UNL     1     147.176 164.611 186.804  0.00  0.00    +0.011 C 
ATOM     65  H   UNL     1     146.154 164.681 186.421  0.00  0.00    +0.033 HD
ATOM     66  H   UNL     1     147.762 164.117 186.021  0.00  0.00    +0.033 HD
BRANCH  64  67
ATOM     67  C   UNL     1     147.708 166.050 187.023  0.00  0.00    +0.064 C 
ATOM     68  H   UNL     1     148.156 166.109 188.022  0.00  0.00    +0.060 HD
BRANCH  67  69
ATOM     69  C   UNL     1     148.816 166.403 185.978  0.00  0.00    -0.017 C 
ATOM     70  H   UNL     1     149.317 165.463 185.705  0.00  0.00    +0.032 HD
BRANCH  69  71
ATOM     71  C   UNL     1     148.239 167.013 184.694  0.00  0.00    -0.060 C 
ATOM     72  H   UNL     1     148.951 166.955 183.865  0.00  0.00    +0.023 HD
ATOM     73  H   UNL     1     147.957 168.061 184.828  0.00  0.00    +0.023 HD
ATOM     74  H   UNL     1     147.322 166.502 184.394  0.00  0.00    +0.023 HD
ENDBRANCH  69  71
BRANCH  69  75
ATOM     75  C   UNL     1     149.879 167.337 186.611  0.00  0.00    -0.041 C 
ATOM     76  H   UNL     1     149.412 168.318 186.769  0.00  0.00    +0.027 HD
ATOM     77  H   UNL     1     150.713 167.496 185.918  0.00  0.00    +0.027 HD
BRANCH  75  78
ATOM     78  C   UNL     1     150.401 166.866 187.973  0.00  0.00    +0.007 C 
ATOM     79  H   UNL     1     150.107 167.592 188.737  0.00  0.00    +0.034 HD
ATOM     80  H   UNL     1     149.942 165.906 188.236  0.00  0.00    +0.034 HD
BRANCH  78  81
ATOM     81  C   UNL     1     151.918 166.742 188.072  0.00  0.00    +0.140 C 
ATOM     82  O   UNL     1     152.618 167.619 188.582  0.00  0.00    -0.297 OA
BRANCH  81  83
ATOM     83  C   UNL     1     152.524 165.466 187.502  0.00  0.00    +0.052 C 
ATOM     84  H   UNL     1     151.706 164.807 187.193  0.00  0.00    +0.041 HD
BRANCH  83  85
ATOM     85  C   UNL     1     153.324 165.828 186.246  0.00  0.00    -0.052 C 
ATOM     86  H   UNL     1     153.906 166.741 186.397  0.00  0.00    +0.024 HD
ATOM     87  H   UNL     1     154.023 165.034 185.974  0.00  0.00    +0.024 HD
ATOM     88  H   UNL     1     152.657 165.982 185.392  0.00  0.00    +0.024 HD
ENDBRANCH  83  85
BRANCH  83  89
ATOM     89  C   UNL     1     153.409 164.724 188.532  0.00  0.00    +0.118 C 
ATOM     90  H   UNL     1     153.260 165.178 189.517  0.00  0.00    +0.075 HD
BRANCH  89  91
ATOM     91  C   UNL     1     153.096 163.205 188.664  0.00  0.00    +0.014 C 
ATOM     92  H   UNL     1     152.014 163.108 188.589  0.00  0.00    +0.038 HD
BRANCH  91  93
ATOM     93  C   UNL     1     153.499 162.670 190.042  0.00  0.00    -0.056 C 
ATOM     94  H   UNL     1     154.525 162.949 190.312  0.00  0.00    +0.024 HD
ATOM     95  H   UNL     1     153.434 161.576 190.068  0.00  0.00    +0.024 HD
ATOM     96  H   UNL     1     152.828 163.059 190.816  0.00  0.00    +0.024 HD
ENDBRANCH  91  93
BRANCH  91  97
ATOM     97  C   UNL     1     153.768 162.377 187.590  0.00  0.00    -0.064 C 
ATOM     98  C   UNL     1     153.611 161.080 187.290  0.00  0.00    -0.010 C 
ATOM     99  H   UNL     1     154.425 162.950 186.931  0.00  0.00    +0.059 HD
ATOM    100  H   UNL     1     154.114 160.733 186.387  0.00  0.00    +0.078 HD
BRANCH  98 101
ATOM    101  N   UNL     1     152.880 160.056 187.871  0.00  0.00    -0.317 N 
BRANCH 101 102
ATOM    102  C   UNL     1     153.516 159.151 188.836  0.00  0.00    +0.002 C 
ATOM    103  H   UNL     1     153.319 158.101 188.580  0.00  0.00    +0.043 HD
ATOM    104  H   UNL     1     153.123 159.320 189.846  0.00  0.00    +0.043 HD
ATOM    105  H   UNL     1     154.600 159.303 188.845  0.00  0.00    +0.043 HD
ENDBRANCH 101 102
BRANCH 101 106
ATOM    106  C   UNL     1     151.426 159.966 187.861  0.00  0.00    +0.110 C 
ATOM    107  H   UNL     1     150.940 160.692 187.214  0.00  0.00    +0.077 HD
ATOM    108  H   UNL     1     151.086 158.970 187.563  0.00  0.00    +0.077 HD
BRANCH 106 109
ATOM    109  O   UNL     1     150.988 160.228 189.180  0.00  0.00    -0.377 OA
ATOM    110  H   UNL     1     150.020 160.192 189.078  0.00  0.00    +0.211 HD
ENDBRANCH 106 109
ENDBRANCH 101 106
ENDBRANCH  98 101
ENDBRANCH  91  97
ENDBRANCH  89  91
BRANCH  89 111
ATOM    111  O   UNL     1     154.788 164.877 188.099  0.00  0.00    -0.460 OA
BRANCH 111 112
ATOM    112  C   UNL     1     155.681 165.367 189.000  0.00  0.00    +0.304 C 
ATOM    113  O   UNL     1     155.598 166.435 189.589  0.00  0.00    -0.251 OA
BRANCH 112 114
ATOM    114  C   UNL     1     156.808 164.397 189.172  0.00  0.00    +0.033 C 
ATOM    115  H   UNL     1     157.763 164.913 189.044  0.00  0.00    +0.034 HD
ATOM    116  H   UNL     1     156.707 163.581 188.453  0.00  0.00    +0.034 HD
ATOM    117  H   UNL     1     156.773 163.976 190.183  0.00  0.00    +0.034 HD
ENDBRANCH 112 114
ENDBRANCH 111 112
ENDBRANCH  89 111
ENDBRANCH  83  89
ENDBRANCH  81  83
ENDBRANCH  78  81
ENDBRANCH  75  78
ENDBRANCH  69  75
ENDBRANCH  67  69
BRANCH  67 118
ATOM    118  O   UNL     1     146.637 166.989 186.892  0.00  0.00    -0.379 OA
BRANCH 118 119
ATOM    119  C   UNL     1     146.376 167.727 188.083  0.00  0.00    +0.037 C 
ATOM    120  H   UNL     1     145.337 168.066 188.103  0.00  0.00    +0.052 HD
ATOM    121  H   UNL     1     146.592 167.132 188.974  0.00  0.00    +0.052 HD
ATOM    122  H   UNL     1     147.027 168.606 188.087  0.00  0.00    +0.052 HD
ENDBRANCH 118 119
ENDBRANCH  67 118
ENDBRANCH  64  67
ENDBRANCH  13  64
BRANCH   8 123
ATOM    123  O   UNL     1     142.193 165.184 187.474  0.00  0.00    -0.391 OA
ATOM    124  H   UNL     1     142.294 164.216 187.574  0.00  0.00    +0.210 HD
ENDBRANCH   8 123
BRANCH  15 125
ATOM    125  O   UNL     1     148.127 161.421 189.737  0.00  0.00    -0.379 OA
BRANCH 125 126
ATOM    126  C   UNL     1     147.879 160.538 190.827  0.00  0.00    +0.037 C 
ATOM    127  H   UNL     1     146.802 160.370 190.943  0.00  0.00    +0.052 HD
ATOM    128  H   UNL     1     148.358 159.580 190.607  0.00  0.00    +0.052 HD
ATOM    129  H   UNL     1     148.302 160.932 191.756  0.00  0.00    +0.052 HD
ENDBRANCH 125 126
ENDBRANCH  15 125
TORSDOF 27
ENDMDL
MODEL 6
REMARK VINA RESULT:      -5.5      1.352      2.498
REMARK  Name = Ulapualide A_conf1
REMARK  27 active torsions:
REMARK  status: ('A' for Active; 'I' for Inactive)
REMARK    1  A    between atoms: C_1  and  C_2
REMARK    2  A    between atoms: C_9  and  O_63
REMARK    3  A    between atoms: C_14  and  C_38
REMARK    4  A    between atoms: C_15  and  C_37
REMARK    5  A    between atoms: C_16  and  O_35
REMARK    6  A    between atoms: O_35  and  C_36
REMARK    7  A    between atoms: C_38  and  C_39
REMARK    8  A    between atoms: C_39  and  C_40
REMARK    9  A    between atoms: C_39  and  O_61
REMARK   10  A    between atoms: C_40  and  C_41
REMARK   11  A    between atoms: C_40  and  C_42
REMARK   12  A    between atoms: C_42  and  C_43
REMARK   13  A    between atoms: C_43  and  C_44
REMARK   14  A    between atoms: C_44  and  C_46
REMARK   15  A    between atoms: C_46  and  C_47
REMARK   16  A    between atoms: C_46  and  C_48
REMARK   17  A    between atoms: C_48  and  C_49
REMARK   18  A    between atoms: C_48  and  O_57
REMARK   19  A    between atoms: C_49  and  C_50
REMARK   20  A    between atoms: C_49  and  C_51
REMARK   21  A    between atoms: C_52  and  N_53
REMARK   22  A    between atoms: N_53  and  C_54
REMARK   23  A    between atoms: N_53  and  C_55
REMARK   24  A    between atoms: C_55  and  O_56
REMARK   25  A    between atoms: O_57  and  C_58
REMARK   26  A    between atoms: C_58  and  C_60
REMARK   27  A    between atoms: O_61  and  C_62
REMARK                            x       y       z     vdW  Elec       q    Type
REMARK                         _______ _______ _______ _____ _____    ______ ____
ROOT
ATOM      1  C   UNL     1     151.747 168.066 190.208  0.00  0.00    +0.008 C 
ATOM      2  C   UNL     1     150.523 167.287 189.683  0.00  0.00    +0.014 C 
ATOM      3  C   UNL     1     150.874 166.434 188.481  0.00  0.00    +0.134 C 
ATOM      4  O   UNL     1     151.686 166.815 187.634  0.00  0.00    -0.297 OA
ATOM      5  C   UNL     1     150.202 165.083 188.344  0.00  0.00    +0.006 C 
ATOM      6  C   UNL     1     148.680 165.137 188.275  0.00  0.00    -0.044 C 
ATOM      7  C   UNL     1     148.145 166.019 187.136  0.00  0.00    -0.026 C 
ATOM      8  C   UNL     1     146.642 165.783 186.930  0.00  0.00    +0.065 C 
ATOM      9  C   UNL     1     145.984 166.915 186.145  0.00  0.00    +0.071 C 
ATOM     10  C   UNL     1     144.503 166.869 186.411  0.00  0.00    +0.310 C 
ATOM     11  O   UNL     1     143.776 165.947 186.057  0.00  0.00    -0.251 OA
ATOM     12  O   UNL     1     144.113 167.937 187.162  0.00  0.00    -0.461 OA
ATOM     13  C   UNL     1     142.816 167.827 187.798  0.00  0.00    +0.110 C 
ATOM     14  C   UNL     1     142.354 169.245 188.230  0.00  0.00    +0.020 C 
ATOM     15  C   UNL     1     142.343 170.222 187.014  0.00  0.00    +0.068 C 
ATOM     16  C   UNL     1     142.118 171.705 187.408  0.00  0.00    -0.008 C 
ATOM     17  C   UNL     1     143.089 172.161 188.456  0.00  0.00    -0.077 C 
ATOM     18  C   UNL     1     142.752 172.728 189.627  0.00  0.00    -0.003 C 
ATOM     19  C   UNL     1     143.754 172.980 190.607  0.00  0.00    +0.220 A 
ATOM     20  N   UNL     1     144.940 172.391 190.666  0.00  0.00    -0.205 NA
ATOM     21  C   UNL     1     145.566 172.939 191.756  0.00  0.00    +0.164 A 
ATOM     22  C   UNL     1     144.741 173.850 192.354  0.00  0.00    +0.125 A 
ATOM     23  O   UNL     1     143.569 173.869 191.654  0.00  0.00    -0.443 OA
ATOM     24  C   UNL     1     147.003 172.559 192.225  0.00  0.00    +0.250 A 
ATOM     25  N   UNL     1     147.707 171.590 191.664  0.00  0.00    -0.203 NA
ATOM     26  C   UNL     1     148.900 171.607 192.337  0.00  0.00    +0.164 A 
ATOM     27  C   UNL     1     148.879 172.586 193.301  0.00  0.00    +0.125 A 
ATOM     28  O   UNL     1     147.658 173.190 193.260  0.00  0.00    -0.442 OA
ATOM     29  C   UNL     1     150.108 170.669 192.042  0.00  0.00    +0.249 A 
ATOM     30  N   UNL     1     150.090 169.721 191.121  0.00  0.00    -0.212 NA
ATOM     31  C   UNL     1     151.345 169.156 191.167  0.00  0.00    +0.083 A 
ATOM     32  C   UNL     1     152.084 169.801 192.132  0.00  0.00    +0.116 A 
ATOM     33  O   UNL     1     151.307 170.759 192.705  0.00  0.00    -0.442 OA
ATOM     34  H   UNL     1     152.245 168.564 189.366  0.00  0.00    +0.037 HD
ATOM     35  H   UNL     1     150.114 166.653 190.477  0.00  0.00    +0.035 HD
ATOM     36  H   UNL     1     149.724 167.963 189.356  0.00  0.00    +0.035 HD
ATOM     37  H   UNL     1     150.594 164.597 187.443  0.00  0.00    +0.034 HD
ATOM     38  H   UNL     1     150.515 164.471 189.196  0.00  0.00    +0.034 HD
ATOM     39  H   UNL     1     148.311 164.110 188.155  0.00  0.00    +0.027 HD
ATOM     40  H   UNL     1     148.276 165.503 189.226  0.00  0.00    +0.027 HD
ATOM     41  H   UNL     1     148.689 165.791 186.211  0.00  0.00    +0.029 HD
ATOM     42  H   UNL     1     148.333 167.068 187.389  0.00  0.00    +0.029 HD
ATOM     43  H   UNL     1     146.161 165.644 187.901  0.00  0.00    +0.060 HD
ATOM     44  H   UNL     1     146.141 166.820 185.064  0.00  0.00    +0.040 HD
ATOM     45  H   UNL     1     146.367 167.892 186.457  0.00  0.00    +0.040 HD
ATOM     46  H   UNL     1     142.097 167.443 187.063  0.00  0.00    +0.074 HD
ATOM     47  H   UNL     1     143.090 169.627 188.945  0.00  0.00    +0.036 HD
ATOM     48  H   UNL     1     143.317 170.157 186.510  0.00  0.00    +0.060 HD
ATOM     49  H   UNL     1     141.080 171.860 187.723  0.00  0.00    +0.033 HD
ATOM     50  H   UNL     1     142.246 172.338 186.521  0.00  0.00    +0.033 HD
ATOM     51  H   UNL     1     144.139 171.944 188.250  0.00  0.00    +0.057 HD
ATOM     52  H   UNL     1     141.731 173.001 189.857  0.00  0.00    +0.067 HD
ATOM     53  H   UNL     1     144.798 174.485 193.223  0.00  0.00    +0.105 HD
ATOM     54  H   UNL     1     149.577 172.945 194.041  0.00  0.00    +0.105 HD
ATOM     55  H   UNL     1     153.096 169.719 192.500  0.00  0.00    +0.105 HD
ENDROOT
BRANCH   1  56
ATOM     56  C   UNL     1     152.753 167.096 190.842  0.00  0.00    -0.056 C 
ATOM     57  H   UNL     1     153.065 166.324 190.130  0.00  0.00    +0.024 HD
ATOM     58  H   UNL     1     152.319 166.580 191.703  0.00  0.00    +0.024 HD
ATOM     59  H   UNL     1     153.655 167.621 191.179  0.00  0.00    +0.024 HD
ENDBRANCH   1  56
BRANCH  14  60
ATOM     60  C   UNL     1     140.988 169.192 188.931  0.00  0.00    -0.057 C 
ATOM     61  H   UNL     1     141.070 168.758 189.931  0.00  0.00    +0.023 HD
ATOM     62  H   UNL     1     140.258 168.611 188.362  0.00  0.00    +0.023 HD
ATOM     63  H   UNL     1     140.566 170.196 189.037  0.00  0.00    +0.023 HD
ENDBRANCH  14  60
BRANCH  13  64
ATOM     64  C   UNL     1     142.914 166.817 188.970  0.00  0.00    +0.011 C 
ATOM     65  H   UNL     1     142.450 165.890 188.622  0.00  0.00    +0.033 HD
ATOM     66  H   UNL     1     142.301 167.170 189.807  0.00  0.00    +0.033 HD
BRANCH  64  67
ATOM     67  C   UNL     1     144.340 166.482 189.476  0.00  0.00    +0.064 C 
ATOM     68  H   UNL     1     145.068 166.955 188.806  0.00  0.00    +0.060 HD
BRANCH  67  69
ATOM     69  C   UNL     1     144.572 167.048 190.914  0.00  0.00    -0.017 C 
ATOM     70  H   UNL     1     144.883 168.096 190.806  0.00  0.00    +0.032 HD
BRANCH  69  71
ATOM     71  C   UNL     1     143.297 167.024 191.767  0.00  0.00    -0.060 C 
ATOM     72  H   UNL     1     143.204 167.929 192.377  0.00  0.00    +0.023 HD
ATOM     73  H   UNL     1     143.264 166.159 192.434  0.00  0.00    +0.023 HD
ATOM     74  H   UNL     1     142.407 166.942 191.140  0.00  0.00    +0.023 HD
ENDBRANCH  69  71
BRANCH  69  75
ATOM     75  C   UNL     1     145.726 166.286 191.616  0.00  0.00    -0.041 C 
ATOM     76  H   UNL     1     146.661 166.821 191.402  0.00  0.00    +0.027 HD
ATOM     77  H   UNL     1     145.838 165.281 191.191  0.00  0.00    +0.027 HD
BRANCH  75  78
ATOM     78  C   UNL     1     145.595 166.207 193.141  0.00  0.00    +0.007 C 
ATOM     79  H   UNL     1     145.354 167.202 193.528  0.00  0.00    +0.034 HD
ATOM     80  H   UNL     1     144.768 165.540 193.410  0.00  0.00    +0.034 HD
BRANCH  78  81
ATOM     81  C   UNL     1     146.858 165.764 193.873  0.00  0.00    +0.140 C 
ATOM     82  O   UNL     1     146.849 165.442 195.062  0.00  0.00    -0.297 OA
BRANCH  81  83
ATOM     83  C   UNL     1     148.137 165.742 193.047  0.00  0.00    +0.052 C 
ATOM     84  H   UNL     1     147.866 165.562 192.001  0.00  0.00    +0.041 HD
BRANCH  83  85
ATOM     85  C   UNL     1     148.787 167.127 193.122  0.00  0.00    -0.052 C 
ATOM     86  H   UNL     1     149.489 167.281 192.299  0.00  0.00    +0.024 HD
ATOM     87  H   UNL     1     148.040 167.924 193.070  0.00  0.00    +0.024 HD
ATOM     88  H   UNL     1     149.329 167.251 194.065  0.00  0.00    +0.024 HD
ENDBRANCH  83  85
BRANCH  83  89
ATOM     89  C   UNL     1     149.118 164.639 193.511  0.00  0.00    +0.118 C 
ATOM     90  H   UNL     1     148.616 164.010 194.254  0.00  0.00    +0.075 HD
BRANCH  89  91
ATOM     91  C   UNL     1     149.617 163.707 192.369  0.00  0.00    +0.014 C 
ATOM     92  H   UNL     1     149.791 162.733 192.822  0.00  0.00    +0.038 HD
BRANCH  91  93
ATOM     93  C   UNL     1     150.960 164.185 191.806  0.00  0.00    -0.056 C 
ATOM     94  H   UNL     1     151.511 163.378 191.306  0.00  0.00    +0.024 HD
ATOM     95  H   UNL     1     151.599 164.576 192.606  0.00  0.00    +0.024 HD
ATOM     96  H   UNL     1     150.807 164.991 191.080  0.00  0.00    +0.024 HD
ENDBRANCH  91  93
BRANCH  91  97
ATOM     97  C   UNL     1     148.616 163.585 191.240  0.00  0.00    -0.064 C 
ATOM     98  C   UNL     1     148.221 162.496 190.565  0.00  0.00    -0.010 C 
ATOM     99  H   UNL     1     148.104 164.518 190.995  0.00  0.00    +0.059 HD
ATOM    100  H   UNL     1     147.389 162.636 189.874  0.00  0.00    +0.078 HD
BRANCH  98 101
ATOM    101  N   UNL     1     148.618 161.169 190.594  0.00  0.00    -0.317 N 
BRANCH 101 102
ATOM    102  C   UNL     1     147.616 160.098 190.632  0.00  0.00    +0.002 C 
ATOM    103  H   UNL     1     148.087 159.113 190.513  0.00  0.00    +0.043 HD
ATOM    104  H   UNL     1     146.890 160.214 189.818  0.00  0.00    +0.043 HD
ATOM    105  H   UNL     1     147.082 160.109 191.588  0.00  0.00    +0.043 HD
ENDBRANCH 101 102
BRANCH 101 106
ATOM    106  C   UNL     1     149.959 160.698 190.269  0.00  0.00    +0.110 C 
ATOM    107  H   UNL     1     150.002 160.041 189.404  0.00  0.00    +0.077 HD
ATOM    108  H   UNL     1     150.646 161.530 190.094  0.00  0.00    +0.077 HD
BRANCH 106 109
ATOM    109  O   UNL     1     150.413 159.950 191.380  0.00  0.00    -0.377 OA
ATOM    110  H   UNL     1     150.135 160.513 192.125  0.00  0.00    +0.211 HD
ENDBRANCH 106 109
ENDBRANCH 101 106
ENDBRANCH  98 101
ENDBRANCH  91  97
ENDBRANCH  89  91
BRANCH  89 111
ATOM    111  O   UNL     1     150.267 165.309 194.099  0.00  0.00    -0.460 OA
BRANCH 111 112
ATOM    112  C   UNL     1     150.599 164.986 195.377  0.00  0.00    +0.304 C 
ATOM    113  O   UNL     1     150.957 163.887 195.773  0.00  0.00    -0.251 OA
BRANCH 112 114
ATOM    114  C   UNL     1     150.455 166.191 196.255  0.00  0.00    +0.033 C 
ATOM    115  H   UNL     1     151.257 166.207 196.997  0.00  0.00    +0.034 HD
ATOM    116  H   UNL     1     149.476 166.180 196.741  0.00  0.00    +0.034 HD
ATOM    117  H   UNL     1     150.529 167.096 195.642  0.00  0.00    +0.034 HD
ENDBRANCH 112 114
ENDBRANCH 111 112
ENDBRANCH  89 111
ENDBRANCH  83  89
ENDBRANCH  81  83
ENDBRANCH  78  81
ENDBRANCH  75  78
ENDBRANCH  69  75
ENDBRANCH  67  69
BRANCH  67 118
ATOM    118  O   UNL     1     144.524 165.064 189.504  0.00  0.00    -0.379 OA
BRANCH 118 119
ATOM    119  C   UNL     1     143.365 164.330 189.119  0.00  0.00    +0.037 C 
ATOM    120  H   UNL     1     143.259 164.324 188.031  0.00  0.00    +0.052 HD
ATOM    121  H   UNL     1     143.402 163.304 189.497  0.00  0.00    +0.052 HD
ATOM    122  H   UNL     1     142.490 164.826 189.550  0.00  0.00    +0.052 HD
ENDBRANCH 118 119
ENDBRANCH  67 118
ENDBRANCH  64  67
ENDBRANCH  13  64
BRANCH   8 123
ATOM    123  O   UNL     1     146.498 164.560 186.202  0.00  0.00    -0.391 OA
ATOM    124  H   UNL     1     145.606 164.212 186.405  0.00  0.00    +0.210 HD
ENDBRANCH   8 123
BRANCH  15 125
ATOM    125  O   UNL     1     141.305 169.806 186.113  0.00  0.00    -0.379 OA
BRANCH 125 126
ATOM    126  C   UNL     1     140.569 170.900 185.575  0.00  0.00    +0.037 C 
ATOM    127  H   UNL     1     141.241 171.594 185.059  0.00  0.00    +0.052 HD
ATOM    128  H   UNL     1     139.853 170.506 184.849  0.00  0.00    +0.052 HD
ATOM    129  H   UNL     1     140.014 171.425 186.360  0.00  0.00    +0.052 HD
ENDBRANCH 125 126
ENDBRANCH  15 125
TORSDOF 27
ENDMDL
MODEL 7
REMARK VINA RESULT:      -5.5      2.408      9.096
REMARK  Name = Ulapualide A_conf1
REMARK  27 active torsions:
REMARK  status: ('A' for Active; 'I' for Inactive)
REMARK    1  A    between atoms: C_1  and  C_2
REMARK    2  A    between atoms: C_9  and  O_63
REMARK    3  A    between atoms: C_14  and  C_38
REMARK    4  A    between atoms: C_15  and  C_37
REMARK    5  A    between atoms: C_16  and  O_35
REMARK    6  A    between atoms: O_35  and  C_36
REMARK    7  A    between atoms: C_38  and  C_39
REMARK    8  A    between atoms: C_39  and  C_40
REMARK    9  A    between atoms: C_39  and  O_61
REMARK   10  A    between atoms: C_40  and  C_41
REMARK   11  A    between atoms: C_40  and  C_42
REMARK   12  A    between atoms: C_42  and  C_43
REMARK   13  A    between atoms: C_43  and  C_44
REMARK   14  A    between atoms: C_44  and  C_46
REMARK   15  A    between atoms: C_46  and  C_47
REMARK   16  A    between atoms: C_46  and  C_48
REMARK   17  A    between atoms: C_48  and  C_49
REMARK   18  A    between atoms: C_48  and  O_57
REMARK   19  A    between atoms: C_49  and  C_50
REMARK   20  A    between atoms: C_49  and  C_51
REMARK   21  A    between atoms: C_52  and  N_53
REMARK   22  A    between atoms: N_53  and  C_54
REMARK   23  A    between atoms: N_53  and  C_55
REMARK   24  A    between atoms: C_55  and  O_56
REMARK   25  A    between atoms: O_57  and  C_58
REMARK   26  A    between atoms: C_58  and  C_60
REMARK   27  A    between atoms: O_61  and  C_62
REMARK                            x       y       z     vdW  Elec       q    Type
REMARK                         _______ _______ _______ _____ _____    ______ ____
ROOT
ATOM      1  C   UNL     1     145.483 172.660 191.185  0.00  0.00    +0.008 C 
ATOM      2  C   UNL     1     146.725 171.912 191.714  0.00  0.00    +0.014 C 
ATOM      3  C   UNL     1     147.974 172.765 191.626  0.00  0.00    +0.134 C 
ATOM      4  O   UNL     1     148.161 173.541 190.686  0.00  0.00    -0.297 OA
ATOM      5  C   UNL     1     148.999 172.647 192.736  0.00  0.00    +0.006 C 
ATOM      6  C   UNL     1     149.570 171.246 192.923  0.00  0.00    -0.044 C 
ATOM      7  C   UNL     1     150.218 170.670 191.656  0.00  0.00    -0.026 C 
ATOM      8  C   UNL     1     151.036 169.415 191.990  0.00  0.00    +0.065 C 
ATOM      9  C   UNL     1     151.325 168.569 190.751  0.00  0.00    +0.071 C 
ATOM     10  C   UNL     1     151.668 167.176 191.206  0.00  0.00    +0.310 C 
ATOM     11  O   UNL     1     152.668 166.900 191.859  0.00  0.00    -0.251 OA
ATOM     12  O   UNL     1     150.680 166.300 190.867  0.00  0.00    -0.461 OA
ATOM     13  C   UNL     1     150.698 165.025 191.556  0.00  0.00    +0.110 C 
ATOM     14  C   UNL     1     149.813 164.023 190.766  0.00  0.00    +0.020 C 
ATOM     15  C   UNL     1     150.287 163.908 189.284  0.00  0.00    +0.068 C 
ATOM     16  C   UNL     1     149.315 163.108 188.380  0.00  0.00    -0.008 C 
ATOM     17  C   UNL     1     147.913 163.635 188.457  0.00  0.00    -0.077 C 
ATOM     18  C   UNL     1     146.826 162.900 188.751  0.00  0.00    -0.003 C 
ATOM     19  C   UNL     1     145.569 163.540 188.945  0.00  0.00    +0.220 A 
ATOM     20  N   UNL     1     145.393 164.822 189.235  0.00  0.00    -0.205 NA
ATOM     21  C   UNL     1     144.035 164.993 189.326  0.00  0.00    +0.164 A 
ATOM     22  C   UNL     1     143.404 163.802 189.098  0.00  0.00    +0.125 A 
ATOM     23  O   UNL     1     144.365 162.858 188.884  0.00  0.00    -0.443 OA
ATOM     24  C   UNL     1     143.342 166.351 189.645  0.00  0.00    +0.250 A 
ATOM     25  N   UNL     1     144.017 167.444 189.961  0.00  0.00    -0.203 NA
ATOM     26  C   UNL     1     143.051 168.401 190.127  0.00  0.00    +0.164 A 
ATOM     27  C   UNL     1     141.809 167.852 189.917  0.00  0.00    +0.125 A 
ATOM     28  O   UNL     1     141.976 166.531 189.632  0.00  0.00    -0.442 OA
ATOM     29  C   UNL     1     143.321 169.893 190.484  0.00  0.00    +0.249 A 
ATOM     30  N   UNL     1     144.528 170.386 190.701  0.00  0.00    -0.212 NA
ATOM     31  C   UNL     1     144.326 171.725 190.952  0.00  0.00    +0.083 A 
ATOM     32  C   UNL     1     142.977 171.990 190.872  0.00  0.00    +0.116 A 
ATOM     33  O   UNL     1     142.324 170.832 190.586  0.00  0.00    -0.442 OA
ATOM     34  H   UNL     1     145.720 173.107 190.211  0.00  0.00    +0.037 HD
ATOM     35  H   UNL     1     146.563 171.604 192.752  0.00  0.00    +0.035 HD
ATOM     36  H   UNL     1     146.930 171.007 191.130  0.00  0.00    +0.035 HD
ATOM     37  H   UNL     1     149.811 173.351 192.526  0.00  0.00    +0.034 HD
ATOM     38  H   UNL     1     148.521 172.982 193.663  0.00  0.00    +0.034 HD
ATOM     39  H   UNL     1     150.311 171.290 193.733  0.00  0.00    +0.027 HD
ATOM     40  H   UNL     1     148.781 170.563 193.260  0.00  0.00    +0.027 HD
ATOM     41  H   UNL     1     150.867 171.427 191.200  0.00  0.00    +0.029 HD
ATOM     42  H   UNL     1     149.427 170.427 190.938  0.00  0.00    +0.029 HD
ATOM     43  H   UNL     1     150.512 168.832 192.751  0.00  0.00    +0.060 HD
ATOM     44  H   UNL     1     152.168 168.956 190.168  0.00  0.00    +0.040 HD
ATOM     45  H   UNL     1     150.453 168.518 190.091  0.00  0.00    +0.040 HD
ATOM     46  H   UNL     1     151.727 164.643 191.559  0.00  0.00    +0.074 HD
ATOM     47  H   UNL     1     148.795 164.425 190.750  0.00  0.00    +0.036 HD
ATOM     48  H   UNL     1     150.368 164.922 188.869  0.00  0.00    +0.060 HD
ATOM     49  H   UNL     1     149.360 162.041 188.625  0.00  0.00    +0.033 HD
ATOM     50  H   UNL     1     149.651 163.176 187.338  0.00  0.00    +0.033 HD
ATOM     51  H   UNL     1     147.808 164.714 188.322  0.00  0.00    +0.057 HD
ATOM     52  H   UNL     1     146.873 161.825 188.850  0.00  0.00    +0.067 HD
ATOM     53  H   UNL     1     142.380 163.464 189.092  0.00  0.00    +0.105 HD
ATOM     54  H   UNL     1     140.796 168.223 189.941  0.00  0.00    +0.105 HD
ATOM     55  H   UNL     1     142.366 172.875 190.972  0.00  0.00    +0.105 HD
ENDROOT
BRANCH   1  56
ATOM     56  C   UNL     1     145.109 173.798 192.145  0.00  0.00    -0.056 C 
ATOM     57  H   UNL     1     144.062 174.097 192.019  0.00  0.00    +0.024 HD
ATOM     58  H   UNL     1     145.718 174.687 191.964  0.00  0.00    +0.024 HD
ATOM     59  H   UNL     1     145.246 173.498 193.191  0.00  0.00    +0.024 HD
ENDBRANCH   1  56
BRANCH  14  60
ATOM     60  C   UNL     1     149.775 162.652 191.460  0.00  0.00    -0.057 C 
ATOM     61  H   UNL     1     148.847 162.119 191.238  0.00  0.00    +0.023 HD
ATOM     62  H   UNL     1     149.870 162.741 192.545  0.00  0.00    +0.023 HD
ATOM     63  H   UNL     1     150.608 162.025 191.130  0.00  0.00    +0.023 HD
ENDBRANCH  14  60
BRANCH  13  64
ATOM     64  C   UNL     1     150.243 165.239 193.023  0.00  0.00    +0.011 C 
ATOM     65  H   UNL     1     151.155 165.315 193.623  0.00  0.00    +0.033 HD
ATOM     66  H   UNL     1     149.719 164.344 193.376  0.00  0.00    +0.033 HD
BRANCH  64  67
ATOM     67  C   UNL     1     149.377 166.493 193.302  0.00  0.00    +0.064 C 
ATOM     68  H   UNL     1     149.857 167.361 192.833  0.00  0.00    +0.060 HD
BRANCH  67  69
ATOM     69  C   UNL     1     147.951 166.339 192.680  0.00  0.00    -0.017 C 
ATOM     70  H   UNL     1     147.908 165.349 192.206  0.00  0.00    +0.032 HD
BRANCH  69  71
ATOM     71  C   UNL     1     146.841 166.400 193.738  0.00  0.00    -0.060 C 
ATOM     72  H   UNL     1     146.888 165.545 194.421  0.00  0.00    +0.023 HD
ATOM     73  H   UNL     1     145.845 166.420 193.287  0.00  0.00    +0.023 HD
ATOM     74  H   UNL     1     146.910 167.314 194.329  0.00  0.00    +0.023 HD
ENDBRANCH  69  71
BRANCH  69  75
ATOM     75  C   UNL     1     147.726 167.401 191.573  0.00  0.00    -0.041 C 
ATOM     76  H   UNL     1     148.594 168.073 191.571  0.00  0.00    +0.027 HD
ATOM     77  H   UNL     1     146.852 168.021 191.807  0.00  0.00    +0.027 HD
BRANCH  75  78
ATOM     78  C   UNL     1     147.605 166.822 190.159  0.00  0.00    +0.007 C 
ATOM     79  H   UNL     1     148.488 166.209 189.950  0.00  0.00    +0.034 HD
ATOM     80  H   UNL     1     146.728 166.168 190.098  0.00  0.00    +0.034 HD
BRANCH  78  81
ATOM     81  C   UNL     1     147.538 167.859 189.043  0.00  0.00    +0.140 C 
ATOM     82  O   UNL     1     147.562 169.071 189.269  0.00  0.00    -0.297 OA
BRANCH  81  83
ATOM     83  C   UNL     1     147.439 167.311 187.626  0.00  0.00    +0.052 C 
ATOM     84  H   UNL     1     147.674 166.242 187.655  0.00  0.00    +0.041 HD
BRANCH  83  85
ATOM     85  C   UNL     1     145.989 167.452 187.151  0.00  0.00    -0.052 C 
ATOM     86  H   UNL     1     145.918 167.366 186.064  0.00  0.00    +0.024 HD
ATOM     87  H   UNL     1     145.349 166.679 187.585  0.00  0.00    +0.024 HD
ATOM     88  H   UNL     1     145.575 168.420 187.448  0.00  0.00    +0.024 HD
ENDBRANCH  83  85
BRANCH  83  89
ATOM     89  C   UNL     1     148.415 168.016 186.653  0.00  0.00    +0.118 C 
ATOM     90  H   UNL     1     148.741 168.960 187.103  0.00  0.00    +0.075 HD
BRANCH  89  91
ATOM     91  C   UNL     1     149.692 167.190 186.321  0.00  0.00    +0.014 C 
ATOM     92  H   UNL     1     150.228 167.750 185.556  0.00  0.00    +0.038 HD
BRANCH  91  93
ATOM     93  C   UNL     1     149.333 165.831 185.711  0.00  0.00    -0.056 C 
ATOM     94  H   UNL     1     148.598 165.919 184.901  0.00  0.00    +0.024 HD
ATOM     95  H   UNL     1     148.911 165.164 186.471  0.00  0.00    +0.024 HD
ATOM     96  H   UNL     1     150.227 165.345 185.304  0.00  0.00    +0.024 HD
ENDBRANCH  91  93
BRANCH  91  97
ATOM     97  C   UNL     1     150.577 166.979 187.529  0.00  0.00    -0.064 C 
ATOM     98  C   UNL     1     151.898 166.754 187.590  0.00  0.00    -0.010 C 
ATOM     99  H   UNL     1     150.063 167.093 188.485  0.00  0.00    +0.059 HD
ATOM    100  H   UNL     1     152.340 166.758 188.587  0.00  0.00    +0.078 HD
BRANCH  98 101
ATOM    101  N   UNL     1     152.871 166.560 186.622  0.00  0.00    -0.317 N 
BRANCH 101 102
ATOM    102  C   UNL     1     154.153 167.268 186.712  0.00  0.00    +0.002 C 
ATOM    103  H   UNL     1     154.429 167.707 185.744  0.00  0.00    +0.043 HD
ATOM    104  H   UNL     1     154.958 166.581 187.001  0.00  0.00    +0.043 HD
ATOM    105  H   UNL     1     154.092 168.075 187.449  0.00  0.00    +0.043 HD
ENDBRANCH 101 102
BRANCH 101 106
ATOM    106  C   UNL     1     152.878 165.464 185.661  0.00  0.00    +0.110 C 
ATOM    107  H   UNL     1     152.135 165.559 184.873  0.00  0.00    +0.077 HD
ATOM    108  H   UNL     1     153.858 165.351 185.188  0.00  0.00    +0.077 HD
BRANCH 106 109
ATOM    109  O   UNL     1     152.572 164.285 186.380  0.00  0.00    -0.377 OA
ATOM    110  H   UNL     1     152.838 164.530 187.284  0.00  0.00    +0.211 HD
ENDBRANCH 106 109
ENDBRANCH 101 106
ENDBRANCH  98 101
ENDBRANCH  91  97
ENDBRANCH  89  91
BRANCH  89 111
ATOM    111  O   UNL     1     147.686 168.261 185.419  0.00  0.00    -0.460 OA
BRANCH 111 112
ATOM    112  C   UNL     1     147.535 169.553 185.023  0.00  0.00    +0.304 C 
ATOM    113  O   UNL     1     148.051 170.531 185.542  0.00  0.00    -0.251 OA
BRANCH 112 114
ATOM    114  C   UNL     1     146.622 169.613 183.837  0.00  0.00    +0.033 C 
ATOM    115  H   UNL     1     147.211 169.664 182.918  0.00  0.00    +0.034 HD
ATOM    116  H   UNL     1     145.960 170.477 183.923  0.00  0.00    +0.034 HD
ATOM    117  H   UNL     1     146.008 168.706 183.807  0.00  0.00    +0.034 HD
ENDBRANCH 112 114
ENDBRANCH 111 112
ENDBRANCH  89 111
ENDBRANCH  83  89
ENDBRANCH  81  83
ENDBRANCH  78  81
ENDBRANCH  75  78
ENDBRANCH  69  75
ENDBRANCH  67  69
BRANCH  67 118
ATOM    118  O   UNL     1     149.246 166.689 194.712  0.00  0.00    -0.379 OA
BRANCH 118 119
ATOM    119  C   UNL     1     150.313 166.125 195.469  0.00  0.00    +0.037 C 
ATOM    120  H   UNL     1     150.219 165.037 195.512  0.00  0.00    +0.052 HD
ATOM    121  H   UNL     1     151.286 166.400 195.050  0.00  0.00    +0.052 HD
ATOM    122  H   UNL     1     150.251 166.518 196.488  0.00  0.00    +0.052 HD
ENDBRANCH 118 119
ENDBRANCH  67 118
ENDBRANCH  64  67
ENDBRANCH  13  64
BRANCH   8 123
ATOM    123  O   UNL     1     152.274 169.851 192.560  0.00  0.00    -0.391 OA
ATOM    124  H   UNL     1     152.956 169.756 191.864  0.00  0.00    +0.210 HD
ENDBRANCH   8 123
BRANCH  15 125
ATOM    125  O   UNL     1     151.576 163.277 189.273  0.00  0.00    -0.379 OA
BRANCH 125 126
ATOM    126  C   UNL     1     151.567 162.012 188.618  0.00  0.00    +0.037 C 
ATOM    127  H   UNL     1     151.006 161.281 189.210  0.00  0.00    +0.052 HD
ATOM    128  H   UNL     1     151.070 162.131 187.652  0.00  0.00    +0.052 HD
ATOM    129  H   UNL     1     152.587 161.654 188.442  0.00  0.00    +0.052 HD
ENDBRANCH 125 126
ENDBRANCH  15 125
TORSDOF 27
ENDMDL
MODEL 8
REMARK VINA RESULT:      -5.4      2.801      5.690
REMARK  Name = Ulapualide A_conf1
REMARK  27 active torsions:
REMARK  status: ('A' for Active; 'I' for Inactive)
REMARK    1  A    between atoms: C_1  and  C_2
REMARK    2  A    between atoms: C_9  and  O_63
REMARK    3  A    between atoms: C_14  and  C_38
REMARK    4  A    between atoms: C_15  and  C_37
REMARK    5  A    between atoms: C_16  and  O_35
REMARK    6  A    between atoms: O_35  and  C_36
REMARK    7  A    between atoms: C_38  and  C_39
REMARK    8  A    between atoms: C_39  and  C_40
REMARK    9  A    between atoms: C_39  and  O_61
REMARK   10  A    between atoms: C_40  and  C_41
REMARK   11  A    between atoms: C_40  and  C_42
REMARK   12  A    between atoms: C_42  and  C_43
REMARK   13  A    between atoms: C_43  and  C_44
REMARK   14  A    between atoms: C_44  and  C_46
REMARK   15  A    between atoms: C_46  and  C_47
REMARK   16  A    between atoms: C_46  and  C_48
REMARK   17  A    between atoms: C_48  and  C_49
REMARK   18  A    between atoms: C_48  and  O_57
REMARK   19  A    between atoms: C_49  and  C_50
REMARK   20  A    between atoms: C_49  and  C_51
REMARK   21  A    between atoms: C_52  and  N_53
REMARK   22  A    between atoms: N_53  and  C_54
REMARK   23  A    between atoms: N_53  and  C_55
REMARK   24  A    between atoms: C_55  and  O_56
REMARK   25  A    between atoms: O_57  and  C_58
REMARK   26  A    between atoms: C_58  and  C_60
REMARK   27  A    between atoms: O_61  and  C_62
REMARK                            x       y       z     vdW  Elec       q    Type
REMARK                         _______ _______ _______ _____ _____    ______ ____
ROOT
ATOM      1  C   UNL     1     149.026 157.862 189.172  0.00  0.00    +0.008 C 
ATOM      2  C   UNL     1     147.847 158.857 189.181  0.00  0.00    +0.014 C 
ATOM      3  C   UNL     1     146.630 158.292 188.479  0.00  0.00    +0.134 C 
ATOM      4  O   UNL     1     146.734 157.576 187.480  0.00  0.00    -0.297 OA
ATOM      5  C   UNL     1     145.262 158.625 189.041  0.00  0.00    +0.006 C 
ATOM      6  C   UNL     1     144.947 160.115 189.097  0.00  0.00    -0.044 C 
ATOM      7  C   UNL     1     145.052 160.819 187.737  0.00  0.00    -0.026 C 
ATOM      8  C   UNL     1     144.428 162.220 187.803  0.00  0.00    +0.065 C 
ATOM      9  C   UNL     1     144.887 163.111 186.650  0.00  0.00    +0.071 C 
ATOM     10  C   UNL     1     144.651 164.544 187.044  0.00  0.00    +0.310 C 
ATOM     11  O   UNL     1     143.538 165.027 187.223  0.00  0.00    -0.251 OA
ATOM     12  O   UNL     1     145.833 165.189 187.253  0.00  0.00    -0.461 OA
ATOM     13  C   UNL     1     145.756 166.436 187.986  0.00  0.00    +0.110 C 
ATOM     14  C   UNL     1     147.073 167.227 187.758  0.00  0.00    +0.020 C 
ATOM     15  C   UNL     1     147.337 167.443 186.236  0.00  0.00    +0.068 C 
ATOM     16  C   UNL     1     148.743 168.018 185.923  0.00  0.00    -0.008 C 
ATOM     17  C   UNL     1     149.835 167.203 186.548  0.00  0.00    -0.077 C 
ATOM     18  C   UNL     1     150.797 167.687 187.353  0.00  0.00    -0.003 C 
ATOM     19  C   UNL     1     151.689 166.792 188.010  0.00  0.00    +0.220 A 
ATOM     20  N   UNL     1     151.469 165.502 188.222  0.00  0.00    -0.205 NA
ATOM     21  C   UNL     1     152.585 165.044 188.875  0.00  0.00    +0.164 A 
ATOM     22  C   UNL     1     153.467 166.072 189.060  0.00  0.00    +0.125 A 
ATOM     23  O   UNL     1     152.901 167.201 188.543  0.00  0.00    -0.443 OA
ATOM     24  C   UNL     1     152.791 163.568 189.329  0.00  0.00    +0.250 A 
ATOM     25  N   UNL     1     151.851 162.645 189.214  0.00  0.00    -0.203 NA
ATOM     26  C   UNL     1     152.440 161.502 189.689  0.00  0.00    +0.164 A 
ATOM     27  C   UNL     1     153.725 161.773 190.092  0.00  0.00    +0.125 A 
ATOM     28  O   UNL     1     153.958 163.100 189.892  0.00  0.00    -0.442 OA
ATOM     29  C   UNL     1     151.759 160.102 189.748  0.00  0.00    +0.249 A 
ATOM     30  N   UNL     1     150.512 159.879 189.372  0.00  0.00    -0.212 NA
ATOM     31  C   UNL     1     150.321 158.527 189.555  0.00  0.00    +0.083 A 
ATOM     32  C   UNL     1     151.487 157.980 190.042  0.00  0.00    +0.116 A 
ATOM     33  O   UNL     1     152.407 158.972 190.180  0.00  0.00    -0.442 OA
ATOM     34  H   UNL     1     149.165 157.478 188.153  0.00  0.00    +0.037 HD
ATOM     35  H   UNL     1     147.588 159.122 190.211  0.00  0.00    +0.035 HD
ATOM     36  H   UNL     1     148.099 159.786 188.656  0.00  0.00    +0.035 HD
ATOM     37  H   UNL     1     144.509 158.112 188.433  0.00  0.00    +0.034 HD
ATOM     38  H   UNL     1     145.206 158.193 190.046  0.00  0.00    +0.034 HD
ATOM     39  H   UNL     1     143.931 160.230 189.498  0.00  0.00    +0.027 HD
ATOM     40  H   UNL     1     145.619 160.613 189.807  0.00  0.00    +0.027 HD
ATOM     41  H   UNL     1     144.542 160.219 186.974  0.00  0.00    +0.029 HD
ATOM     42  H   UNL     1     146.109 160.889 187.460  0.00  0.00    +0.029 HD
ATOM     43  H   UNL     1     144.660 162.675 188.769  0.00  0.00    +0.060 HD
ATOM     44  H   UNL     1     144.333 162.914 185.725  0.00  0.00    +0.040 HD
ATOM     45  H   UNL     1     145.952 162.975 186.441  0.00  0.00    +0.040 HD
ATOM     46  H   UNL     1     144.927 167.030 187.580  0.00  0.00    +0.074 HD
ATOM     47  H   UNL     1     147.894 166.616 188.145  0.00  0.00    +0.036 HD
ATOM     48  H   UNL     1     147.256 166.471 185.730  0.00  0.00    +0.060 HD
ATOM     49  H   UNL     1     148.799 169.070 186.226  0.00  0.00    +0.033 HD
ATOM     50  H   UNL     1     148.897 168.026 184.837  0.00  0.00    +0.033 HD
ATOM     51  H   UNL     1     149.781 166.127 186.368  0.00  0.00    +0.057 HD
ATOM     52  H   UNL     1     150.917 168.748 187.526  0.00  0.00    +0.067 HD
ATOM     53  H   UNL     1     154.430 166.183 189.530  0.00  0.00    +0.105 HD
ATOM     54  H   UNL     1     154.531 161.193 190.516  0.00  0.00    +0.105 HD
ATOM     55  H   UNL     1     151.808 156.984 190.310  0.00  0.00    +0.105 HD
ENDROOT
BRANCH   1  56
ATOM     56  C   UNL     1     148.710 156.668 190.085  0.00  0.00    -0.056 C 
ATOM     57  H   UNL     1     147.806 156.848 190.676  0.00  0.00    +0.024 HD
ATOM     58  H   UNL     1     149.523 156.484 190.792  0.00  0.00    +0.024 HD
ATOM     59  H   UNL     1     148.551 155.753 189.502  0.00  0.00    +0.024 HD
ENDBRANCH   1  56
BRANCH  14  60
ATOM     60  C   UNL     1     147.060 168.556 188.529  0.00  0.00    -0.057 C 
ATOM     61  H   UNL     1     148.075 168.889 188.766  0.00  0.00    +0.023 HD
ATOM     62  H   UNL     1     146.495 168.482 189.461  0.00  0.00    +0.023 HD
ATOM     63  H   UNL     1     146.580 169.343 187.940  0.00  0.00    +0.023 HD
ENDBRANCH  14  60
BRANCH  13  64
ATOM     64  C   UNL     1     145.462 166.127 189.476  0.00  0.00    +0.011 C 
ATOM     65  H   UNL     1     146.291 166.552 190.050  0.00  0.00    +0.033 HD
ATOM     66  H   UNL     1     145.503 165.044 189.638  0.00  0.00    +0.033 HD
BRANCH  64  67
ATOM     67  C   UNL     1     144.138 166.690 190.052  0.00  0.00    +0.064 C 
ATOM     68  H   UNL     1     143.354 165.933 189.928  0.00  0.00    +0.060 HD
BRANCH  67  69
ATOM     69  C   UNL     1     144.276 166.994 191.579  0.00  0.00    -0.017 C 
ATOM     70  H   UNL     1     144.229 168.085 191.699  0.00  0.00    +0.032 HD
BRANCH  69  71
ATOM     71  C   UNL     1     143.134 166.384 192.403  0.00  0.00    -0.060 C 
ATOM     72  H   UNL     1     142.240 166.219 191.793  0.00  0.00    +0.023 HD
ATOM     73  H   UNL     1     142.856 167.017 193.250  0.00  0.00    +0.023 HD
ATOM     74  H   UNL     1     143.431 165.429 192.839  0.00  0.00    +0.023 HD
ENDBRANCH  69  71
BRANCH  69  75
ATOM     75  C   UNL     1     145.656 166.521 192.102  0.00  0.00    -0.041 C 
ATOM     76  H   UNL     1     146.369 167.343 191.957  0.00  0.00    +0.027 HD
ATOM     77  H   UNL     1     146.026 165.679 191.506  0.00  0.00    +0.027 HD
BRANCH  75  78
ATOM     78  C   UNL     1     145.678 166.169 193.594  0.00  0.00    +0.007 C 
ATOM     79  H   UNL     1     145.219 166.986 194.159  0.00  0.00    +0.034 HD
ATOM     80  H   UNL     1     145.081 165.268 193.772  0.00  0.00    +0.034 HD
BRANCH  78  81
ATOM     81  C   UNL     1     147.069 165.975 194.188  0.00  0.00    +0.140 C 
ATOM     82  O   UNL     1     147.251 165.409 195.268  0.00  0.00    -0.297 OA
BRANCH  81  83
ATOM     83  C   UNL     1     148.230 166.525 193.369  0.00  0.00    +0.052 C 
ATOM     84  H   UNL     1     147.961 166.459 192.309  0.00  0.00    +0.041 HD
BRANCH  83  85
ATOM     85  C   UNL     1     148.404 168.008 193.709  0.00  0.00    -0.052 C 
ATOM     86  H   UNL     1     149.456 168.258 193.867  0.00  0.00    +0.024 HD
ATOM     87  H   UNL     1     148.032 168.650 192.905  0.00  0.00    +0.024 HD
ATOM     88  H   UNL     1     147.848 168.268 194.615  0.00  0.00    +0.024 HD
ENDBRANCH  83  85
BRANCH  83  89
ATOM     89  C   UNL     1     149.542 165.740 193.607  0.00  0.00    +0.118 C 
ATOM     90  H   UNL     1     149.296 164.764 194.038  0.00  0.00    +0.075 HD
BRANCH  89  91
ATOM     91  C   UNL     1     150.375 165.485 192.317  0.00  0.00    +0.014 C 
ATOM     92  H   UNL     1     150.782 164.479 192.409  0.00  0.00    +0.038 HD
BRANCH  91  93
ATOM     93  C   UNL     1     151.568 166.443 192.226  0.00  0.00    -0.056 C 
ATOM     94  H   UNL     1     152.201 166.405 193.121  0.00  0.00    +0.024 HD
ATOM     95  H   UNL     1     151.227 167.477 192.105  0.00  0.00    +0.024 HD
ATOM     96  H   UNL     1     152.192 166.197 191.359  0.00  0.00    +0.024 HD
ENDBRANCH  91  93
BRANCH  91  97
ATOM     97  C   UNL     1     149.545 165.598 191.057  0.00  0.00    -0.064 C 
ATOM     98  C   UNL     1     148.779 164.677 190.455  0.00  0.00    -0.010 C 
ATOM     99  H   UNL     1     149.526 166.600 190.624  0.00  0.00    +0.059 HD
ATOM    100  H   UNL     1     148.171 165.029 189.621  0.00  0.00    +0.078 HD
BRANCH  98 101
ATOM    101  N   UNL     1     148.544 163.334 190.702  0.00  0.00    -0.317 N 
BRANCH 101 102
ATOM    102  C   UNL     1     147.727 162.544 189.773  0.00  0.00    +0.002 C 
ATOM    103  H   UNL     1     147.933 162.826 188.731  0.00  0.00    +0.043 HD
ATOM    104  H   UNL     1     146.658 162.713 189.953  0.00  0.00    +0.043 HD
ATOM    105  H   UNL     1     147.943 161.477 189.887  0.00  0.00    +0.043 HD
ENDBRANCH 101 102
BRANCH 101 106
ATOM    106  C   UNL     1     149.296 162.521 191.649  0.00  0.00    +0.110 C 
ATOM    107  H   UNL     1     150.359 162.458 191.435  0.00  0.00    +0.077 HD
ATOM    108  H   UNL     1     149.180 162.886 192.674  0.00  0.00    +0.077 HD
BRANCH 106 109
ATOM    109  O   UNL     1     148.778 161.207 191.566  0.00  0.00    -0.377 OA
ATOM    110  H   UNL     1     148.822 160.918 192.496  0.00  0.00    +0.211 HD
ENDBRANCH 106 109
ENDBRANCH 101 106
ENDBRANCH  98 101
ENDBRANCH  91  97
ENDBRANCH  89  91
BRANCH  89 111
ATOM    111  O   UNL     1     150.345 166.523 194.532  0.00  0.00    -0.460 OA
BRANCH 111 112
ATOM    112  C   UNL     1     150.582 165.995 195.762  0.00  0.00    +0.304 C 
ATOM    113  O   UNL     1     150.233 166.473 196.831  0.00  0.00    -0.251 OA
BRANCH 112 114
ATOM    114  C   UNL     1     151.355 164.720 195.624  0.00  0.00    +0.033 C 
ATOM    115  H   UNL     1     150.673 163.896 195.396  0.00  0.00    +0.034 HD
ATOM    116  H   UNL     1     151.910 164.521 196.544  0.00  0.00    +0.034 HD
ATOM    117  H   UNL     1     152.070 164.818 194.800  0.00  0.00    +0.034 HD
ENDBRANCH 112 114
ENDBRANCH 111 112
ENDBRANCH  89 111
ENDBRANCH  83  89
ENDBRANCH  81  83
ENDBRANCH  78  81
ENDBRANCH  75  78
ENDBRANCH  69  75
ENDBRANCH  67  69
BRANCH  67 118
ATOM    118  O   UNL     1     143.788 167.897 189.372  0.00  0.00    -0.379 OA
BRANCH 118 119
ATOM    119  C   UNL     1     143.844 169.057 190.199  0.00  0.00    +0.037 C 
ATOM    120  H   UNL     1     142.863 169.264 190.634  0.00  0.00    +0.052 HD
ATOM    121  H   UNL     1     144.588 168.942 190.993  0.00  0.00    +0.052 HD
ATOM    122  H   UNL     1     144.132 169.907 189.574  0.00  0.00    +0.052 HD
ENDBRANCH 118 119
ENDBRANCH  67 118
ENDBRANCH  64  67
ENDBRANCH  13  64
BRANCH   8 123
ATOM    123  O   UNL     1     143.008 162.059 187.736  0.00  0.00    -0.391 OA
ATOM    124  H   UNL     1     142.614 162.793 188.250  0.00  0.00    +0.210 HD
ENDBRANCH   8 123
BRANCH  15 125
ATOM    125  O   UNL     1     146.334 168.336 185.728  0.00  0.00    -0.379 OA
BRANCH 125 126
ATOM    126  C   UNL     1     146.696 168.925 184.483  0.00  0.00    +0.037 C 
ATOM    127  H   UNL     1     147.767 168.789 184.295  0.00  0.00    +0.052 HD
ATOM    128  H   UNL     1     146.138 168.419 183.691  0.00  0.00    +0.052 HD
ATOM    129  H   UNL     1     146.440 169.989 184.462  0.00  0.00    +0.052 HD
ENDBRANCH 125 126
ENDBRANCH  15 125
TORSDOF 27
ENDMDL
MODEL 9
REMARK VINA RESULT:      -5.4      1.924      7.028
REMARK  Name = Ulapualide A_conf1
REMARK  27 active torsions:
REMARK  status: ('A' for Active; 'I' for Inactive)
REMARK    1  A    between atoms: C_1  and  C_2
REMARK    2  A    between atoms: C_9  and  O_63
REMARK    3  A    between atoms: C_14  and  C_38
REMARK    4  A    between atoms: C_15  and  C_37
REMARK    5  A    between atoms: C_16  and  O_35
REMARK    6  A    between atoms: O_35  and  C_36
REMARK    7  A    between atoms: C_38  and  C_39
REMARK    8  A    between atoms: C_39  and  C_40
REMARK    9  A    between atoms: C_39  and  O_61
REMARK   10  A    between atoms: C_40  and  C_41
REMARK   11  A    between atoms: C_40  and  C_42
REMARK   12  A    between atoms: C_42  and  C_43
REMARK   13  A    between atoms: C_43  and  C_44
REMARK   14  A    between atoms: C_44  and  C_46
REMARK   15  A    between atoms: C_46  and  C_47
REMARK   16  A    between atoms: C_46  and  C_48
REMARK   17  A    between atoms: C_48  and  C_49
REMARK   18  A    between atoms: C_48  and  O_57
REMARK   19  A    between atoms: C_49  and  C_50
REMARK   20  A    between atoms: C_49  and  C_51
REMARK   21  A    between atoms: C_52  and  N_53
REMARK   22  A    between atoms: N_53  and  C_54
REMARK   23  A    between atoms: N_53  and  C_55
REMARK   24  A    between atoms: C_55  and  O_56
REMARK   25  A    between atoms: O_57  and  C_58
REMARK   26  A    between atoms: C_58  and  C_60
REMARK   27  A    between atoms: O_61  and  C_62
REMARK                            x       y       z     vdW  Elec       q    Type
REMARK                         _______ _______ _______ _____ _____    ______ ____
ROOT
ATOM      1  C   UNL     1     145.044 172.239 191.380  0.00  0.00    +0.008 C 
ATOM      2  C   UNL     1     144.657 171.269 190.245  0.00  0.00    +0.014 C 
ATOM      3  C   UNL     1     143.158 171.058 190.172  0.00  0.00    +0.134 C 
ATOM      4  O   UNL     1     142.462 171.016 191.190  0.00  0.00    -0.297 OA
ATOM      5  C   UNL     1     142.524 170.904 188.805  0.00  0.00    +0.006 C 
ATOM      6  C   UNL     1     143.060 169.735 187.986  0.00  0.00    -0.044 C 
ATOM      7  C   UNL     1     142.931 168.377 188.693  0.00  0.00    -0.026 C 
ATOM      8  C   UNL     1     143.193 167.229 187.708  0.00  0.00    +0.065 C 
ATOM      9  C   UNL     1     143.511 165.918 188.423  0.00  0.00    +0.071 C 
ATOM     10  C   UNL     1     144.219 165.014 187.450  0.00  0.00    +0.310 C 
ATOM     11  O   UNL     1     143.695 164.555 186.442  0.00  0.00    -0.251 OA
ATOM     12  O   UNL     1     145.527 164.855 187.801  0.00  0.00    -0.461 OA
ATOM     13  C   UNL     1     146.401 164.331 186.772  0.00  0.00    +0.110 C 
ATOM     14  C   UNL     1     147.703 163.815 187.443  0.00  0.00    +0.020 C 
ATOM     15  C   UNL     1     147.382 162.763 188.549  0.00  0.00    +0.068 C 
ATOM     16  C   UNL     1     148.607 162.378 189.418  0.00  0.00    -0.008 C 
ATOM     17  C   UNL     1     149.282 163.582 190.002  0.00  0.00    -0.077 C 
ATOM     18  C   UNL     1     150.588 163.874 189.877  0.00  0.00    -0.003 C 
ATOM     19  C   UNL     1     151.084 165.123 190.346  0.00  0.00    +0.220 A 
ATOM     20  N   UNL     1     150.355 166.208 190.569  0.00  0.00    -0.205 NA
ATOM     21  C   UNL     1     151.239 167.158 191.010  0.00  0.00    +0.164 A 
ATOM     22  C   UNL     1     152.503 166.636 191.038  0.00  0.00    +0.125 A 
ATOM     23  O   UNL     1     152.429 165.350 190.589  0.00  0.00    -0.443 OA
ATOM     24  C   UNL     1     150.839 168.610 191.411  0.00  0.00    +0.250 A 
ATOM     25  N   UNL     1     149.614 169.083 191.258  0.00  0.00    -0.203 NA
ATOM     26  C   UNL     1     149.680 170.358 191.756  0.00  0.00    +0.164 A 
ATOM     27  C   UNL     1     150.957 170.625 192.187  0.00  0.00    +0.125 A 
ATOM     28  O   UNL     1     151.720 169.522 191.949  0.00  0.00    -0.442 OA
ATOM     29  C   UNL     1     148.483 171.352 191.836  0.00  0.00    +0.249 A 
ATOM     30  N   UNL     1     147.269 171.072 191.392  0.00  0.00    -0.212 NA
ATOM     31  C   UNL     1     146.519 172.191 191.677  0.00  0.00    +0.083 A 
ATOM     32  C   UNL     1     147.327 173.117 192.296  0.00  0.00    +0.116 A 
ATOM     33  O   UNL     1     148.582 172.602 192.394  0.00  0.00    -0.442 OA
ATOM     34  H   UNL     1     144.533 171.934 192.303  0.00  0.00    +0.037 HD
ATOM     35  H   UNL     1     145.021 171.651 189.285  0.00  0.00    +0.035 HD
ATOM     36  H   UNL     1     145.099 170.276 190.393  0.00  0.00    +0.035 HD
ATOM     37  H   UNL     1     141.443 170.793 188.941  0.00  0.00    +0.034 HD
ATOM     38  H   UNL     1     142.680 171.842 188.262  0.00  0.00    +0.034 HD
ATOM     39  H   UNL     1     142.515 169.712 187.033  0.00  0.00    +0.027 HD
ATOM     40  H   UNL     1     144.114 169.906 187.737  0.00  0.00    +0.027 HD
ATOM     41  H   UNL     1     141.926 168.281 189.119  0.00  0.00    +0.029 HD
ATOM     42  H   UNL     1     143.652 168.341 189.516  0.00  0.00    +0.029 HD
ATOM     43  H   UNL     1     143.999 167.512 187.026  0.00  0.00    +0.060 HD
ATOM     44  H   UNL     1     142.609 165.404 188.775  0.00  0.00    +0.040 HD
ATOM     45  H   UNL     1     144.163 166.083 189.287  0.00  0.00    +0.040 HD
ATOM     46  H   UNL     1     145.905 163.478 186.291  0.00  0.00    +0.074 HD
ATOM     47  H   UNL     1     148.178 164.669 187.938  0.00  0.00    +0.036 HD
ATOM     48  H   UNL     1     146.621 163.187 189.218  0.00  0.00    +0.060 HD
ATOM     49  H   UNL     1     149.305 161.764 188.838  0.00  0.00    +0.033 HD
ATOM     50  H   UNL     1     148.277 161.733 190.242  0.00  0.00    +0.033 HD
ATOM     51  H   UNL     1     148.623 164.291 190.510  0.00  0.00    +0.057 HD
ATOM     52  H   UNL     1     151.286 163.184 189.422  0.00  0.00    +0.067 HD
ATOM     53  H   UNL     1     153.483 167.010 191.284  0.00  0.00    +0.105 HD
ATOM     54  H   UNL     1     151.450 171.474 192.635  0.00  0.00    +0.105 HD
ATOM     55  H   UNL     1     147.179 174.105 192.707  0.00  0.00    +0.105 HD
ENDROOT
BRANCH   1  56
ATOM     56  C   UNL     1     144.580 173.661 191.035  0.00  0.00    -0.056 C 
ATOM     57  H   UNL     1     144.061 173.687 190.071  0.00  0.00    +0.024 HD
ATOM     58  H   UNL     1     145.428 174.347 190.959  0.00  0.00    +0.024 HD
ATOM     59  H   UNL     1     143.893 174.052 191.795  0.00  0.00    +0.024 HD
ENDBRANCH   1  56
BRANCH  14  60
ATOM     60  C   UNL     1     148.684 163.263 186.398  0.00  0.00    -0.057 C 
ATOM     61  H   UNL     1     148.598 163.799 185.448  0.00  0.00    +0.023 HD
ATOM     62  H   UNL     1     148.523 162.199 186.208  0.00  0.00    +0.023 HD
ATOM     63  H   UNL     1     149.718 163.361 186.744  0.00  0.00    +0.023 HD
ENDBRANCH  14  60
BRANCH  13  64
ATOM     64  C   UNL     1     146.641 165.431 185.706  0.00  0.00    +0.011 C 
ATOM     65  H   UNL     1     145.852 165.315 184.957  0.00  0.00    +0.033 HD
ATOM     66  H   UNL     1     147.585 165.235 185.186  0.00  0.00    +0.033 HD
BRANCH  64  67
ATOM     67  C   UNL     1     146.618 166.897 186.208  0.00  0.00    +0.064 C 
ATOM     68  H   UNL     1     146.021 166.941 187.127  0.00  0.00    +0.060 HD
BRANCH  67  69
ATOM     69  C   UNL     1     148.060 167.396 186.547  0.00  0.00    -0.017 C 
ATOM     70  H   UNL     1     148.765 166.711 186.055  0.00  0.00    +0.032 HD
BRANCH  69  71
ATOM     71  C   UNL     1     148.332 168.809 186.014  0.00  0.00    -0.060 C 
ATOM     72  H   UNL     1     148.548 169.511 186.826  0.00  0.00    +0.023 HD
ATOM     73  H   UNL     1     147.488 169.200 185.441  0.00  0.00    +0.023 HD
ATOM     74  H   UNL     1     149.178 168.813 185.325  0.00  0.00    +0.023 HD
ENDBRANCH  69  71
BRANCH  69  75
ATOM     75  C   UNL     1     148.315 167.316 188.074  0.00  0.00    -0.041 C 
ATOM     76  H   UNL     1     149.083 168.060 188.325  0.00  0.00    +0.027 HD
ATOM     77  H   UNL     1     148.728 166.337 188.345  0.00  0.00    +0.027 HD
BRANCH  75  78
ATOM     78  C   UNL     1     147.088 167.633 188.935  0.00  0.00    +0.007 C 
ATOM     79  H   UNL     1     147.184 168.650 189.331  0.00  0.00    +0.034 HD
ATOM     80  H   UNL     1     146.182 167.604 188.319  0.00  0.00    +0.034 HD
BRANCH  78  81
ATOM     81  C   UNL     1     146.901 166.726 190.147  0.00  0.00    +0.140 C 
ATOM     82  O   UNL     1     147.171 165.523 190.116  0.00  0.00    -0.297 OA
BRANCH  81  83
ATOM     83  C   UNL     1     146.360 167.392 191.405  0.00  0.00    +0.052 C 
ATOM     84  H   UNL     1     147.152 168.019 191.828  0.00  0.00    +0.041 HD
BRANCH  83  85
ATOM     85  C   UNL     1     145.205 168.316 191.005  0.00  0.00    -0.052 C 
ATOM     86  H   UNL     1     144.632 167.897 190.174  0.00  0.00    +0.024 HD
ATOM     87  H   UNL     1     144.511 168.473 191.836  0.00  0.00    +0.024 HD
ATOM     88  H   UNL     1     145.579 169.299 190.705  0.00  0.00    +0.024 HD
ENDBRANCH  83  85
BRANCH  83  89
ATOM     89  C   UNL     1     145.908 166.363 192.468  0.00  0.00    +0.118 C 
ATOM     90  H   UNL     1     145.545 165.464 191.958  0.00  0.00    +0.075 HD
BRANCH  89  91
ATOM     91  C   UNL     1     147.035 165.922 193.447  0.00  0.00    +0.014 C 
ATOM     92  H   UNL     1     147.524 165.065 192.986  0.00  0.00    +0.038 HD
BRANCH  91  93
ATOM     93  C   UNL     1     146.457 165.441 194.783  0.00  0.00    -0.056 C 
ATOM     94  H   UNL     1     145.765 164.599 194.657  0.00  0.00    +0.024 HD
ATOM     95  H   UNL     1     145.909 166.249 195.281  0.00  0.00    +0.024 HD
ATOM     96  H   UNL     1     147.260 165.122 195.456  0.00  0.00    +0.024 HD
ENDBRANCH  91  93
BRANCH  91  97
ATOM     97  C   UNL     1     148.044 167.020 193.705  0.00  0.00    -0.064 C 
ATOM     98  C   UNL     1     149.275 166.941 194.230  0.00  0.00    -0.010 C 
ATOM     99  H   UNL     1     147.734 168.004 193.346  0.00  0.00    +0.059 HD
ATOM    100  H   UNL     1     149.868 167.856 194.201  0.00  0.00    +0.078 HD
BRANCH  98 101
ATOM    101  N   UNL     1     150.006 165.898 194.776  0.00  0.00    -0.317 N 
BRANCH 101 102
ATOM    102  C   UNL     1     149.801 165.507 196.175  0.00  0.00    +0.002 C 
ATOM    103  H   UNL     1     150.266 166.230 196.858  0.00  0.00    +0.043 HD
ATOM    104  H   UNL     1     150.254 164.528 196.377  0.00  0.00    +0.043 HD
ATOM    105  H   UNL     1     148.732 165.458 196.405  0.00  0.00    +0.043 HD
ENDBRANCH 101 102
BRANCH 101 106
ATOM    106  C   UNL     1     150.757 164.918 194.003  0.00  0.00    +0.110 C 
ATOM    107  H   UNL     1     151.235 165.323 193.114  0.00  0.00    +0.077 HD
ATOM    108  H   UNL     1     151.529 164.434 194.608  0.00  0.00    +0.077 HD
BRANCH 106 109
ATOM    109  O   UNL     1     149.832 163.941 193.566  0.00  0.00    -0.377 OA
ATOM    110  H   UNL     1     150.145 163.148 194.037  0.00  0.00    +0.211 HD
ENDBRANCH 106 109
ENDBRANCH 101 106
ENDBRANCH  98 101
ENDBRANCH  91  97
ENDBRANCH  89  91
BRANCH  89 111
ATOM    111  O   UNL     1     144.841 166.982 193.237  0.00  0.00    -0.460 OA
BRANCH 111 112
ATOM    112  C   UNL     1     143.569 166.566 192.998  0.00  0.00    +0.304 C 
ATOM    113  O   UNL     1     143.213 165.816 192.102  0.00  0.00    -0.251 OA
BRANCH 112 114
ATOM    114  C   UNL     1     142.642 167.173 194.005  0.00  0.00    +0.033 C 
ATOM    115  H   UNL     1     143.161 167.297 194.959  0.00  0.00    +0.034 HD
ATOM    116  H   UNL     1     141.758 166.542 194.123  0.00  0.00    +0.034 HD
ATOM    117  H   UNL     1     142.321 168.160 193.653  0.00  0.00    +0.034 HD
ENDBRANCH 112 114
ENDBRANCH 111 112
ENDBRANCH  89 111
ENDBRANCH  83  89
ENDBRANCH  81  83
ENDBRANCH  78  81
ENDBRANCH  75  78
ENDBRANCH  69  75
ENDBRANCH  67  69
BRANCH  67 118
ATOM    118  O   UNL     1     146.062 167.746 185.202  0.00  0.00    -0.379 OA
BRANCH 118 119
ATOM    119  C   UNL     1     145.069 167.109 184.401  0.00  0.00    +0.037 C 
ATOM    120  H   UNL     1     145.237 167.322 183.342  0.00  0.00    +0.052 HD
ATOM    121  H   UNL     1     145.058 166.028 184.568  0.00  0.00    +0.052 HD
ATOM    122  H   UNL     1     144.093 167.514 184.685  0.00  0.00    +0.052 HD
ENDBRANCH 118 119
ENDBRANCH  67 118
ENDBRANCH  64  67
ENDBRANCH  13  64
BRANCH   8 123
ATOM    123  O   UNL     1     142.008 167.060 186.924  0.00  0.00    -0.391 OA
ATOM    124  H   UNL     1     141.601 166.214 187.201  0.00  0.00    +0.210 HD
ENDBRANCH   8 123
BRANCH  15 125
ATOM    125  O   UNL     1     146.862 161.586 187.910  0.00  0.00    -0.379 OA
BRANCH 125 126
ATOM    126  C   UNL     1     145.682 161.092 188.537  0.00  0.00    +0.037 C 
ATOM    127  H   UNL     1     144.854 161.795 188.395  0.00  0.00    +0.052 HD
ATOM    128  H   UNL     1     145.417 160.143 188.064  0.00  0.00    +0.052 HD
ATOM    129  H   UNL     1     145.849 160.915 189.604  0.00  0.00    +0.052 HD
ENDBRANCH 125 126
ENDBRANCH  15 125
TORSDOF 27
ENDMDL
MODEL 10
REMARK VINA RESULT:      -5.4      2.523      8.652
REMARK  Name = Ulapualide A_conf1
REMARK  27 active torsions:
REMARK  status: ('A' for Active; 'I' for Inactive)
REMARK    1  A    between atoms: C_1  and  C_2
REMARK    2  A    between atoms: C_9  and  O_63
REMARK    3  A    between atoms: C_14  and  C_38
REMARK    4  A    between atoms: C_15  and  C_37
REMARK    5  A    between atoms: C_16  and  O_35
REMARK    6  A    between atoms: O_35  and  C_36
REMARK    7  A    between atoms: C_38  and  C_39
REMARK    8  A    between atoms: C_39  and  C_40
REMARK    9  A    between atoms: C_39  and  O_61
REMARK   10  A    between atoms: C_40  and  C_41
REMARK   11  A    between atoms: C_40  and  C_42
REMARK   12  A    between atoms: C_42  and  C_43
REMARK   13  A    between atoms: C_43  and  C_44
REMARK   14  A    between atoms: C_44  and  C_46
REMARK   15  A    between atoms: C_46  and  C_47
REMARK   16  A    between atoms: C_46  and  C_48
REMARK   17  A    between atoms: C_48  and  C_49
REMARK   18  A    between atoms: C_48  and  O_57
REMARK   19  A    between atoms: C_49  and  C_50
REMARK   20  A    between atoms: C_49  and  C_51
REMARK   21  A    between atoms: C_52  and  N_53
REMARK   22  A    between atoms: N_53  and  C_54
REMARK   23  A    between atoms: N_53  and  C_55
REMARK   24  A    between atoms: C_55  and  O_56
REMARK   25  A    between atoms: O_57  and  C_58
REMARK   26  A    between atoms: C_58  and  C_60
REMARK   27  A    between atoms: O_61  and  C_62
REMARK                            x       y       z     vdW  Elec       q    Type
REMARK                         _______ _______ _______ _____ _____    ______ ____
ROOT
ATOM      1  C   UNL     1     142.464 171.445 190.774  0.00  0.00    +0.008 C 
ATOM      2  C   UNL     1     142.754 170.212 189.894  0.00  0.00    +0.014 C 
ATOM      3  C   UNL     1     141.549 169.300 189.790  0.00  0.00    +0.134 C 
ATOM      4  O   UNL     1     140.788 169.124 190.745  0.00  0.00    -0.297 OA
ATOM      5  C   UNL     1     141.292 168.603 188.469  0.00  0.00    +0.006 C 
ATOM      6  C   UNL     1     142.428 167.702 187.998  0.00  0.00    -0.044 C 
ATOM      7  C   UNL     1     142.810 166.612 189.009  0.00  0.00    -0.026 C 
ATOM      8  C   UNL     1     143.724 165.565 188.356  0.00  0.00    +0.065 C 
ATOM      9  C   UNL     1     144.476 164.731 189.391  0.00  0.00    +0.071 C 
ATOM     10  C   UNL     1     145.668 164.110 188.713  0.00  0.00    +0.310 C 
ATOM     11  O   UNL     1     145.585 163.272 187.822  0.00  0.00    -0.251 OA
ATOM     12  O   UNL     1     146.827 164.667 189.167  0.00  0.00    -0.461 OA
ATOM     13  C   UNL     1     148.002 164.439 188.351  0.00  0.00    +0.110 C 
ATOM     14  C   UNL     1     149.263 164.750 189.203  0.00  0.00    +0.020 C 
ATOM     15  C   UNL     1     149.273 163.905 190.514  0.00  0.00    +0.068 C 
ATOM     16  C   UNL     1     150.374 164.328 191.520  0.00  0.00    -0.008 C 
ATOM     17  C   UNL     1     150.323 165.795 191.825  0.00  0.00    -0.077 C 
ATOM     18  C   UNL     1     151.357 166.646 191.706  0.00  0.00    -0.003 C 
ATOM     19  C   UNL     1     151.148 168.044 191.879  0.00  0.00    +0.220 A 
ATOM     20  N   UNL     1     149.981 168.667 191.785  0.00  0.00    -0.205 NA
ATOM     21  C   UNL     1     150.251 169.989 192.027  0.00  0.00    +0.164 A 
ATOM     22  C   UNL     1     151.590 170.152 192.255  0.00  0.00    +0.125 A 
ATOM     23  O   UNL     1     152.182 168.929 192.135  0.00  0.00    -0.443 OA
ATOM     24  C   UNL     1     149.177 171.117 192.033  0.00  0.00    +0.250 A 
ATOM     25  N   UNL     1     147.915 170.907 191.698  0.00  0.00    -0.203 NA
ATOM     26  C   UNL     1     147.313 172.126 191.867  0.00  0.00    +0.164 A 
ATOM     27  C   UNL     1     148.239 173.049 192.291  0.00  0.00    +0.125 A 
ATOM     28  O   UNL     1     149.446 172.424 192.378  0.00  0.00    -0.442 OA
ATOM     29  C   UNL     1     145.801 172.419 191.630  0.00  0.00    +0.249 A 
ATOM     30  N   UNL     1     144.940 171.514 191.201  0.00  0.00    -0.212 NA
ATOM     31  C   UNL     1     143.728 172.167 191.157  0.00  0.00    +0.083 A 
ATOM     32  C   UNL     1     143.914 173.466 191.573  0.00  0.00    +0.116 A 
ATOM     33  O   UNL     1     145.230 173.645 191.867  0.00  0.00    -0.442 OA
ATOM     34  H   UNL     1     142.000 171.116 191.713  0.00  0.00    +0.037 HD
ATOM     35  H   UNL     1     143.061 170.531 188.892  0.00  0.00    +0.035 HD
ATOM     36  H   UNL     1     143.565 169.602 190.308  0.00  0.00    +0.035 HD
ATOM     37  H   UNL     1     140.372 168.016 188.567  0.00  0.00    +0.034 HD
ATOM     38  H   UNL     1     141.095 169.378 187.721  0.00  0.00    +0.034 HD
ATOM     39  H   UNL     1     142.120 167.239 187.051  0.00  0.00    +0.027 HD
ATOM     40  H   UNL     1     143.315 168.306 187.774  0.00  0.00    +0.027 HD
ATOM     41  H   UNL     1     141.902 166.129 189.388  0.00  0.00    +0.029 HD
ATOM     42  H   UNL     1     143.320 167.083 189.856  0.00  0.00    +0.029 HD
ATOM     43  H   UNL     1     144.416 166.063 187.673  0.00  0.00    +0.060 HD
ATOM     44  H   UNL     1     143.860 163.925 189.806  0.00  0.00    +0.040 HD
ATOM     45  H   UNL     1     144.828 165.350 190.222  0.00  0.00    +0.040 HD
ATOM     46  H   UNL     1     148.034 163.380 188.069  0.00  0.00    +0.074 HD
ATOM     47  H   UNL     1     149.210 165.803 189.497  0.00  0.00    +0.036 HD
ATOM     48  H   UNL     1     148.302 164.031 191.012  0.00  0.00    +0.060 HD
ATOM     49  H   UNL     1     151.361 164.026 191.150  0.00  0.00    +0.033 HD
ATOM     50  H   UNL     1     150.239 163.775 192.458  0.00  0.00    +0.033 HD
ATOM     51  H   UNL     1     149.341 166.183 192.103  0.00  0.00    +0.057 HD
ATOM     52  H   UNL     1     152.356 166.303 191.477  0.00  0.00    +0.067 HD
ATOM     53  H   UNL     1     152.238 170.989 192.457  0.00  0.00    +0.105 HD
ATOM     54  H   UNL     1     148.212 174.098 192.542  0.00  0.00    +0.105 HD
ATOM     55  H   UNL     1     143.269 174.321 191.717  0.00  0.00    +0.105 HD
ENDROOT
BRANCH   1  56
ATOM     56  C   UNL     1     141.473 172.376 190.062  0.00  0.00    -0.056 C 
ATOM     57  H   UNL     1     141.679 173.428 190.291  0.00  0.00    +0.024 HD
ATOM     58  H   UNL     1     140.445 172.177 190.376  0.00  0.00    +0.024 HD
ATOM     59  H   UNL     1     141.525 172.256 188.973  0.00  0.00    +0.024 HD
ENDBRANCH   1  56
BRANCH  14  60
ATOM     60  C   UNL     1     150.548 164.547 188.384  0.00  0.00    -0.057 C 
ATOM     61  H   UNL     1     150.448 163.710 187.687  0.00  0.00    +0.023 HD
ATOM     62  H   UNL     1     151.415 164.362 189.023  0.00  0.00    +0.023 HD
ATOM     63  H   UNL     1     150.782 165.442 187.799  0.00  0.00    +0.023 HD
ENDBRANCH  14  60
BRANCH  13  64
ATOM     64  C   UNL     1     147.893 165.293 187.062  0.00  0.00    +0.011 C 
ATOM     65  H   UNL     1     148.514 166.180 187.223  0.00  0.00    +0.033 HD
ATOM     66  H   UNL     1     146.865 165.657 186.951  0.00  0.00    +0.033 HD
BRANCH  64  67
ATOM     67  C   UNL     1     148.351 164.618 185.744  0.00  0.00    +0.064 C 
ATOM     68  H   UNL     1     148.730 163.616 185.979  0.00  0.00    +0.060 HD
BRANCH  67  69
ATOM     69  C   UNL     1     147.154 164.458 184.751  0.00  0.00    -0.017 C 
ATOM     70  H   UNL     1     147.495 164.816 183.770  0.00  0.00    +0.032 HD
BRANCH  69  71
ATOM     71  C   UNL     1     146.717 162.996 184.590  0.00  0.00    -0.060 C 
ATOM     72  H   UNL     1     147.558 162.353 184.311  0.00  0.00    +0.023 HD
ATOM     73  H   UNL     1     145.936 162.883 183.834  0.00  0.00    +0.023 HD
ATOM     74  H   UNL     1     146.284 162.611 185.515  0.00  0.00    +0.023 HD
ENDBRANCH  69  71
BRANCH  69  75
ATOM     75  C   UNL     1     145.965 165.351 185.190  0.00  0.00    -0.041 C 
ATOM     76  H   UNL     1     146.255 165.867 186.114  0.00  0.00    +0.027 HD
ATOM     77  H   UNL     1     145.092 164.736 185.437  0.00  0.00    +0.027 HD
BRANCH  75  78
ATOM     78  C   UNL     1     145.583 166.435 184.175  0.00  0.00    +0.007 C 
ATOM     79  H   UNL     1     145.530 165.986 183.178  0.00  0.00    +0.034 HD
ATOM     80  H   UNL     1     144.589 166.832 184.411  0.00  0.00    +0.034 HD
BRANCH  78  81
ATOM     81  C   UNL     1     146.572 167.590 184.065  0.00  0.00    +0.140 C 
ATOM     82  O   UNL     1     147.187 167.833 183.025  0.00  0.00    -0.297 OA
BRANCH  81  83
ATOM     83  C   UNL     1     146.760 168.433 185.320  0.00  0.00    +0.052 C 
ATOM     84  H   UNL     1     146.461 167.830 186.184  0.00  0.00    +0.041 HD
BRANCH  83  85
ATOM     85  C   UNL     1     148.251 168.749 185.473  0.00  0.00    -0.052 C 
ATOM     86  H   UNL     1     148.747 168.020 186.118  0.00  0.00    +0.024 HD
ATOM     87  H   UNL     1     148.765 168.736 184.508  0.00  0.00    +0.024 HD
ATOM     88  H   UNL     1     148.395 169.745 185.904  0.00  0.00    +0.024 HD
ENDBRANCH  83  85
BRANCH  83  89
ATOM     89  C   UNL     1     145.915 169.728 185.290  0.00  0.00    +0.118 C 
ATOM     90  H   UNL     1     145.235 169.687 184.432  0.00  0.00    +0.075 HD
BRANCH  89  91
ATOM     91  C   UNL     1     145.048 169.953 186.564  0.00  0.00    +0.014 C 
ATOM     92  H   UNL     1     144.740 168.965 186.903  0.00  0.00    +0.038 HD
BRANCH  91  93
ATOM     93  C   UNL     1     143.768 170.731 186.237  0.00  0.00    -0.056 C 
ATOM     94  H   UNL     1     143.980 171.699 185.765  0.00  0.00    +0.024 HD
ATOM     95  H   UNL     1     143.190 170.926 187.148  0.00  0.00    +0.024 HD
ATOM     96  H   UNL     1     143.131 170.154 185.558  0.00  0.00    +0.024 HD
ENDBRANCH  91  93
BRANCH  91  97
ATOM     97  C   UNL     1     145.803 170.669 187.662  0.00  0.00    -0.064 C 
ATOM     98  C   UNL     1     146.498 170.161 188.690  0.00  0.00    -0.010 C 
ATOM     99  H   UNL     1     145.830 171.755 187.550  0.00  0.00    +0.059 HD
ATOM    100  H   UNL     1     147.065 170.877 189.285  0.00  0.00    +0.078 HD
BRANCH  98 101
ATOM    101  N   UNL     1     146.701 168.869 189.149  0.00  0.00    -0.317 N 
BRANCH 101 102
ATOM    102  C   UNL     1     148.010 168.226 188.986  0.00  0.00    +0.002 C 
ATOM    103  H   UNL     1     148.225 167.552 189.826  0.00  0.00    +0.043 HD
ATOM    104  H   UNL     1     148.811 168.974 188.953  0.00  0.00    +0.043 HD
ATOM    105  H   UNL     1     148.033 167.638 188.062  0.00  0.00    +0.043 HD
ENDBRANCH 101 102
BRANCH 101 106
ATOM    106  C   UNL     1     145.823 168.171 190.079  0.00  0.00    +0.110 C 
ATOM    107  H   UNL     1     144.763 168.319 189.885  0.00  0.00    +0.077 HD
ATOM    108  H   UNL     1     146.016 167.095 190.084  0.00  0.00    +0.077 HD
BRANCH 106 109
ATOM    109  O   UNL     1     146.086 168.695 191.366  0.00  0.00    -0.377 OA
ATOM    110  H   UNL     1     145.318 169.278 191.503  0.00  0.00    +0.211 HD
ENDBRANCH 106 109
ENDBRANCH 101 106
ENDBRANCH  98 101
ENDBRANCH  91  97
ENDBRANCH  89  91
BRANCH  89 111
ATOM    111  O   UNL     1     146.842 170.840 185.158  0.00  0.00    -0.460 OA
BRANCH 111 112
ATOM    112  C   UNL     1     146.540 171.807 184.251  0.00  0.00    +0.304 C 
ATOM    113  O   UNL     1     146.111 172.923 184.502  0.00  0.00    -0.251 OA
BRANCH 112 114
ATOM    114  C   UNL     1     146.807 171.300 182.867  0.00  0.00    +0.033 C 
ATOM    115  H   UNL     1     146.629 172.097 182.140  0.00  0.00    +0.034 HD
ATOM    116  H   UNL     1     146.172 170.435 182.660  0.00  0.00    +0.034 HD
ATOM    117  H   UNL     1     147.855 170.989 182.792  0.00  0.00    +0.034 HD
ENDBRANCH 112 114
ENDBRANCH 111 112
ENDBRANCH  89 111
ENDBRANCH  83  89
ENDBRANCH  81  83
ENDBRANCH  78  81
ENDBRANCH  75  78
ENDBRANCH  69  75
ENDBRANCH  67  69
BRANCH  67 118
ATOM    118  O   UNL     1     149.364 165.409 185.120  0.00  0.00    -0.379 OA
BRANCH 118 119
ATOM    119  C   UNL     1     149.471 165.197 183.714  0.00  0.00    +0.037 C 
ATOM    120  H   UNL     1     150.456 165.502 183.354  0.00  0.00    +0.052 HD
ATOM    121  H   UNL     1     149.285 164.151 183.456  0.00  0.00    +0.052 HD
ATOM    122  H   UNL     1     148.715 165.815 183.220  0.00  0.00    +0.052 HD
ENDBRANCH 118 119
ENDBRANCH  67 118
ENDBRANCH  64  67
ENDBRANCH  13  64
BRANCH   8 123
ATOM    123  O   UNL     1     142.894 164.703 187.572  0.00  0.00    -0.391 OA
ATOM    124  H   UNL     1     143.429 164.414 186.805  0.00  0.00    +0.210 HD
ENDBRANCH   8 123
BRANCH  15 125
ATOM    125  O   UNL     1     149.457 162.526 190.158  0.00  0.00    -0.379 OA
BRANCH 125 126
ATOM    126  C   UNL     1     148.579 161.652 190.860  0.00  0.00    +0.037 C 
ATOM    127  H   UNL     1     148.485 160.699 190.326  0.00  0.00    +0.052 HD
ATOM    128  H   UNL     1     149.007 161.457 191.846  0.00  0.00    +0.052 HD
ATOM    129  H   UNL     1     147.593 162.109 190.994  0.00  0.00    +0.052 HD
ENDBRANCH 125 126
ENDBRANCH  15 125
TORSDOF 27
ENDMDL
