MODEL 1
REMARK VINA RESULT:      -5.0      0.000      0.000
REMARK  Name = 2a_conf1
REMARK  32 active torsions:
REMARK  status: ('A' for Active; 'I' for Inactive)
REMARK    1  A    between atoms: C_2  and  C_3
REMARK    2  A    between atoms: C_2  and  O_8
REMARK    3  A    between atoms: O_8  and  C_9
REMARK    4  A    between atoms: C_9  and  C_10
REMARK    5  A    between atoms: C_9  and  C_29
REMARK    6  A    between atoms: C_10  and  C_11
REMARK    7  A    between atoms: C_11  and  C_12
REMARK    8  A    between atoms: C_12  and  C_13
REMARK    9  A    between atoms: C_12  and  C_14
REMARK   10  A    between atoms: C_14  and  O_15
REMARK   11  A    between atoms: C_14  and  C_17
REMARK   12  A    between atoms: O_15  and  C_16
REMARK   13  A    between atoms: C_17  and  C_18
REMARK   14  A    between atoms: C_18  and  O_19
REMARK   15  A    between atoms: C_18  and  C_26
REMARK   16  A    between atoms: O_19  and  C_20
REMARK   17  A    between atoms: C_20  and  C_21
REMARK   18  A    between atoms: C_21  and  C_22
REMARK   19  A    between atoms: C_22  and  C_23
REMARK   20  A    between atoms: C_23  and  N_24
REMARK   21  A    between atoms: C_26  and  C_27
REMARK   22  A    between atoms: C_26  and  C_28
REMARK   23  A    between atoms: C_29  and  C_30
REMARK   24  A    between atoms: C_29  and  C_31
REMARK   25  A    between atoms: C_31  and  O_32
REMARK   26  A    between atoms: C_31  and  C_34
REMARK   27  A    between atoms: O_32  and  C_33
REMARK   28  A    between atoms: C_34  and  C_35
REMARK   29  A    between atoms: C_34  and  C_36
REMARK   30  A    between atoms: C_37  and  N_38
REMARK   31  A    between atoms: N_38  and  C_39
REMARK   32  A    between atoms: C_39  and  C_40
REMARK                            x       y       z     vdW  Elec       q    Type
REMARK                         _______ _______ _______ _____ _____    ______ ____
ROOT
ATOM      1  C   UNL     1     147.305 169.508 191.064  0.00  0.00    +0.108 C 
ATOM      2  H   UNL     1     146.381 169.516 191.655  0.00  0.00    +0.074 HD
ENDROOT
BRANCH   1   3
ATOM      3  C   UNL     1     148.477 169.263 192.034  0.00  0.00    -0.015 C 
ATOM      4  H   UNL     1     148.870 170.212 192.414  0.00  0.00    +0.030 HD
ATOM      5  H   UNL     1     148.113 168.686 192.886  0.00  0.00    +0.030 HD
BRANCH   3   6
ATOM      6  C   UNL     1     149.627 168.489 191.376  0.00  0.00    -0.045 C 
ATOM      7  H   UNL     1     149.369 167.429 191.284  0.00  0.00    +0.027 HD
ATOM      8  H   UNL     1     149.734 168.861 190.348  0.00  0.00    +0.027 HD
BRANCH   6   9
ATOM      9  C   UNL     1     150.986 168.653 192.100  0.00  0.00    -0.017 C 
ATOM     10  H   UNL     1     150.771 168.686 193.175  0.00  0.00    +0.032 HD
BRANCH   9  11
ATOM     11  C   UNL     1     151.587 170.020 191.738  0.00  0.00    -0.060 C 
ATOM     12  H   UNL     1     152.552 170.168 192.235  0.00  0.00    +0.023 HD
ATOM     13  H   UNL     1     151.735 170.129 190.658  0.00  0.00    +0.023 HD
ATOM     14  H   UNL     1     150.928 170.833 192.065  0.00  0.00    +0.023 HD
ENDBRANCH   9  11
BRANCH   9  15
ATOM     15  C   UNL     1     152.029 167.519 191.852  0.00  0.00    +0.064 C 
ATOM     16  H   UNL     1     152.874 167.959 191.312  0.00  0.00    +0.060 HD
BRANCH  15  17
ATOM     17  C   UNL     1     151.463 166.353 191.011  0.00  0.00    +0.011 C 
ATOM     18  H   UNL     1     151.754 165.410 191.493  0.00  0.00    +0.033 HD
ATOM     19  H   UNL     1     150.369 166.388 191.010  0.00  0.00    +0.033 HD
BRANCH  17  20
ATOM     20  C   UNL     1     151.938 166.286 189.540  0.00  0.00    +0.108 C 
ATOM     21  H   UNL     1     152.481 165.341 189.406  0.00  0.00    +0.074 HD
BRANCH  20  22
ATOM     22  C   UNL     1     150.801 166.320 188.486  0.00  0.00    -0.009 C 
ATOM     23  H   UNL     1     150.628 167.357 188.175  0.00  0.00    +0.033 HD
BRANCH  22  24
ATOM     24  C   UNL     1     151.208 165.554 187.219  0.00  0.00    -0.059 C 
ATOM     25  H   UNL     1     150.365 164.978 186.820  0.00  0.00    +0.023 HD
ATOM     26  H   UNL     1     152.024 164.854 187.427  0.00  0.00    +0.023 HD
ATOM     27  H   UNL     1     151.537 166.240 186.433  0.00  0.00    +0.023 HD
ENDBRANCH  22  24
BRANCH  22  28
ATOM     28  C   UNL     1     149.489 165.740 189.019  0.00  0.00    -0.059 C 
ATOM     29  H   UNL     1     149.532 164.644 189.063  0.00  0.00    +0.023 HD
ATOM     30  H   UNL     1     149.257 166.111 190.022  0.00  0.00    +0.023 HD
ATOM     31  H   UNL     1     148.650 166.020 188.373  0.00  0.00    +0.023 HD
ENDBRANCH  22  28
ENDBRANCH  20  22
BRANCH  20  32
ATOM     32  O   UNL     1     152.841 167.373 189.240  0.00  0.00    -0.461 OA
BRANCH  32  33
ATOM     33  C   UNL     1     153.970 167.056 188.547  0.00  0.00    +0.307 C 
ATOM     34  O   UNL     1     154.228 167.422 187.408  0.00  0.00    -0.251 OA
BRANCH  33  35
ATOM     35  C   UNL     1     154.858 166.174 189.392  0.00  0.00    +0.046 C 
ATOM     36  H   UNL     1     154.256 165.771 190.211  0.00  0.00    +0.038 HD
ATOM     37  H   UNL     1     155.661 166.789 189.812  0.00  0.00    +0.038 HD
BRANCH  35  38
ATOM     38  C   UNL     1     155.472 165.051 188.553  0.00  0.00    -0.031 C 
ATOM     39  H   UNL     1     155.382 164.093 189.083  0.00  0.00    +0.028 HD
ATOM     40  H   UNL     1     154.896 164.939 187.627  0.00  0.00    +0.028 HD
BRANCH  38  41
ATOM     41  C   UNL     1     156.934 165.308 188.193  0.00  0.00    -0.006 C 
ATOM     42  H   UNL     1     157.404 164.384 187.839  0.00  0.00    +0.042 HD
ATOM     43  H   UNL     1     157.480 165.634 189.088  0.00  0.00    +0.042 HD
BRANCH  41  44
ATOM     44  N   UNL     1     157.053 166.337 187.164  0.00  0.00    -0.330 NA
ATOM     45  H   UNL     1     157.293 167.225 187.607  0.00  0.00    +0.118 HD
ATOM     46  H   UNL     1     157.842 166.112 186.557  0.00  0.00    +0.118 HD
ENDBRANCH  41  44
ENDBRANCH  38  41
ENDBRANCH  35  38
ENDBRANCH  33  35
ENDBRANCH  32  33
ENDBRANCH  20  32
ENDBRANCH  17  20
ENDBRANCH  15  17
BRANCH  15  47
ATOM     47  O   UNL     1     152.518 166.972 193.084  0.00  0.00    -0.379 OA
BRANCH  47  48
ATOM     48  C   UNL     1     153.931 167.008 193.213  0.00  0.00    +0.037 C 
ATOM     49  H   UNL     1     154.327 166.007 193.406  0.00  0.00    +0.052 HD
ATOM     50  H   UNL     1     154.234 167.698 194.003  0.00  0.00    +0.052 HD
ATOM     51  H   UNL     1     154.348 167.362 192.266  0.00  0.00    +0.052 HD
ENDBRANCH  47  48
ENDBRANCH  15  47
ENDBRANCH   9  15
ENDBRANCH   6   9
ENDBRANCH   3   6
ENDBRANCH   1   3
BRANCH   1  52
ATOM     52  C   UNL     1     147.178 168.417 189.955  0.00  0.00    +0.020 C 
ATOM     53  H   UNL     1     148.074 167.786 190.038  0.00  0.00    +0.036 HD
BRANCH  52  54
ATOM     54  C   UNL     1     147.223 169.101 188.578  0.00  0.00    -0.057 C 
ATOM     55  H   UNL     1     147.301 168.355 187.776  0.00  0.00    +0.023 HD
ATOM     56  H   UNL     1     148.074 169.787 188.488  0.00  0.00    +0.023 HD
ATOM     57  H   UNL     1     146.310 169.671 188.385  0.00  0.00    +0.023 HD
ENDBRANCH  52  54
BRANCH  52  58
ATOM     58  C   UNL     1     145.940 167.479 190.124  0.00  0.00    +0.070 C 
ATOM     59  H   UNL     1     145.489 167.312 189.138  0.00  0.00    +0.061 HD
BRANCH  58  60
ATOM     60  C   UNL     1     146.276 166.071 190.713  0.00  0.00    +0.002 C 
ATOM     61  H   UNL     1     147.172 165.698 190.199  0.00  0.00    +0.037 HD
BRANCH  60  62
ATOM     62  C   UNL     1     146.528 166.100 192.210  0.00  0.00    -0.065 C 
ATOM     63  C   UNL     1     147.715 165.804 192.763  0.00  0.00    -0.005 C 
ATOM     64  H   UNL     1     145.670 166.373 192.820  0.00  0.00    +0.059 HD
ATOM     65  H   UNL     1     148.536 165.521 192.104  0.00  0.00    +0.078 HD
BRANCH  63  66
ATOM     66  N   UNL     1     148.016 165.804 194.116  0.00  0.00    -0.281 N 
ATOM     67  C   UNL     1     147.044 165.454 195.050  0.00  0.00    +0.206 C 
ATOM     68  O   UNL     1     147.168 165.454 196.269  0.00  0.00    -0.279 OA
ATOM     69  H   UNL     1     146.090 165.165 194.586  0.00  0.00    +0.126 HD
BRANCH  66  70
ATOM     70  C   UNL     1     149.323 166.207 194.634  0.00  0.00    +0.016 C 
ATOM     71  H   UNL     1     149.204 166.714 195.596  0.00  0.00    +0.047 HD
ATOM     72  H   UNL     1     149.765 166.949 193.957  0.00  0.00    +0.047 HD
BRANCH  70  73
ATOM     73  C   UNL     1     150.281 165.031 194.748  0.00  0.00    -0.049 C 
ATOM     74  H   UNL     1     149.787 164.155 195.183  0.00  0.00    +0.024 HD
ATOM     75  H   UNL     1     151.133 165.299 195.380  0.00  0.00    +0.024 HD
ATOM     76  H   UNL     1     150.657 164.741 193.763  0.00  0.00    +0.024 HD
ENDBRANCH  70  73
ENDBRANCH  66  70
ENDBRANCH  63  66
ENDBRANCH  60  62
BRANCH  60  77
ATOM     77  C   UNL     1     145.163 165.056 190.424  0.00  0.00    -0.057 C 
ATOM     78  H   UNL     1     144.950 164.971 189.352  0.00  0.00    +0.024 HD
ATOM     79  H   UNL     1     145.438 164.064 190.801  0.00  0.00    +0.024 HD
ATOM     80  H   UNL     1     144.231 165.350 190.921  0.00  0.00    +0.024 HD
ENDBRANCH  60  77
ENDBRANCH  58  60
BRANCH  58  81
ATOM     81  O   UNL     1     144.995 168.117 191.002  0.00  0.00    -0.379 OA
BRANCH  81  82
ATOM     82  C   UNL     1     143.802 168.542 190.357  0.00  0.00    +0.037 C 
ATOM     83  H   UNL     1     142.931 168.341 190.984  0.00  0.00    +0.052 HD
ATOM     84  H   UNL     1     143.847 169.605 190.107  0.00  0.00    +0.052 HD
ATOM     85  H   UNL     1     143.697 167.969 189.432  0.00  0.00    +0.052 HD
ENDBRANCH  81  82
ENDBRANCH  58  81
ENDBRANCH  52  58
ENDBRANCH   1  52
BRANCH   1  86
ATOM     86  O   UNL     1     147.503 170.813 190.483  0.00  0.00    -0.459 OA
BRANCH  86  88
ATOM     87  O   UNL     1     145.532 171.804 191.112  0.00  0.00    -0.248 OA
ATOM     88  C   UNL     1     146.749 171.829 190.988  0.00  0.00    +0.337 C 
BRANCH  88  89
ATOM     89  C   UNL     1     147.662 173.011 191.355  0.00  0.00    +0.155 C 
ATOM     90  O   UNL     1     149.045 172.625 191.447  0.00  0.00    -0.365 OA
ATOM     91  C   UNL     1     149.425 172.566 192.825  0.00  0.00    +0.049 C 
ATOM     92  C   UNL     1     148.167 172.758 193.646  0.00  0.00    -0.027 C 
ATOM     93  C   UNL     1     147.284 173.563 192.720  0.00  0.00    -0.014 C 
ATOM     94  H   UNL     1     147.577 173.765 190.564  0.00  0.00    +0.071 HD
ATOM     95  H   UNL     1     150.143 173.370 193.013  0.00  0.00    +0.056 HD
ATOM     96  H   UNL     1     149.911 171.609 193.029  0.00  0.00    +0.056 HD
ATOM     97  H   UNL     1     148.358 173.247 194.604  0.00  0.00    +0.029 HD
ATOM     98  H   UNL     1     147.702 171.787 193.854  0.00  0.00    +0.029 HD
ATOM     99  H   UNL     1     146.224 173.468 192.973  0.00  0.00    +0.030 HD
ATOM    100  H   UNL     1     147.564 174.626 192.780  0.00  0.00    +0.030 HD
ENDBRANCH  88  89
ENDBRANCH  86  88
ENDBRANCH   1  86
TORSDOF 32
ENDMDL
MODEL 2
REMARK VINA RESULT:      -4.9      2.465      3.603
REMARK  Name = 2a_conf1
REMARK  32 active torsions:
REMARK  status: ('A' for Active; 'I' for Inactive)
REMARK    1  A    between atoms: C_2  and  C_3
REMARK    2  A    between atoms: C_2  and  O_8
REMARK    3  A    between atoms: O_8  and  C_9
REMARK    4  A    between atoms: C_9  and  C_10
REMARK    5  A    between atoms: C_9  and  C_29
REMARK    6  A    between atoms: C_10  and  C_11
REMARK    7  A    between atoms: C_11  and  C_12
REMARK    8  A    between atoms: C_12  and  C_13
REMARK    9  A    between atoms: C_12  and  C_14
REMARK   10  A    between atoms: C_14  and  O_15
REMARK   11  A    between atoms: C_14  and  C_17
REMARK   12  A    between atoms: O_15  and  C_16
REMARK   13  A    between atoms: C_17  and  C_18
REMARK   14  A    between atoms: C_18  and  O_19
REMARK   15  A    between atoms: C_18  and  C_26
REMARK   16  A    between atoms: O_19  and  C_20
REMARK   17  A    between atoms: C_20  and  C_21
REMARK   18  A    between atoms: C_21  and  C_22
REMARK   19  A    between atoms: C_22  and  C_23
REMARK   20  A    between atoms: C_23  and  N_24
REMARK   21  A    between atoms: C_26  and  C_27
REMARK   22  A    between atoms: C_26  and  C_28
REMARK   23  A    between atoms: C_29  and  C_30
REMARK   24  A    between atoms: C_29  and  C_31
REMARK   25  A    between atoms: C_31  and  O_32
REMARK   26  A    between atoms: C_31  and  C_34
REMARK   27  A    between atoms: O_32  and  C_33
REMARK   28  A    between atoms: C_34  and  C_35
REMARK   29  A    between atoms: C_34  and  C_36
REMARK   30  A    between atoms: C_37  and  N_38
REMARK   31  A    between atoms: N_38  and  C_39
REMARK   32  A    between atoms: C_39  and  C_40
REMARK                            x       y       z     vdW  Elec       q    Type
REMARK                         _______ _______ _______ _____ _____    ______ ____
ROOT
ATOM      1  C   UNL     1     148.739 168.502 191.806  0.00  0.00    +0.108 C 
ATOM      2  H   UNL     1     147.908 168.787 192.462  0.00  0.00    +0.074 HD
ENDROOT
BRANCH   1   3
ATOM      3  C   UNL     1     149.992 168.329 192.686  0.00  0.00    -0.015 C 
ATOM      4  H   UNL     1     150.086 169.160 193.393  0.00  0.00    +0.030 HD
ATOM      5  H   UNL     1     149.890 167.407 193.263  0.00  0.00    +0.030 HD
BRANCH   3   6
ATOM      6  C   UNL     1     151.280 168.246 191.858  0.00  0.00    -0.045 C 
ATOM      7  H   UNL     1     151.062 168.412 190.798  0.00  0.00    +0.027 HD
ATOM      8  H   UNL     1     151.927 169.081 192.164  0.00  0.00    +0.027 HD
BRANCH   6   9
ATOM      9  C   UNL     1     152.062 166.924 192.047  0.00  0.00    -0.017 C 
ATOM     10  H   UNL     1     151.362 166.200 192.482  0.00  0.00    +0.032 HD
BRANCH   9  11
ATOM     11  C   UNL     1     153.167 167.139 193.095  0.00  0.00    -0.060 C 
ATOM     12  H   UNL     1     153.268 166.261 193.743  0.00  0.00    +0.023 HD
ATOM     13  H   UNL     1     154.138 167.340 192.631  0.00  0.00    +0.023 HD
ATOM     14  H   UNL     1     152.927 167.990 193.742  0.00  0.00    +0.023 HD
ENDBRANCH   9  11
BRANCH   9  15
ATOM     15  C   UNL     1     152.661 166.296 190.750  0.00  0.00    +0.064 C 
ATOM     16  H   UNL     1     151.901 165.633 190.322  0.00  0.00    +0.060 HD
BRANCH  15  17
ATOM     17  C   UNL     1     153.940 165.471 191.013  0.00  0.00    +0.011 C 
ATOM     18  H   UNL     1     154.684 166.130 191.478  0.00  0.00    +0.033 HD
ATOM     19  H   UNL     1     153.727 164.671 191.729  0.00  0.00    +0.033 HD
BRANCH  17  20
ATOM     20  C   UNL     1     154.602 164.832 189.769  0.00  0.00    +0.108 C 
ATOM     21  H   UNL     1     154.079 165.211 188.880  0.00  0.00    +0.074 HD
BRANCH  20  22
ATOM     22  C   UNL     1     156.108 165.156 189.594  0.00  0.00    -0.009 C 
ATOM     23  H   UNL     1     156.280 165.542 188.582  0.00  0.00    +0.033 HD
BRANCH  22  24
ATOM     24  C   UNL     1     156.542 166.271 190.557  0.00  0.00    -0.059 C 
ATOM     25  H   UNL     1     157.361 165.935 191.202  0.00  0.00    +0.023 HD
ATOM     26  H   UNL     1     155.711 166.580 191.200  0.00  0.00    +0.023 HD
ATOM     27  H   UNL     1     156.895 167.149 190.008  0.00  0.00    +0.023 HD
ENDBRANCH  22  24
BRANCH  22  28
ATOM     28  C   UNL     1     157.001 163.933 189.813  0.00  0.00    -0.059 C 
ATOM     29  H   UNL     1     157.859 164.181 190.450  0.00  0.00    +0.023 HD
ATOM     30  H   UNL     1     156.456 163.109 190.284  0.00  0.00    +0.023 HD
ATOM     31  H   UNL     1     157.385 163.556 188.858  0.00  0.00    +0.023 HD
ENDBRANCH  22  28
ENDBRANCH  20  22
BRANCH  20  32
ATOM     32  O   UNL     1     154.466 163.394 189.794  0.00  0.00    -0.461 OA
BRANCH  32  33
ATOM     33  C   UNL     1     153.538 162.853 188.957  0.00  0.00    +0.307 C 
ATOM     34  O   UNL     1     152.328 163.021 189.038  0.00  0.00    -0.251 OA
BRANCH  33  35
ATOM     35  C   UNL     1     154.223 162.003 187.914  0.00  0.00    +0.046 C 
ATOM     36  H   UNL     1     154.897 162.646 187.342  0.00  0.00    +0.038 HD
ATOM     37  H   UNL     1     153.460 161.601 187.238  0.00  0.00    +0.038 HD
BRANCH  35  38
ATOM     38  C   UNL     1     154.981 160.843 188.563  0.00  0.00    -0.031 C 
ATOM     39  H   UNL     1     155.933 160.677 188.041  0.00  0.00    +0.028 HD
ATOM     40  H   UNL     1     155.244 161.119 189.592  0.00  0.00    +0.028 HD
BRANCH  38  41
ATOM     41  C   UNL     1     154.173 159.547 188.594  0.00  0.00    -0.006 C 
ATOM     42  H   UNL     1     154.828 158.690 188.405  0.00  0.00    +0.042 HD
ATOM     43  H   UNL     1     153.418 159.567 187.798  0.00  0.00    +0.042 HD
BRANCH  41  44
ATOM     44  N   UNL     1     153.504 159.371 189.880  0.00  0.00    -0.330 NA
ATOM     45  H   UNL     1     153.969 159.951 190.580  0.00  0.00    +0.118 HD
ATOM     46  H   UNL     1     152.552 159.733 189.813  0.00  0.00    +0.118 HD
ENDBRANCH  41  44
ENDBRANCH  38  41
ENDBRANCH  35  38
ENDBRANCH  33  35
ENDBRANCH  32  33
ENDBRANCH  20  32
ENDBRANCH  17  20
ENDBRANCH  15  17
BRANCH  15  47
ATOM     47  O   UNL     1     152.981 167.299 189.777  0.00  0.00    -0.379 OA
BRANCH  47  48
ATOM     48  C   UNL     1     152.314 167.137 188.535  0.00  0.00    +0.037 C 
ATOM     49  H   UNL     1     151.301 167.547 188.584  0.00  0.00    +0.052 HD
ATOM     50  H   UNL     1     152.287 166.086 188.239  0.00  0.00    +0.052 HD
ATOM     51  H   UNL     1     152.869 167.696 187.777  0.00  0.00    +0.052 HD
ENDBRANCH  47  48
ENDBRANCH  15  47
ENDBRANCH   9  15
ENDBRANCH   6   9
ENDBRANCH   3   6
ENDBRANCH   1   3
BRANCH   1  52
ATOM     52  C   UNL     1     148.340 167.207 191.030  0.00  0.00    +0.020 C 
ATOM     53  H   UNL     1     148.950 166.396 191.450  0.00  0.00    +0.036 HD
BRANCH  52  54
ATOM     54  C   UNL     1     148.741 167.368 189.554  0.00  0.00    -0.057 C 
ATOM     55  H   UNL     1     149.526 166.652 189.284  0.00  0.00    +0.023 HD
ATOM     56  H   UNL     1     149.113 168.378 189.338  0.00  0.00    +0.023 HD
ATOM     57  H   UNL     1     147.896 167.172 188.887  0.00  0.00    +0.023 HD
ENDBRANCH  52  54
BRANCH  52  58
ATOM     58  C   UNL     1     146.844 166.795 191.208  0.00  0.00    +0.070 C 
ATOM     59  H   UNL     1     146.492 166.338 190.276  0.00  0.00    +0.061 HD
BRANCH  58  60
ATOM     60  C   UNL     1     146.596 165.752 192.345  0.00  0.00    +0.002 C 
ATOM     61  H   UNL     1     146.243 164.824 191.878  0.00  0.00    +0.037 HD
BRANCH  60  62
ATOM     62  C   UNL     1     147.841 165.462 193.165  0.00  0.00    -0.065 C 
ATOM     63  C   UNL     1     148.007 165.886 194.427  0.00  0.00    -0.005 C 
ATOM     64  H   UNL     1     148.609 164.884 192.654  0.00  0.00    +0.059 HD
ATOM     65  H   UNL     1     147.211 166.475 194.884  0.00  0.00    +0.078 HD
BRANCH  63  66
ATOM     66  N   UNL     1     149.114 165.665 195.232  0.00  0.00    -0.281 N 
ATOM     67  C   UNL     1     150.276 165.121 194.690  0.00  0.00    +0.206 C 
ATOM     68  O   UNL     1     151.303 164.839 195.296  0.00  0.00    -0.279 OA
ATOM     69  H   UNL     1     150.200 164.943 193.607  0.00  0.00    +0.126 HD
BRANCH  66  70
ATOM     70  C   UNL     1     149.114 165.937 196.669  0.00  0.00    +0.016 C 
ATOM     71  H   UNL     1     150.027 166.471 196.948  0.00  0.00    +0.047 HD
ATOM     72  H   UNL     1     149.145 164.986 197.215  0.00  0.00    +0.047 HD
BRANCH  70  73
ATOM     73  C   UNL     1     147.875 166.702 197.106  0.00  0.00    -0.049 C 
ATOM     74  H   UNL     1     147.125 166.739 196.307  0.00  0.00    +0.024 HD
ATOM     75  H   UNL     1     148.142 167.727 197.379  0.00  0.00    +0.024 HD
ATOM     76  H   UNL     1     147.408 166.223 197.971  0.00  0.00    +0.024 HD
ENDBRANCH  70  73
ENDBRANCH  66  70
ENDBRANCH  63  66
ENDBRANCH  60  62
BRANCH  60  77
ATOM     77  C   UNL     1     145.480 166.205 193.296  0.00  0.00    -0.057 C 
ATOM     78  H   UNL     1     145.829 166.288 194.331  0.00  0.00    +0.024 HD
ATOM     79  H   UNL     1     145.081 167.178 192.986  0.00  0.00    +0.024 HD
ATOM     80  H   UNL     1     144.649 165.490 193.286  0.00  0.00    +0.024 HD
ENDBRANCH  60  77
ENDBRANCH  58  60
BRANCH  58  81
ATOM     81  O   UNL     1     146.073 167.973 191.506  0.00  0.00    -0.379 OA
BRANCH  81  82
ATOM     82  C   UNL     1     145.215 168.386 190.451  0.00  0.00    +0.037 C 
ATOM     83  H   UNL     1     144.543 167.577 190.160  0.00  0.00    +0.052 HD
ATOM     84  H   UNL     1     144.639 169.270 190.736  0.00  0.00    +0.052 HD
ATOM     85  H   UNL     1     145.840 168.638 189.590  0.00  0.00    +0.052 HD
ENDBRANCH  81  82
ENDBRANCH  58  81
ENDBRANCH  52  58
ENDBRANCH   1  52
BRANCH   1  86
ATOM     86  O   UNL     1     149.010 169.586 190.893  0.00  0.00    -0.459 OA
BRANCH  86  88
ATOM     87  O   UNL     1     147.495 171.018 189.935  0.00  0.00    -0.248 OA
ATOM     88  C   UNL     1     148.134 170.629 190.904  0.00  0.00    +0.337 C 
BRANCH  88  89
ATOM     89  C   UNL     1     148.093 171.249 192.310  0.00  0.00    +0.155 C 
ATOM     90  O   UNL     1     146.996 172.166 192.472  0.00  0.00    -0.365 OA
ATOM     91  C   UNL     1     147.497 173.505 192.452  0.00  0.00    +0.049 C 
ATOM     92  C   UNL     1     148.964 173.431 192.086  0.00  0.00    -0.027 C 
ATOM     93  C   UNL     1     149.358 172.054 192.567  0.00  0.00    -0.014 C 
ATOM     94  H   UNL     1     147.963 170.438 193.037  0.00  0.00    +0.071 HD
ATOM     95  H   UNL     1     147.362 173.933 193.450  0.00  0.00    +0.056 HD
ATOM     96  H   UNL     1     146.922 174.099 191.738  0.00  0.00    +0.056 HD
ATOM     97  H   UNL     1     149.553 174.236 192.533  0.00  0.00    +0.029 HD
ATOM     98  H   UNL     1     149.084 173.494 190.998  0.00  0.00    +0.029 HD
ATOM     99  H   UNL     1     150.249 171.676 192.057  0.00  0.00    +0.030 HD
ATOM    100  H   UNL     1     149.563 172.088 193.648  0.00  0.00    +0.030 HD
ENDBRANCH  88  89
ENDBRANCH  86  88
ENDBRANCH   1  86
TORSDOF 32
ENDMDL
MODEL 3
REMARK VINA RESULT:      -4.9      3.504      7.219
REMARK  Name = 2a_conf1
REMARK  32 active torsions:
REMARK  status: ('A' for Active; 'I' for Inactive)
REMARK    1  A    between atoms: C_2  and  C_3
REMARK    2  A    between atoms: C_2  and  O_8
REMARK    3  A    between atoms: O_8  and  C_9
REMARK    4  A    between atoms: C_9  and  C_10
REMARK    5  A    between atoms: C_9  and  C_29
REMARK    6  A    between atoms: C_10  and  C_11
REMARK    7  A    between atoms: C_11  and  C_12
REMARK    8  A    between atoms: C_12  and  C_13
REMARK    9  A    between atoms: C_12  and  C_14
REMARK   10  A    between atoms: C_14  and  O_15
REMARK   11  A    between atoms: C_14  and  C_17
REMARK   12  A    between atoms: O_15  and  C_16
REMARK   13  A    between atoms: C_17  and  C_18
REMARK   14  A    between atoms: C_18  and  O_19
REMARK   15  A    between atoms: C_18  and  C_26
REMARK   16  A    between atoms: O_19  and  C_20
REMARK   17  A    between atoms: C_20  and  C_21
REMARK   18  A    between atoms: C_21  and  C_22
REMARK   19  A    between atoms: C_22  and  C_23
REMARK   20  A    between atoms: C_23  and  N_24
REMARK   21  A    between atoms: C_26  and  C_27
REMARK   22  A    between atoms: C_26  and  C_28
REMARK   23  A    between atoms: C_29  and  C_30
REMARK   24  A    between atoms: C_29  and  C_31
REMARK   25  A    between atoms: C_31  and  O_32
REMARK   26  A    between atoms: C_31  and  C_34
REMARK   27  A    between atoms: O_32  and  C_33
REMARK   28  A    between atoms: C_34  and  C_35
REMARK   29  A    between atoms: C_34  and  C_36
REMARK   30  A    between atoms: C_37  and  N_38
REMARK   31  A    between atoms: N_38  and  C_39
REMARK   32  A    between atoms: C_39  and  C_40
REMARK                            x       y       z     vdW  Elec       q    Type
REMARK                         _______ _______ _______ _____ _____    ______ ____
ROOT
ATOM      1  C   UNL     1     146.252 169.712 190.051  0.00  0.00    +0.108 C 
ATOM      2  H   UNL     1     145.330 170.111 190.491  0.00  0.00    +0.074 HD
ENDROOT
BRANCH   1   3
ATOM      3  C   UNL     1     146.759 168.584 190.970  0.00  0.00    -0.015 C 
ATOM      4  H   UNL     1     146.418 168.739 191.998  0.00  0.00    +0.030 HD
ATOM      5  H   UNL     1     146.348 167.635 190.619  0.00  0.00    +0.030 HD
BRANCH   3   6
ATOM      6  C   UNL     1     148.290 168.480 190.976  0.00  0.00    -0.045 C 
ATOM      7  H   UNL     1     148.720 169.161 190.235  0.00  0.00    +0.027 HD
ATOM      8  H   UNL     1     148.644 168.840 191.953  0.00  0.00    +0.027 HD
BRANCH   6   9
ATOM      9  C   UNL     1     148.820 167.042 190.762  0.00  0.00    -0.017 C 
ATOM     10  H   UNL     1     149.670 167.116 190.073  0.00  0.00    +0.032 HD
BRANCH   9  11
ATOM     11  C   UNL     1     147.747 166.214 190.035  0.00  0.00    -0.060 C 
ATOM     12  H   UNL     1     148.187 165.324 189.571  0.00  0.00    +0.023 HD
ATOM     13  H   UNL     1     146.950 165.891 190.713  0.00  0.00    +0.023 HD
ATOM     14  H   UNL     1     147.283 166.799 189.233  0.00  0.00    +0.023 HD
ENDBRANCH   9  11
BRANCH   9  15
ATOM     15  C   UNL     1     149.303 166.297 192.045  0.00  0.00    +0.064 C 
ATOM     16  H   UNL     1     150.090 165.597 191.745  0.00  0.00    +0.060 HD
BRANCH  15  17
ATOM     17  C   UNL     1     148.177 165.500 192.740  0.00  0.00    +0.011 C 
ATOM     18  H   UNL     1     147.307 165.479 192.070  0.00  0.00    +0.033 HD
ATOM     19  H   UNL     1     148.491 164.462 192.890  0.00  0.00    +0.033 HD
BRANCH  17  20
ATOM     20  C   UNL     1     147.696 166.054 194.103  0.00  0.00    +0.108 C 
ATOM     21  H   UNL     1     148.037 167.095 194.180  0.00  0.00    +0.074 HD
BRANCH  20  22
ATOM     22  C   UNL     1     146.159 166.053 194.301  0.00  0.00    -0.009 C 
ATOM     23  H   UNL     1     145.858 166.983 194.799  0.00  0.00    +0.033 HD
BRANCH  22  24
ATOM     24  C   UNL     1     145.434 166.038 192.947  0.00  0.00    -0.059 C 
ATOM     25  H   UNL     1     144.757 165.180 192.874  0.00  0.00    +0.023 HD
ATOM     26  H   UNL     1     146.149 165.975 192.119  0.00  0.00    +0.023 HD
ATOM     27  H   UNL     1     144.833 166.943 192.812  0.00  0.00    +0.023 HD
ENDBRANCH  22  24
BRANCH  22  28
ATOM     28  C   UNL     1     145.675 164.867 195.138  0.00  0.00    -0.059 C 
ATOM     29  H   UNL     1     145.109 164.156 194.523  0.00  0.00    +0.023 HD
ATOM     30  H   UNL     1     146.507 164.329 195.602  0.00  0.00    +0.023 HD
ATOM     31  H   UNL     1     145.022 165.206 195.951  0.00  0.00    +0.023 HD
ENDBRANCH  22  28
ENDBRANCH  20  22
BRANCH  20  32
ATOM     32  O   UNL     1     148.276 165.306 195.195  0.00  0.00    -0.461 OA
BRANCH  32  33
ATOM     33  C   UNL     1     148.734 166.029 196.255  0.00  0.00    +0.307 C 
ATOM     34  O   UNL     1     148.032 166.625 197.061  0.00  0.00    -0.251 OA
BRANCH  33  35
ATOM     35  C   UNL     1     150.243 165.996 196.284  0.00  0.00    +0.046 C 
ATOM     36  H   UNL     1     150.565 166.085 197.325  0.00  0.00    +0.038 HD
ATOM     37  H   UNL     1     150.620 166.858 195.722  0.00  0.00    +0.038 HD
BRANCH  35  38
ATOM     38  C   UNL     1     150.775 164.709 195.649  0.00  0.00    -0.031 C 
ATOM     39  H   UNL     1     150.072 164.349 194.885  0.00  0.00    +0.028 HD
ATOM     40  H   UNL     1     151.710 164.931 195.120  0.00  0.00    +0.028 HD
BRANCH  38  41
ATOM     41  C   UNL     1     151.040 163.606 196.671  0.00  0.00    -0.006 C 
ATOM     42  H   UNL     1     150.296 163.649 197.474  0.00  0.00    +0.042 HD
ATOM     43  H   UNL     1     152.026 163.758 197.127  0.00  0.00    +0.042 HD
BRANCH  41  44
ATOM     44  N   UNL     1     151.003 162.286 196.047  0.00  0.00    -0.330 NA
ATOM     45  H   UNL     1     150.030 162.008 195.912  0.00  0.00    +0.118 HD
ATOM     46  H   UNL     1     151.403 162.349 195.110  0.00  0.00    +0.118 HD
ENDBRANCH  41  44
ENDBRANCH  38  41
ENDBRANCH  35  38
ENDBRANCH  33  35
ENDBRANCH  32  33
ENDBRANCH  20  32
ENDBRANCH  17  20
ENDBRANCH  15  17
BRANCH  15  47
ATOM     47  O   UNL     1     149.852 167.206 193.008  0.00  0.00    -0.379 OA
BRANCH  47  48
ATOM     48  C   UNL     1     151.254 167.396 192.892  0.00  0.00    +0.037 C 
ATOM     49  H   UNL     1     151.785 166.450 193.032  0.00  0.00    +0.052 HD
ATOM     50  H   UNL     1     151.609 168.143 193.605  0.00  0.00    +0.052 HD
ATOM     51  H   UNL     1     151.464 167.756 191.881  0.00  0.00    +0.052 HD
ENDBRANCH  47  48
ENDBRANCH  15  47
ENDBRANCH   9  15
ENDBRANCH   6   9
ENDBRANCH   3   6
ENDBRANCH   1   3
BRANCH   1  52
ATOM     52  C   UNL     1     145.946 169.238 188.596  0.00  0.00    +0.020 C 
ATOM     53  H   UNL     1     145.808 168.150 188.648  0.00  0.00    +0.036 HD
BRANCH  52  54
ATOM     54  C   UNL     1     147.179 169.506 187.716  0.00  0.00    -0.057 C 
ATOM     55  H   UNL     1     147.937 170.071 188.271  0.00  0.00    +0.023 HD
ATOM     56  H   UNL     1     146.923 170.077 186.814  0.00  0.00    +0.023 HD
ATOM     57  H   UNL     1     147.654 168.573 187.399  0.00  0.00    +0.023 HD
ENDBRANCH  52  54
BRANCH  52  58
ATOM     58  C   UNL     1     144.634 169.838 187.995  0.00  0.00    +0.070 C 
ATOM     59  H   UNL     1     143.830 169.098 188.099  0.00  0.00    +0.061 HD
BRANCH  58  60
ATOM     60  C   UNL     1     144.142 171.143 188.699  0.00  0.00    +0.002 C 
ATOM     61  H   UNL     1     144.401 171.068 189.763  0.00  0.00    +0.037 HD
BRANCH  60  62
ATOM     62  C   UNL     1     144.763 172.400 188.117  0.00  0.00    -0.065 C 
ATOM     63  C   UNL     1     144.081 173.279 187.366  0.00  0.00    -0.005 C 
ATOM     64  H   UNL     1     145.818 172.545 188.342  0.00  0.00    +0.059 HD
ATOM     65  H   UNL     1     143.030 173.076 187.159  0.00  0.00    +0.078 HD
BRANCH  63  66
ATOM     66  N   UNL     1     144.581 174.442 186.799  0.00  0.00    -0.281 N 
ATOM     67  C   UNL     1     145.914 174.508 186.401  0.00  0.00    +0.206 C 
ATOM     68  O   UNL     1     146.487 175.483 185.928  0.00  0.00    -0.279 OA
ATOM     69  H   UNL     1     146.455 173.564 186.558  0.00  0.00    +0.126 HD
BRANCH  66  70
ATOM     70  C   UNL     1     143.774 175.649 186.632  0.00  0.00    +0.016 C 
ATOM     71  H   UNL     1     143.469 175.753 185.587  0.00  0.00    +0.047 HD
ATOM     72  H   UNL     1     144.394 176.528 186.851  0.00  0.00    +0.047 HD
BRANCH  70  73
ATOM     73  C   UNL     1     142.571 175.667 187.560  0.00  0.00    -0.049 C 
ATOM     74  H   UNL     1     142.629 174.864 188.305  0.00  0.00    +0.024 HD
ATOM     75  H   UNL     1     141.649 175.541 186.985  0.00  0.00    +0.024 HD
ATOM     76  H   UNL     1     142.514 176.615 188.103  0.00  0.00    +0.024 HD
ENDBRANCH  70  73
ENDBRANCH  66  70
ENDBRANCH  63  66
ENDBRANCH  60  62
BRANCH  60  77
ATOM     77  C   UNL     1     142.615 171.279 188.638  0.00  0.00    -0.057 C 
ATOM     78  H   UNL     1     142.304 172.237 188.206  0.00  0.00    +0.024 HD
ATOM     79  H   UNL     1     142.180 170.471 188.038  0.00  0.00    +0.024 HD
ATOM     80  H   UNL     1     142.180 171.215 189.642  0.00  0.00    +0.024 HD
ENDBRANCH  60  77
ENDBRANCH  58  60
BRANCH  58  81
ATOM     81  O   UNL     1     144.857 170.136 186.605  0.00  0.00    -0.379 OA
BRANCH  81  82
ATOM     82  C   UNL     1     144.094 169.337 185.711  0.00  0.00    +0.037 C 
ATOM     83  H   UNL     1     144.668 169.106 184.812  0.00  0.00    +0.052 HD
ATOM     84  H   UNL     1     143.762 168.414 186.193  0.00  0.00    +0.052 HD
ATOM     85  H   UNL     1     143.213 169.913 185.415  0.00  0.00    +0.052 HD
ENDBRANCH  81  82
ENDBRANCH  58  81
ENDBRANCH  52  58
ENDBRANCH   1  52
BRANCH   1  86
ATOM     86  O   UNL     1     147.259 170.745 190.055  0.00  0.00    -0.459 OA
BRANCH  86  88
ATOM     87  O   UNL     1     146.001 172.073 191.440  0.00  0.00    -0.248 OA
ATOM     88  C   UNL     1     147.070 171.781 190.920  0.00  0.00    +0.337 C 
BRANCH  88  89
ATOM     89  C   UNL     1     148.396 172.532 191.118  0.00  0.00    +0.155 C 
ATOM     90  O   UNL     1     149.523 171.641 191.193  0.00  0.00    -0.365 OA
ATOM     91  C   UNL     1     149.961 171.550 192.552  0.00  0.00    +0.049 C 
ATOM     92  C   UNL     1     148.948 172.289 193.400  0.00  0.00    -0.027 C 
ATOM     93  C   UNL     1     148.375 173.298 192.432  0.00  0.00    -0.014 C 
ATOM     94  H   UNL     1     148.548 173.191 190.255  0.00  0.00    +0.071 HD
ATOM     95  H   UNL     1     150.948 172.016 192.622  0.00  0.00    +0.056 HD
ATOM     96  H   UNL     1     150.051 170.499 192.837  0.00  0.00    +0.056 HD
ATOM     97  H   UNL     1     149.391 172.740 194.291  0.00  0.00    +0.029 HD
ATOM     98  H   UNL     1     148.160 171.602 193.730  0.00  0.00    +0.029 HD
ATOM     99  H   UNL     1     147.386 173.651 192.738  0.00  0.00    +0.030 HD
ATOM    100  H   UNL     1     149.050 174.165 192.366  0.00  0.00    +0.030 HD
ENDBRANCH  88  89
ENDBRANCH  86  88
ENDBRANCH   1  86
TORSDOF 32
ENDMDL
MODEL 4
REMARK VINA RESULT:      -4.8      2.840      7.098
REMARK  Name = 2a_conf1
REMARK  32 active torsions:
REMARK  status: ('A' for Active; 'I' for Inactive)
REMARK    1  A    between atoms: C_2  and  C_3
REMARK    2  A    between atoms: C_2  and  O_8
REMARK    3  A    between atoms: O_8  and  C_9
REMARK    4  A    between atoms: C_9  and  C_10
REMARK    5  A    between atoms: C_9  and  C_29
REMARK    6  A    between atoms: C_10  and  C_11
REMARK    7  A    between atoms: C_11  and  C_12
REMARK    8  A    between atoms: C_12  and  C_13
REMARK    9  A    between atoms: C_12  and  C_14
REMARK   10  A    between atoms: C_14  and  O_15
REMARK   11  A    between atoms: C_14  and  C_17
REMARK   12  A    between atoms: O_15  and  C_16
REMARK   13  A    between atoms: C_17  and  C_18
REMARK   14  A    between atoms: C_18  and  O_19
REMARK   15  A    between atoms: C_18  and  C_26
REMARK   16  A    between atoms: O_19  and  C_20
REMARK   17  A    between atoms: C_20  and  C_21
REMARK   18  A    between atoms: C_21  and  C_22
REMARK   19  A    between atoms: C_22  and  C_23
REMARK   20  A    between atoms: C_23  and  N_24
REMARK   21  A    between atoms: C_26  and  C_27
REMARK   22  A    between atoms: C_26  and  C_28
REMARK   23  A    between atoms: C_29  and  C_30
REMARK   24  A    between atoms: C_29  and  C_31
REMARK   25  A    between atoms: C_31  and  O_32
REMARK   26  A    between atoms: C_31  and  C_34
REMARK   27  A    between atoms: O_32  and  C_33
REMARK   28  A    between atoms: C_34  and  C_35
REMARK   29  A    between atoms: C_34  and  C_36
REMARK   30  A    between atoms: C_37  and  N_38
REMARK   31  A    between atoms: N_38  and  C_39
REMARK   32  A    between atoms: C_39  and  C_40
REMARK                            x       y       z     vdW  Elec       q    Type
REMARK                         _______ _______ _______ _____ _____    ______ ____
ROOT
ATOM      1  C   UNL     1     148.910 168.385 192.353  0.00  0.00    +0.108 C 
ATOM      2  H   UNL     1     148.656 167.897 191.404  0.00  0.00    +0.074 HD
ENDROOT
BRANCH   1   3
ATOM      3  C   UNL     1     148.219 167.597 193.483  0.00  0.00    -0.015 C 
ATOM      4  H   UNL     1     148.961 167.128 194.137  0.00  0.00    +0.030 HD
ATOM      5  H   UNL     1     147.631 168.292 194.086  0.00  0.00    +0.030 HD
BRANCH   3   6
ATOM      6  C   UNL     1     147.285 166.505 192.946  0.00  0.00    -0.045 C 
ATOM      7  H   UNL     1     147.157 166.612 191.864  0.00  0.00    +0.027 HD
ATOM      8  H   UNL     1     147.784 165.537 193.094  0.00  0.00    +0.027 HD
BRANCH   6   9
ATOM      9  C   UNL     1     145.907 166.459 193.651  0.00  0.00    -0.017 C 
ATOM     10  H   UNL     1     145.892 167.284 194.374  0.00  0.00    +0.032 HD
BRANCH   9  11
ATOM     11  C   UNL     1     145.806 165.163 194.471  0.00  0.00    -0.060 C 
ATOM     12  H   UNL     1     146.121 165.331 195.508  0.00  0.00    +0.023 HD
ATOM     13  H   UNL     1     144.786 164.763 194.481  0.00  0.00    +0.023 HD
ATOM     14  H   UNL     1     146.461 164.389 194.057  0.00  0.00    +0.023 HD
ENDBRANCH   9  11
BRANCH   9  15
ATOM     15  C   UNL     1     144.663 166.611 192.721  0.00  0.00    +0.064 C 
ATOM     16  H   UNL     1     144.313 165.604 192.469  0.00  0.00    +0.060 HD
BRANCH  15  17
ATOM     17  C   UNL     1     144.979 167.362 191.409  0.00  0.00    +0.011 C 
ATOM     18  H   UNL     1     144.280 168.205 191.319  0.00  0.00    +0.033 HD
ATOM     19  H   UNL     1     145.987 167.785 191.453  0.00  0.00    +0.033 HD
BRANCH  17  20
ATOM     20  C   UNL     1     144.869 166.530 190.108  0.00  0.00    +0.108 C 
ATOM     21  H   UNL     1     144.088 166.985 189.485  0.00  0.00    +0.074 HD
BRANCH  20  22
ATOM     22  C   UNL     1     146.166 166.475 189.260  0.00  0.00    -0.009 C 
ATOM     23  H   UNL     1     146.845 167.273 189.584  0.00  0.00    +0.033 HD
BRANCH  22  24
ATOM     24  C   UNL     1     146.914 165.154 189.493  0.00  0.00    -0.059 C 
ATOM     25  H   UNL     1     147.587 164.931 188.658  0.00  0.00    +0.023 HD
ATOM     26  H   UNL     1     146.214 164.317 189.594  0.00  0.00    +0.023 HD
ATOM     27  H   UNL     1     147.523 165.202 190.401  0.00  0.00    +0.023 HD
ENDBRANCH  22  24
BRANCH  22  28
ATOM     28  C   UNL     1     145.895 166.636 187.763  0.00  0.00    -0.059 C 
ATOM     29  H   UNL     1     145.088 167.358 187.584  0.00  0.00    +0.023 HD
ATOM     30  H   UNL     1     146.783 166.978 187.223  0.00  0.00    +0.023 HD
ATOM     31  H   UNL     1     145.599 165.680 187.316  0.00  0.00    +0.023 HD
ENDBRANCH  22  28
ENDBRANCH  20  22
BRANCH  20  32
ATOM     32  O   UNL     1     144.480 165.169 190.398  0.00  0.00    -0.461 OA
BRANCH  32  33
ATOM     33  C   UNL     1     143.354 164.712 189.785  0.00  0.00    +0.307 C 
ATOM     34  O   UNL     1     142.241 165.212 189.884  0.00  0.00    -0.251 OA
BRANCH  33  35
ATOM     35  C   UNL     1     143.678 163.485 188.966  0.00  0.00    +0.046 C 
ATOM     36  H   UNL     1     144.656 163.114 189.285  0.00  0.00    +0.038 HD
ATOM     37  H   UNL     1     143.738 163.777 187.912  0.00  0.00    +0.038 HD
BRANCH  35  38
ATOM     38  C   UNL     1     142.598 162.414 189.132  0.00  0.00    -0.031 C 
ATOM     39  H   UNL     1     143.064 161.427 189.253  0.00  0.00    +0.028 HD
ATOM     40  H   UNL     1     142.045 162.604 190.060  0.00  0.00    +0.028 HD
BRANCH  38  41
ATOM     41  C   UNL     1     141.608 162.383 187.969  0.00  0.00    -0.006 C 
ATOM     42  H   UNL     1     141.354 161.347 187.718  0.00  0.00    +0.042 HD
ATOM     43  H   UNL     1     142.071 162.834 187.082  0.00  0.00    +0.042 HD
BRANCH  41  44
ATOM     44  N   UNL     1     140.388 163.116 188.293  0.00  0.00    -0.330 NA
ATOM     45  H   UNL     1     139.676 162.903 187.593  0.00  0.00    +0.118 HD
ATOM     46  H   UNL     1     140.014 162.769 189.177  0.00  0.00    +0.118 HD
ENDBRANCH  41  44
ENDBRANCH  38  41
ENDBRANCH  35  38
ENDBRANCH  33  35
ENDBRANCH  32  33
ENDBRANCH  20  32
ENDBRANCH  17  20
ENDBRANCH  15  17
BRANCH  15  47
ATOM     47  O   UNL     1     143.595 167.307 193.377  0.00  0.00    -0.379 OA
BRANCH  47  48
ATOM     48  C   UNL     1     142.358 166.612 193.367  0.00  0.00    +0.037 C 
ATOM     49  H   UNL     1     141.526 167.302 193.536  0.00  0.00    +0.052 HD
ATOM     50  H   UNL     1     142.350 165.814 194.112  0.00  0.00    +0.052 HD
ATOM     51  H   UNL     1     142.230 166.163 192.377  0.00  0.00    +0.052 HD
ENDBRANCH  47  48
ENDBRANCH  15  47
ENDBRANCH   9  15
ENDBRANCH   6   9
ENDBRANCH   3   6
ENDBRANCH   1   3
BRANCH   1  52
ATOM     52  C   UNL     1     150.464 168.433 192.489  0.00  0.00    +0.020 C 
ATOM     53  H   UNL     1     150.697 168.081 193.503  0.00  0.00    +0.036 HD
BRANCH  52  54
ATOM     54  C   UNL     1     150.927 169.897 192.392  0.00  0.00    -0.057 C 
ATOM     55  H   UNL     1     150.081 170.581 192.533  0.00  0.00    +0.023 HD
ATOM     56  H   UNL     1     151.385 170.118 191.419  0.00  0.00    +0.023 HD
ATOM     57  H   UNL     1     151.657 170.138 193.170  0.00  0.00    +0.023 HD
ENDBRANCH  52  54
BRANCH  52  58
ATOM     58  C   UNL     1     151.219 167.494 191.494  0.00  0.00    +0.070 C 
ATOM     59  H   UNL     1     151.720 168.112 190.739  0.00  0.00    +0.061 HD
BRANCH  58  60
ATOM     60  C   UNL     1     152.321 166.607 192.158  0.00  0.00    +0.002 C 
ATOM     61  H   UNL     1     153.278 167.137 192.067  0.00  0.00    +0.037 HD
BRANCH  60  62
ATOM     62  C   UNL     1     152.043 166.315 193.622  0.00  0.00    -0.065 C 
ATOM     63  C   UNL     1     151.180 165.373 194.034  0.00  0.00    -0.005 C 
ATOM     64  H   UNL     1     152.591 166.932 194.331  0.00  0.00    +0.059 HD
ATOM     65  H   UNL     1     150.647 164.795 193.280  0.00  0.00    +0.078 HD
BRANCH  63  66
ATOM     66  N   UNL     1     150.874 165.055 195.349  0.00  0.00    -0.281 N 
ATOM     67  C   UNL     1     151.079 163.762 195.822  0.00  0.00    +0.206 C 
ATOM     68  O   UNL     1     150.812 163.342 196.942  0.00  0.00    -0.279 OA
ATOM     69  H   UNL     1     151.519 163.095 195.066  0.00  0.00    +0.126 HD
BRANCH  66  70
ATOM     70  C   UNL     1     150.289 166.020 196.279  0.00  0.00    +0.016 C 
ATOM     71  H   UNL     1     150.498 167.039 195.940  0.00  0.00    +0.047 HD
ATOM     72  H   UNL     1     150.783 165.923 197.254  0.00  0.00    +0.047 HD
BRANCH  70  73
ATOM     73  C   UNL     1     148.798 165.799 196.471  0.00  0.00    -0.049 C 
ATOM     74  H   UNL     1     148.319 165.472 195.541  0.00  0.00    +0.024 HD
ATOM     75  H   UNL     1     148.319 166.726 196.801  0.00  0.00    +0.024 HD
ATOM     76  H   UNL     1     148.614 165.027 197.224  0.00  0.00    +0.024 HD
ENDBRANCH  70  73
ENDBRANCH  66  70
ENDBRANCH  63  66
ENDBRANCH  60  62
BRANCH  60  77
ATOM     77  C   UNL     1     152.497 165.274 191.419  0.00  0.00    -0.057 C 
ATOM     78  H   UNL     1     151.866 165.212 190.525  0.00  0.00    +0.024 HD
ATOM     79  H   UNL     1     153.541 165.137 191.114  0.00  0.00    +0.024 HD
ATOM     80  H   UNL     1     152.231 164.432 192.068  0.00  0.00    +0.024 HD
ENDBRANCH  60  77
ENDBRANCH  58  60
BRANCH  58  81
ATOM     81  O   UNL     1     150.261 166.622 190.866  0.00  0.00    -0.379 OA
BRANCH  81  82
ATOM     82  C   UNL     1     150.102 166.845 189.472  0.00  0.00    +0.037 C 
ATOM     83  H   UNL     1     151.053 166.729 188.950  0.00  0.00    +0.052 HD
ATOM     84  H   UNL     1     149.355 166.169 189.048  0.00  0.00    +0.052 HD
ATOM     85  H   UNL     1     149.760 167.875 189.334  0.00  0.00    +0.052 HD
ENDBRANCH  81  82
ENDBRANCH  58  81
ENDBRANCH  52  58
ENDBRANCH   1  52
BRANCH   1  86
ATOM     86  O   UNL     1     148.351 169.715 192.361  0.00  0.00    -0.459 OA
BRANCH  86  88
ATOM     87  O   UNL     1     147.818 169.537 190.136  0.00  0.00    -0.248 OA
ATOM     88  C   UNL     1     147.834 170.168 191.185  0.00  0.00    +0.337 C 
BRANCH  88  89
ATOM     89  C   UNL     1     147.298 171.596 191.378  0.00  0.00    +0.155 C 
ATOM     90  O   UNL     1     147.738 172.490 190.341  0.00  0.00    -0.365 OA
ATOM     91  C   UNL     1     148.756 173.349 190.863  0.00  0.00    +0.049 C 
ATOM     92  C   UNL     1     149.093 172.854 192.253  0.00  0.00    -0.027 C 
ATOM     93  C   UNL     1     147.812 172.178 192.686  0.00  0.00    -0.014 C 
ATOM     94  H   UNL     1     146.202 171.557 191.344  0.00  0.00    +0.071 HD
ATOM     95  H   UNL     1     148.356 174.367 190.894  0.00  0.00    +0.056 HD
ATOM     96  H   UNL     1     149.622 173.336 190.196  0.00  0.00    +0.056 HD
ATOM     97  H   UNL     1     149.413 173.656 192.922  0.00  0.00    +0.029 HD
ATOM     98  H   UNL     1     149.904 172.117 192.203  0.00  0.00    +0.029 HD
ATOM     99  H   UNL     1     147.979 171.442 193.477  0.00  0.00    +0.030 HD
ATOM    100  H   UNL     1     147.106 172.937 193.057  0.00  0.00    +0.030 HD
ENDBRANCH  88  89
ENDBRANCH  86  88
ENDBRANCH   1  86
TORSDOF 32
ENDMDL
MODEL 5
REMARK VINA RESULT:      -4.8      2.698      4.809
REMARK  Name = 2a_conf1
REMARK  32 active torsions:
REMARK  status: ('A' for Active; 'I' for Inactive)
REMARK    1  A    between atoms: C_2  and  C_3
REMARK    2  A    between atoms: C_2  and  O_8
REMARK    3  A    between atoms: O_8  and  C_9
REMARK    4  A    between atoms: C_9  and  C_10
REMARK    5  A    between atoms: C_9  and  C_29
REMARK    6  A    between atoms: C_10  and  C_11
REMARK    7  A    between atoms: C_11  and  C_12
REMARK    8  A    between atoms: C_12  and  C_13
REMARK    9  A    between atoms: C_12  and  C_14
REMARK   10  A    between atoms: C_14  and  O_15
REMARK   11  A    between atoms: C_14  and  C_17
REMARK   12  A    between atoms: O_15  and  C_16
REMARK   13  A    between atoms: C_17  and  C_18
REMARK   14  A    between atoms: C_18  and  O_19
REMARK   15  A    between atoms: C_18  and  C_26
REMARK   16  A    between atoms: O_19  and  C_20
REMARK   17  A    between atoms: C_20  and  C_21
REMARK   18  A    between atoms: C_21  and  C_22
REMARK   19  A    between atoms: C_22  and  C_23
REMARK   20  A    between atoms: C_23  and  N_24
REMARK   21  A    between atoms: C_26  and  C_27
REMARK   22  A    between atoms: C_26  and  C_28
REMARK   23  A    between atoms: C_29  and  C_30
REMARK   24  A    between atoms: C_29  and  C_31
REMARK   25  A    between atoms: C_31  and  O_32
REMARK   26  A    between atoms: C_31  and  C_34
REMARK   27  A    between atoms: O_32  and  C_33
REMARK   28  A    between atoms: C_34  and  C_35
REMARK   29  A    between atoms: C_34  and  C_36
REMARK   30  A    between atoms: C_37  and  N_38
REMARK   31  A    between atoms: N_38  and  C_39
REMARK   32  A    between atoms: C_39  and  C_40
REMARK                            x       y       z     vdW  Elec       q    Type
REMARK                         _______ _______ _______ _____ _____    ______ ____
ROOT
ATOM      1  C   UNL     1     146.217 169.758 190.110  0.00  0.00    +0.108 C 
ATOM      2  H   UNL     1     145.389 169.994 190.790  0.00  0.00    +0.074 HD
ENDROOT
BRANCH   1   3
ATOM      3  C   UNL     1     147.068 168.658 190.774  0.00  0.00    -0.015 C 
ATOM      4  H   UNL     1     147.220 168.874 191.836  0.00  0.00    +0.030 HD
ATOM      5  H   UNL     1     146.536 167.709 190.697  0.00  0.00    +0.030 HD
BRANCH   3   6
ATOM      6  C   UNL     1     148.441 168.503 190.108  0.00  0.00    -0.045 C 
ATOM      7  H   UNL     1     148.571 169.256 189.324  0.00  0.00    +0.027 HD
ATOM      8  H   UNL     1     149.206 168.726 190.865  0.00  0.00    +0.027 HD
BRANCH   6   9
ATOM      9  C   UNL     1     148.707 167.085 189.545  0.00  0.00    -0.017 C 
ATOM     10  H   UNL     1     148.451 167.114 188.479  0.00  0.00    +0.032 HD
BRANCH   9  11
ATOM     11  C   UNL     1     147.729 166.095 190.197  0.00  0.00    -0.060 C 
ATOM     12  H   UNL     1     148.269 165.280 190.693  0.00  0.00    +0.023 HD
ATOM     13  H   UNL     1     147.085 166.582 190.937  0.00  0.00    +0.023 HD
ATOM     14  H   UNL     1     147.079 165.637 189.443  0.00  0.00    +0.023 HD
ENDBRANCH   9  11
BRANCH   9  15
ATOM     15  C   UNL     1     150.172 166.566 189.676  0.00  0.00    +0.064 C 
ATOM     16  H   UNL     1     150.127 165.482 189.833  0.00  0.00    +0.060 HD
BRANCH  15  17
ATOM     17  C   UNL     1     150.934 167.201 190.859  0.00  0.00    +0.011 C 
ATOM     18  H   UNL     1     151.933 167.492 190.508  0.00  0.00    +0.033 HD
ATOM     19  H   UNL     1     150.428 168.117 191.182  0.00  0.00    +0.033 HD
BRANCH  17  20
ATOM     20  C   UNL     1     151.126 166.301 192.104  0.00  0.00    +0.108 C 
ATOM     21  H   UNL     1     150.529 165.392 191.954  0.00  0.00    +0.074 HD
BRANCH  20  22
ATOM     22  C   UNL     1     152.588 165.857 192.367  0.00  0.00    -0.009 C 
ATOM     23  H   UNL     1     152.624 164.764 192.456  0.00  0.00    +0.033 HD
BRANCH  22  24
ATOM     24  C   UNL     1     153.491 166.219 191.179  0.00  0.00    -0.059 C 
ATOM     25  H   UNL     1     153.155 167.145 190.698  0.00  0.00    +0.023 HD
ATOM     26  H   UNL     1     153.484 165.426 190.423  0.00  0.00    +0.023 HD
ATOM     27  H   UNL     1     154.524 166.374 191.502  0.00  0.00    +0.023 HD
ENDBRANCH  22  24
BRANCH  22  28
ATOM     28  C   UNL     1     153.169 166.474 193.640  0.00  0.00    -0.059 C 
ATOM     29  H   UNL     1     153.423 167.530 193.486  0.00  0.00    +0.023 HD
ATOM     30  H   UNL     1     152.470 166.412 194.479  0.00  0.00    +0.023 HD
ATOM     31  H   UNL     1     154.081 165.949 193.946  0.00  0.00    +0.023 HD
ENDBRANCH  22  28
ENDBRANCH  20  22
BRANCH  20  32
ATOM     32  O   UNL     1     150.651 166.963 193.297  0.00  0.00    -0.461 OA
BRANCH  32  33
ATOM     33  C   UNL     1     149.379 166.675 193.689  0.00  0.00    +0.307 C 
ATOM     34  O   UNL     1     148.411 167.409 193.544  0.00  0.00    -0.251 OA
BRANCH  33  35
ATOM     35  C   UNL     1     149.340 165.314 194.341  0.00  0.00    +0.046 C 
ATOM     36  H   UNL     1     149.831 164.602 193.672  0.00  0.00    +0.038 HD
ATOM     37  H   UNL     1     148.292 165.018 194.465  0.00  0.00    +0.038 HD
BRANCH  35  38
ATOM     38  C   UNL     1     150.018 165.343 195.712  0.00  0.00    -0.031 C 
ATOM     39  H   UNL     1     150.445 166.338 195.899  0.00  0.00    +0.028 HD
ATOM     40  H   UNL     1     149.261 165.187 196.490  0.00  0.00    +0.028 HD
BRANCH  38  41
ATOM     41  C   UNL     1     151.102 164.278 195.863  0.00  0.00    -0.006 C 
ATOM     42  H   UNL     1     152.035 164.735 196.209  0.00  0.00    +0.042 HD
ATOM     43  H   UNL     1     151.303 163.819 194.886  0.00  0.00    +0.042 HD
BRANCH  41  44
ATOM     44  N   UNL     1     150.695 163.237 196.802  0.00  0.00    -0.330 NA
ATOM     45  H   UNL     1     150.304 163.676 197.637  0.00  0.00    +0.118 HD
ATOM     46  H   UNL     1     149.930 162.698 196.392  0.00  0.00    +0.118 HD
ENDBRANCH  41  44
ENDBRANCH  38  41
ENDBRANCH  35  38
ENDBRANCH  33  35
ENDBRANCH  32  33
ENDBRANCH  20  32
ENDBRANCH  17  20
ENDBRANCH  15  17
BRANCH  15  47
ATOM     47  O   UNL     1     150.930 166.816 188.484  0.00  0.00    -0.379 OA
BRANCH  47  48
ATOM     48  C   UNL     1     151.539 165.659 187.931  0.00  0.00    +0.037 C 
ATOM     49  H   UNL     1     151.858 164.975 188.721  0.00  0.00    +0.052 HD
ATOM     50  H   UNL     1     152.383 165.928 187.293  0.00  0.00    +0.052 HD
ATOM     51  H   UNL     1     150.792 165.145 187.318  0.00  0.00    +0.052 HD
ENDBRANCH  47  48
ENDBRANCH  15  47
ENDBRANCH   9  15
ENDBRANCH   6   9
ENDBRANCH   3   6
ENDBRANCH   1   3
BRANCH   1  52
ATOM     52  C   UNL     1     145.622 169.336 188.730  0.00  0.00    +0.020 C 
ATOM     53  H   UNL     1     146.006 168.328 188.524  0.00  0.00    +0.036 HD
BRANCH  52  54
ATOM     54  C   UNL     1     146.177 170.272 187.642  0.00  0.00    -0.057 C 
ATOM     55  H   UNL     1     147.256 170.421 187.771  0.00  0.00    +0.023 HD
ATOM     56  H   UNL     1     145.693 171.257 187.663  0.00  0.00    +0.023 HD
ATOM     57  H   UNL     1     146.037 169.850 186.643  0.00  0.00    +0.023 HD
ENDBRANCH  52  54
BRANCH  52  58
ATOM     58  C   UNL     1     144.062 169.245 188.710  0.00  0.00    +0.070 C 
ATOM     59  H   UNL     1     143.704 169.571 187.726  0.00  0.00    +0.061 HD
BRANCH  58  60
ATOM     60  C   UNL     1     143.500 167.806 188.944  0.00  0.00    +0.002 C 
ATOM     61  H   UNL     1     144.157 167.100 188.420  0.00  0.00    +0.037 HD
BRANCH  60  62
ATOM     62  C   UNL     1     143.425 167.431 190.413  0.00  0.00    -0.065 C 
ATOM     63  C   UNL     1     144.112 166.409 190.949  0.00  0.00    -0.005 C 
ATOM     64  H   UNL     1     142.762 168.047 191.018  0.00  0.00    +0.059 HD
ATOM     65  H   UNL     1     144.749 165.815 190.293  0.00  0.00    +0.078 HD
BRANCH  63  66
ATOM     66  N   UNL     1     144.090 166.007 192.275  0.00  0.00    -0.281 N 
ATOM     67  C   UNL     1     145.282 165.854 192.980  0.00  0.00    +0.206 C 
ATOM     68  O   UNL     1     145.402 165.467 194.136  0.00  0.00    -0.279 OA
ATOM     69  H   UNL     1     146.168 166.115 192.383  0.00  0.00    +0.126 HD
BRANCH  66  70
ATOM     70  C   UNL     1     142.852 165.682 192.982  0.00  0.00    +0.016 C 
ATOM     71  H   UNL     1     142.975 164.752 193.544  0.00  0.00    +0.047 HD
ATOM     72  H   UNL     1     142.061 165.485 192.248  0.00  0.00    +0.047 HD
BRANCH  70  73
ATOM     73  C   UNL     1     142.395 166.815 193.887  0.00  0.00    -0.049 C 
ATOM     74  H   UNL     1     142.790 166.697 194.904  0.00  0.00    +0.024 HD
ATOM     75  H   UNL     1     141.303 166.839 193.939  0.00  0.00    +0.024 HD
ATOM     76  H   UNL     1     142.746 167.779 193.509  0.00  0.00    +0.024 HD
ENDBRANCH  70  73
ENDBRANCH  66  70
ENDBRANCH  63  66
ENDBRANCH  60  62
BRANCH  60  77
ATOM     77  C   UNL     1     142.107 167.635 188.325  0.00  0.00    -0.057 C 
ATOM     78  H   UNL     1     141.410 167.137 189.009  0.00  0.00    +0.024 HD
ATOM     79  H   UNL     1     141.684 168.609 188.051  0.00  0.00    +0.024 HD
ATOM     80  H   UNL     1     142.159 167.030 187.412  0.00  0.00    +0.024 HD
ENDBRANCH  60  77
ENDBRANCH  58  60
BRANCH  58  81
ATOM     81  O   UNL     1     143.537 170.103 189.739  0.00  0.00    -0.379 OA
BRANCH  81  82
ATOM     82  C   UNL     1     142.839 171.239 189.246  0.00  0.00    +0.037 C 
ATOM     83  H   UNL     1     142.115 170.947 188.483  0.00  0.00    +0.052 HD
ATOM     84  H   UNL     1     142.337 171.774 190.056  0.00  0.00    +0.052 HD
ATOM     85  H   UNL     1     143.570 171.908 188.785  0.00  0.00    +0.052 HD
ENDBRANCH  81  82
ENDBRANCH  58  81
ENDBRANCH  52  58
ENDBRANCH   1  52
BRANCH   1  86
ATOM     86  O   UNL     1     147.059 170.921 189.974  0.00  0.00    -0.459 OA
BRANCH  86  88
ATOM     87  O   UNL     1     145.843 172.180 191.457  0.00  0.00    -0.248 OA
ATOM     88  C   UNL     1     146.899 171.905 190.902  0.00  0.00    +0.337 C 
BRANCH  88  89
ATOM     89  C   UNL     1     148.240 172.623 191.124  0.00  0.00    +0.155 C 
ATOM     90  O   UNL     1     149.347 171.707 191.188  0.00  0.00    -0.365 OA
ATOM     91  C   UNL     1     149.773 171.580 192.548  0.00  0.00    +0.049 C 
ATOM     92  C   UNL     1     148.771 172.323 193.404  0.00  0.00    -0.027 C 
ATOM     93  C   UNL     1     148.226 173.364 192.453  0.00  0.00    -0.014 C 
ATOM     94  H   UNL     1     148.411 173.297 190.276  0.00  0.00    +0.071 HD
ATOM     95  H   UNL     1     150.769 172.024 192.633  0.00  0.00    +0.056 HD
ATOM     96  H   UNL     1     149.840 170.521 192.812  0.00  0.00    +0.056 HD
ATOM     97  H   UNL     1     149.217 172.746 194.307  0.00  0.00    +0.029 HD
ATOM     98  H   UNL     1     147.966 171.646 193.715  0.00  0.00    +0.029 HD
ATOM     99  H   UNL     1     147.242 173.730 192.760  0.00  0.00    +0.030 HD
ATOM    100  H   UNL     1     148.919 174.217 192.408  0.00  0.00    +0.030 HD
ENDBRANCH  88  89
ENDBRANCH  86  88
ENDBRANCH   1  86
TORSDOF 32
ENDMDL
MODEL 6
REMARK VINA RESULT:      -4.7      2.495      5.239
REMARK  Name = 2a_conf1
REMARK  32 active torsions:
REMARK  status: ('A' for Active; 'I' for Inactive)
REMARK    1  A    between atoms: C_2  and  C_3
REMARK    2  A    between atoms: C_2  and  O_8
REMARK    3  A    between atoms: O_8  and  C_9
REMARK    4  A    between atoms: C_9  and  C_10
REMARK    5  A    between atoms: C_9  and  C_29
REMARK    6  A    between atoms: C_10  and  C_11
REMARK    7  A    between atoms: C_11  and  C_12
REMARK    8  A    between atoms: C_12  and  C_13
REMARK    9  A    between atoms: C_12  and  C_14
REMARK   10  A    between atoms: C_14  and  O_15
REMARK   11  A    between atoms: C_14  and  C_17
REMARK   12  A    between atoms: O_15  and  C_16
REMARK   13  A    between atoms: C_17  and  C_18
REMARK   14  A    between atoms: C_18  and  O_19
REMARK   15  A    between atoms: C_18  and  C_26
REMARK   16  A    between atoms: O_19  and  C_20
REMARK   17  A    between atoms: C_20  and  C_21
REMARK   18  A    between atoms: C_21  and  C_22
REMARK   19  A    between atoms: C_22  and  C_23
REMARK   20  A    between atoms: C_23  and  N_24
REMARK   21  A    between atoms: C_26  and  C_27
REMARK   22  A    between atoms: C_26  and  C_28
REMARK   23  A    between atoms: C_29  and  C_30
REMARK   24  A    between atoms: C_29  and  C_31
REMARK   25  A    between atoms: C_31  and  O_32
REMARK   26  A    between atoms: C_31  and  C_34
REMARK   27  A    between atoms: O_32  and  C_33
REMARK   28  A    between atoms: C_34  and  C_35
REMARK   29  A    between atoms: C_34  and  C_36
REMARK   30  A    between atoms: C_37  and  N_38
REMARK   31  A    between atoms: N_38  and  C_39
REMARK   32  A    between atoms: C_39  and  C_40
REMARK                            x       y       z     vdW  Elec       q    Type
REMARK                         _______ _______ _______ _____ _____    ______ ____
ROOT
ATOM      1  C   UNL     1     146.081 169.813 190.109  0.00  0.00    +0.108 C 
ATOM      2  H   UNL     1     145.795 170.057 191.140  0.00  0.00    +0.074 HD
ENDROOT
BRANCH   1   3
ATOM      3  C   UNL     1     146.461 168.320 190.071  0.00  0.00    -0.015 C 
ATOM      4  H   UNL     1     145.991 167.823 189.216  0.00  0.00    +0.030 HD
ATOM      5  H   UNL     1     147.543 168.237 189.954  0.00  0.00    +0.030 HD
BRANCH   3   6
ATOM      6  C   UNL     1     146.051 167.581 191.350  0.00  0.00    -0.045 C 
ATOM      7  H   UNL     1     145.668 168.289 192.093  0.00  0.00    +0.027 HD
ATOM      8  H   UNL     1     145.205 166.925 191.100  0.00  0.00    +0.027 HD
BRANCH   6   9
ATOM      9  C   UNL     1     147.179 166.714 191.961  0.00  0.00    -0.017 C 
ATOM     10  H   UNL     1     148.129 167.164 191.651  0.00  0.00    +0.032 HD
BRANCH   9  11
ATOM     11  C   UNL     1     147.137 165.315 191.326  0.00  0.00    -0.060 C 
ATOM     12  H   UNL     1     147.646 165.310 190.355  0.00  0.00    +0.023 HD
ATOM     13  H   UNL     1     147.606 164.560 191.965  0.00  0.00    +0.023 HD
ATOM     14  H   UNL     1     146.102 165.000 191.148  0.00  0.00    +0.023 HD
ENDBRANCH   9  11
BRANCH   9  15
ATOM     15  C   UNL     1     147.183 166.603 193.518  0.00  0.00    +0.064 C 
ATOM     16  H   UNL     1     147.414 167.595 193.920  0.00  0.00    +0.060 HD
BRANCH  15  17
ATOM     17  C   UNL     1     148.233 165.601 194.048  0.00  0.00    +0.011 C 
ATOM     18  H   UNL     1     147.845 165.155 194.973  0.00  0.00    +0.033 HD
ATOM     19  H   UNL     1     148.368 164.786 193.330  0.00  0.00    +0.033 HD
BRANCH  17  20
ATOM     20  C   UNL     1     149.628 166.189 194.369  0.00  0.00    +0.108 C 
ATOM     21  H   UNL     1     149.571 167.278 194.238  0.00  0.00    +0.074 HD
BRANCH  20  22
ATOM     22  C   UNL     1     150.132 165.921 195.810  0.00  0.00    -0.009 C 
ATOM     23  H   UNL     1     150.864 166.690 196.086  0.00  0.00    +0.033 HD
BRANCH  22  24
ATOM     24  C   UNL     1     148.983 166.040 196.821  0.00  0.00    -0.059 C 
ATOM     25  H   UNL     1     148.100 166.497 196.360  0.00  0.00    +0.023 HD
ATOM     26  H   UNL     1     149.274 166.659 197.677  0.00  0.00    +0.023 HD
ATOM     27  H   UNL     1     148.684 165.056 197.196  0.00  0.00    +0.023 HD
ENDBRANCH  22  24
BRANCH  22  28
ATOM     28  C   UNL     1     150.785 164.545 195.957  0.00  0.00    -0.059 C 
ATOM     29  H   UNL     1     150.360 163.997 196.808  0.00  0.00    +0.023 HD
ATOM     30  H   UNL     1     150.654 163.933 195.060  0.00  0.00    +0.023 HD
ATOM     31  H   UNL     1     151.864 164.642 196.122  0.00  0.00    +0.023 HD
ENDBRANCH  22  28
ENDBRANCH  20  22
BRANCH  20  32
ATOM     32  O   UNL     1     150.625 165.676 193.457  0.00  0.00    -0.461 OA
BRANCH  32  33
ATOM     33  C   UNL     1     151.106 166.546 192.525  0.00  0.00    +0.307 C 
ATOM     34  O   UNL     1     151.700 167.587 192.770  0.00  0.00    -0.251 OA
BRANCH  33  35
ATOM     35  C   UNL     1     150.787 166.039 191.139  0.00  0.00    +0.046 C 
ATOM     36  H   UNL     1     149.740 165.726 191.125  0.00  0.00    +0.038 HD
ATOM     37  H   UNL     1     151.420 165.169 190.934  0.00  0.00    +0.038 HD
BRANCH  35  38
ATOM     38  C   UNL     1     151.058 167.116 190.086  0.00  0.00    -0.031 C 
ATOM     39  H   UNL     1     150.206 167.189 189.396  0.00  0.00    +0.028 HD
ATOM     40  H   UNL     1     151.130 168.092 190.582  0.00  0.00    +0.028 HD
BRANCH  38  41
ATOM     41  C   UNL     1     152.344 166.870 189.300  0.00  0.00    -0.006 C 
ATOM     42  H   UNL     1     152.453 165.803 189.080  0.00  0.00    +0.042 HD
ATOM     43  H   UNL     1     153.207 167.172 189.906  0.00  0.00    +0.042 HD
BRANCH  41  44
ATOM     44  N   UNL     1     152.353 167.625 188.050  0.00  0.00    -0.330 NA
ATOM     45  H   UNL     1     153.253 167.492 187.587  0.00  0.00    +0.118 HD
ATOM     46  H   UNL     1     151.657 167.231 187.416  0.00  0.00    +0.118 HD
ENDBRANCH  41  44
ENDBRANCH  38  41
ENDBRANCH  35  38
ENDBRANCH  33  35
ENDBRANCH  32  33
ENDBRANCH  20  32
ENDBRANCH  17  20
ENDBRANCH  15  17
BRANCH  15  47
ATOM     47  O   UNL     1     145.902 166.201 194.022  0.00  0.00    -0.379 OA
BRANCH  47  48
ATOM     48  C   UNL     1     145.942 165.056 194.860  0.00  0.00    +0.037 C 
ATOM     49  H   UNL     1     146.690 164.343 194.504  0.00  0.00    +0.052 HD
ATOM     50  H   UNL     1     144.961 164.582 194.923  0.00  0.00    +0.052 HD
ATOM     51  H   UNL     1     146.235 165.381 195.863  0.00  0.00    +0.052 HD
ENDBRANCH  47  48
ENDBRANCH  15  47
ENDBRANCH   9  15
ENDBRANCH   6   9
ENDBRANCH   3   6
ENDBRANCH   1   3
BRANCH   1  52
ATOM     52  C   UNL     1     144.895 170.177 189.163  0.00  0.00    +0.020 C 
ATOM     53  H   UNL     1     144.495 169.225 188.789  0.00  0.00    +0.036 HD
BRANCH  52  54
ATOM     54  C   UNL     1     145.443 170.954 187.954  0.00  0.00    -0.057 C 
ATOM     55  H   UNL     1     146.448 170.602 187.689  0.00  0.00    +0.023 HD
ATOM     56  H   UNL     1     145.502 172.032 188.151  0.00  0.00    +0.023 HD
ATOM     57  H   UNL     1     144.818 170.808 187.068  0.00  0.00    +0.023 HD
ENDBRANCH  52  54
BRANCH  52  58
ATOM     58  C   UNL     1     143.719 170.920 189.875  0.00  0.00    +0.070 C 
ATOM     59  H   UNL     1     143.448 171.801 189.280  0.00  0.00    +0.061 HD
BRANCH  58  60
ATOM     60  C   UNL     1     142.421 170.065 190.034  0.00  0.00    +0.002 C 
ATOM     61  H   UNL     1     141.783 170.258 189.162  0.00  0.00    +0.037 HD
BRANCH  60  62
ATOM     62  C   UNL     1     142.701 168.576 190.133  0.00  0.00    -0.065 C 
ATOM     63  C   UNL     1     142.302 167.818 191.167  0.00  0.00    -0.005 C 
ATOM     64  H   UNL     1     143.264 168.153 189.303  0.00  0.00    +0.059 HD
ATOM     65  H   UNL     1     141.756 168.298 191.978  0.00  0.00    +0.078 HD
BRANCH  63  66
ATOM     66  N   UNL     1     142.526 166.459 191.327  0.00  0.00    -0.281 N 
ATOM     67  C   UNL     1     142.876 165.674 190.232  0.00  0.00    +0.206 C 
ATOM     68  O   UNL     1     143.059 164.462 190.230  0.00  0.00    -0.279 OA
ATOM     69  H   UNL     1     142.976 166.255 189.304  0.00  0.00    +0.126 HD
BRANCH  66  70
ATOM     70  C   UNL     1     142.366 165.779 192.611  0.00  0.00    +0.016 C 
ATOM     71  H   UNL     1     143.090 164.963 192.694  0.00  0.00    +0.047 HD
ATOM     72  H   UNL     1     141.377 165.305 192.646  0.00  0.00    +0.047 HD
BRANCH  70  73
ATOM     73  C   UNL     1     142.481 166.737 193.785  0.00  0.00    -0.049 C 
ATOM     74  H   UNL     1     143.220 167.523 193.589  0.00  0.00    +0.024 HD
ATOM     75  H   UNL     1     142.782 166.195 194.687  0.00  0.00    +0.024 HD
ATOM     76  H   UNL     1     141.524 167.229 193.980  0.00  0.00    +0.024 HD
ENDBRANCH  70  73
ENDBRANCH  66  70
ENDBRANCH  63  66
ENDBRANCH  60  62
BRANCH  60  77
ATOM     77  C   UNL     1     141.608 170.492 191.263  0.00  0.00    -0.057 C 
ATOM     78  H   UNL     1     140.836 169.759 191.521  0.00  0.00    +0.024 HD
ATOM     79  H   UNL     1     142.264 170.624 192.131  0.00  0.00    +0.024 HD
ATOM     80  H   UNL     1     141.105 171.449 191.082  0.00  0.00    +0.024 HD
ENDBRANCH  60  77
ENDBRANCH  58  60
BRANCH  58  81
ATOM     81  O   UNL     1     144.153 171.322 191.187  0.00  0.00    -0.379 OA
BRANCH  81  82
ATOM     82  C   UNL     1     144.265 172.729 191.354  0.00  0.00    +0.037 C 
ATOM     83  H   UNL     1     145.120 173.118 190.800  0.00  0.00    +0.052 HD
ATOM     84  H   UNL     1     143.350 173.237 191.039  0.00  0.00    +0.052 HD
ATOM     85  H   UNL     1     144.427 172.928 192.417  0.00  0.00    +0.052 HD
ENDBRANCH  81  82
ENDBRANCH  58  81
ENDBRANCH  52  58
ENDBRANCH   1  52
BRANCH   1  86
ATOM     86  O   UNL     1     147.266 170.560 189.762  0.00  0.00    -0.459 OA
BRANCH  86  88
ATOM     87  O   UNL     1     147.744 172.723 190.360  0.00  0.00    -0.248 OA
ATOM     88  C   UNL     1     147.653 171.533 190.633  0.00  0.00    +0.337 C 
BRANCH  88  89
ATOM     89  C   UNL     1     147.977 170.901 191.996  0.00  0.00    +0.155 C 
ATOM     90  O   UNL     1     148.319 171.885 192.988  0.00  0.00    -0.365 OA
ATOM     91  C   UNL     1     149.732 171.856 193.212  0.00  0.00    +0.049 C 
ATOM     92  C   UNL     1     150.330 170.923 192.181  0.00  0.00    -0.027 C 
ATOM     93  C   UNL     1     149.185 169.984 191.876  0.00  0.00    -0.014 C 
ATOM     94  H   UNL     1     147.085 170.368 192.347  0.00  0.00    +0.071 HD
ATOM     95  H   UNL     1     149.906 171.486 194.226  0.00  0.00    +0.056 HD
ATOM     96  H   UNL     1     150.134 172.869 193.136  0.00  0.00    +0.056 HD
ATOM     97  H   UNL     1     151.228 170.415 192.541  0.00  0.00    +0.029 HD
ATOM     98  H   UNL     1     150.603 171.483 191.279  0.00  0.00    +0.029 HD
ATOM     99  H   UNL     1     149.295 169.500 190.901  0.00  0.00    +0.030 HD
ATOM    100  H   UNL     1     149.136 169.204 192.650  0.00  0.00    +0.030 HD
ENDBRANCH  88  89
ENDBRANCH  86  88
ENDBRANCH   1  86
TORSDOF 32
ENDMDL
MODEL 7
REMARK VINA RESULT:      -4.7      2.036      8.251
REMARK  Name = 2a_conf1
REMARK  32 active torsions:
REMARK  status: ('A' for Active; 'I' for Inactive)
REMARK    1  A    between atoms: C_2  and  C_3
REMARK    2  A    between atoms: C_2  and  O_8
REMARK    3  A    between atoms: O_8  and  C_9
REMARK    4  A    between atoms: C_9  and  C_10
REMARK    5  A    between atoms: C_9  and  C_29
REMARK    6  A    between atoms: C_10  and  C_11
REMARK    7  A    between atoms: C_11  and  C_12
REMARK    8  A    between atoms: C_12  and  C_13
REMARK    9  A    between atoms: C_12  and  C_14
REMARK   10  A    between atoms: C_14  and  O_15
REMARK   11  A    between atoms: C_14  and  C_17
REMARK   12  A    between atoms: O_15  and  C_16
REMARK   13  A    between atoms: C_17  and  C_18
REMARK   14  A    between atoms: C_18  and  O_19
REMARK   15  A    between atoms: C_18  and  C_26
REMARK   16  A    between atoms: O_19  and  C_20
REMARK   17  A    between atoms: C_20  and  C_21
REMARK   18  A    between atoms: C_21  and  C_22
REMARK   19  A    between atoms: C_22  and  C_23
REMARK   20  A    between atoms: C_23  and  N_24
REMARK   21  A    between atoms: C_26  and  C_27
REMARK   22  A    between atoms: C_26  and  C_28
REMARK   23  A    between atoms: C_29  and  C_30
REMARK   24  A    between atoms: C_29  and  C_31
REMARK   25  A    between atoms: C_31  and  O_32
REMARK   26  A    between atoms: C_31  and  C_34
REMARK   27  A    between atoms: O_32  and  C_33
REMARK   28  A    between atoms: C_34  and  C_35
REMARK   29  A    between atoms: C_34  and  C_36
REMARK   30  A    between atoms: C_37  and  N_38
REMARK   31  A    between atoms: N_38  and  C_39
REMARK   32  A    between atoms: C_39  and  C_40
REMARK                            x       y       z     vdW  Elec       q    Type
REMARK                         _______ _______ _______ _____ _____    ______ ____
ROOT
ATOM      1  C   UNL     1     149.745 168.431 192.516  0.00  0.00    +0.108 C 
ATOM      2  H   UNL     1     149.512 168.968 193.443  0.00  0.00    +0.074 HD
ENDROOT
BRANCH   1   3
ATOM      3  C   UNL     1     149.065 169.184 191.356  0.00  0.00    -0.015 C 
ATOM      4  H   UNL     1     149.793 169.440 190.580  0.00  0.00    +0.030 HD
ATOM      5  H   UNL     1     148.312 168.532 190.909  0.00  0.00    +0.030 HD
BRANCH   3   6
ATOM      6  C   UNL     1     148.378 170.474 191.823  0.00  0.00    -0.045 C 
ATOM      7  H   UNL     1     147.665 170.257 192.625  0.00  0.00    +0.027 HD
ATOM      8  H   UNL     1     149.147 171.117 192.273  0.00  0.00    +0.027 HD
BRANCH   6   9
ATOM      9  C   UNL     1     147.686 171.261 190.683  0.00  0.00    -0.017 C 
ATOM     10  H   UNL     1     148.214 171.009 189.756  0.00  0.00    +0.032 HD
BRANCH   9  11
ATOM     11  C   UNL     1     147.903 172.766 190.908  0.00  0.00    -0.060 C 
ATOM     12  H   UNL     1     148.082 172.982 191.968  0.00  0.00    +0.023 HD
ATOM     13  H   UNL     1     148.751 173.148 190.330  0.00  0.00    +0.023 HD
ATOM     14  H   UNL     1     147.016 173.335 190.610  0.00  0.00    +0.023 HD
ENDBRANCH   9  11
BRANCH   9  15
ATOM     15  C   UNL     1     146.170 170.958 190.472  0.00  0.00    +0.064 C 
ATOM     16  H   UNL     1     145.809 170.432 191.363  0.00  0.00    +0.060 HD
BRANCH  15  17
ATOM     17  C   UNL     1     145.898 170.072 189.236  0.00  0.00    +0.011 C 
ATOM     18  H   UNL     1     144.971 170.419 188.761  0.00  0.00    +0.033 HD
ATOM     19  H   UNL     1     146.701 170.197 188.502  0.00  0.00    +0.033 HD
BRANCH  17  20
ATOM     20  C   UNL     1     145.738 168.557 189.511  0.00  0.00    +0.108 C 
ATOM     21  H   UNL     1     144.779 168.238 189.080  0.00  0.00    +0.074 HD
BRANCH  20  22
ATOM     22  C   UNL     1     146.843 167.662 188.893  0.00  0.00    -0.009 C 
ATOM     23  H   UNL     1     147.518 167.321 189.688  0.00  0.00    +0.033 HD
BRANCH  22  24
ATOM     24  C   UNL     1     146.237 166.395 188.273  0.00  0.00    -0.059 C 
ATOM     25  H   UNL     1     146.117 166.507 187.190  0.00  0.00    +0.023 HD
ATOM     26  H   UNL     1     145.251 166.181 188.700  0.00  0.00    +0.023 HD
ATOM     27  H   UNL     1     146.880 165.526 188.444  0.00  0.00    +0.023 HD
ENDBRANCH  22  24
BRANCH  22  28
ATOM     28  C   UNL     1     147.664 168.394 187.830  0.00  0.00    -0.059 C 
ATOM     29  H   UNL     1     147.200 169.352 187.564  0.00  0.00    +0.023 HD
ATOM     30  H   UNL     1     148.685 168.593 188.168  0.00  0.00    +0.023 HD
ATOM     31  H   UNL     1     147.744 167.791 186.918  0.00  0.00    +0.023 HD
ENDBRANCH  22  28
ENDBRANCH  20  22
BRANCH  20  32
ATOM     32  O   UNL     1     145.706 168.291 190.931  0.00  0.00    -0.461 OA
BRANCH  32  33
ATOM     33  C   UNL     1     144.535 167.812 191.436  0.00  0.00    +0.307 C 
ATOM     34  O   UNL     1     143.494 168.448 191.535  0.00  0.00    -0.251 OA
BRANCH  33  35
ATOM     35  C   UNL     1     144.713 166.377 191.868  0.00  0.00    +0.046 C 
ATOM     36  H   UNL     1     145.761 166.234 192.148  0.00  0.00    +0.038 HD
ATOM     37  H   UNL     1     144.483 165.727 191.016  0.00  0.00    +0.038 HD
BRANCH  35  38
ATOM     38  C   UNL     1     143.778 166.034 193.030  0.00  0.00    -0.031 C 
ATOM     39  H   UNL     1     144.310 165.424 193.773  0.00  0.00    +0.028 HD
ATOM     40  H   UNL     1     143.494 166.959 193.546  0.00  0.00    +0.028 HD
BRANCH  38  41
ATOM     41  C   UNL     1     142.509 165.313 192.579  0.00  0.00    -0.006 C 
ATOM     42  H   UNL     1     142.210 164.572 193.328  0.00  0.00    +0.042 HD
ATOM     43  H   UNL     1     142.706 164.775 191.643  0.00  0.00    +0.042 HD
BRANCH  41  44
ATOM     44  N   UNL     1     141.414 166.254 192.365  0.00  0.00    -0.330 NA
ATOM     45  H   UNL     1     140.540 165.733 192.271  0.00  0.00    +0.118 HD
ATOM     46  H   UNL     1     141.300 166.830 193.199  0.00  0.00    +0.118 HD
ENDBRANCH  41  44
ENDBRANCH  38  41
ENDBRANCH  35  38
ENDBRANCH  33  35
ENDBRANCH  32  33
ENDBRANCH  20  32
ENDBRANCH  17  20
ENDBRANCH  15  17
BRANCH  15  47
ATOM     47  O   UNL     1     145.406 172.162 190.321  0.00  0.00    -0.379 OA
BRANCH  47  48
ATOM     48  C   UNL     1     144.098 172.092 190.868  0.00  0.00    +0.037 C 
ATOM     49  H   UNL     1     143.591 173.057 190.781  0.00  0.00    +0.052 HD
ATOM     50  H   UNL     1     144.126 171.766 191.909  0.00  0.00    +0.052 HD
ATOM     51  H   UNL     1     143.530 171.357 190.290  0.00  0.00    +0.052 HD
ENDBRANCH  47  48
ENDBRANCH  15  47
ENDBRANCH   9  15
ENDBRANCH   6   9
ENDBRANCH   3   6
ENDBRANCH   1   3
BRANCH   1  52
ATOM     52  C   UNL     1     151.296 168.336 192.370  0.00  0.00    +0.020 C 
ATOM     53  H   UNL     1     151.697 168.243 193.389  0.00  0.00    +0.036 HD
BRANCH  52  54
ATOM     54  C   UNL     1     151.823 169.659 191.787  0.00  0.00    -0.057 C 
ATOM     55  H   UNL     1     151.529 170.506 192.419  0.00  0.00    +0.023 HD
ATOM     56  H   UNL     1     151.441 169.842 190.775  0.00  0.00    +0.023 HD
ATOM     57  H   UNL     1     152.916 169.668 191.741  0.00  0.00    +0.023 HD
ENDBRANCH  52  54
BRANCH  52  58
ATOM     58  C   UNL     1     151.785 167.087 191.570  0.00  0.00    +0.070 C 
ATOM     59  H   UNL     1     151.062 166.274 191.710  0.00  0.00    +0.061 HD
BRANCH  58  60
ATOM     60  C   UNL     1     151.912 167.319 190.030  0.00  0.00    +0.002 C 
ATOM     61  H   UNL     1     151.853 168.400 189.848  0.00  0.00    +0.037 HD
BRANCH  60  62
ATOM     62  C   UNL     1     153.209 166.781 189.454  0.00  0.00    -0.065 C 
ATOM     63  C   UNL     1     153.285 165.643 188.745  0.00  0.00    -0.005 C 
ATOM     64  H   UNL     1     154.094 167.381 189.660  0.00  0.00    +0.059 HD
ATOM     65  H   UNL     1     152.369 165.074 188.582  0.00  0.00    +0.078 HD
BRANCH  63  66
ATOM     66  N   UNL     1     154.431 165.090 188.195  0.00  0.00    -0.281 N 
ATOM     67  C   UNL     1     155.456 165.914 187.738  0.00  0.00    +0.206 C 
ATOM     68  O   UNL     1     156.495 165.556 187.196  0.00  0.00    -0.279 OA
ATOM     69  H   UNL     1     155.250 166.982 187.900  0.00  0.00    +0.126 HD
BRANCH  66  70
ATOM     70  C   UNL     1     154.608 163.649 188.023  0.00  0.00    +0.016 C 
ATOM     71  H   UNL     1     155.604 163.440 187.623  0.00  0.00    +0.047 HD
ATOM     72  H   UNL     1     153.900 163.287 187.266  0.00  0.00    +0.047 HD
BRANCH  70  73
ATOM     73  C   UNL     1     154.363 162.884 189.314  0.00  0.00    -0.049 C 
ATOM     74  H   UNL     1     154.272 161.807 189.129  0.00  0.00    +0.024 HD
ATOM     75  H   UNL     1     153.442 163.233 189.790  0.00  0.00    +0.024 HD
ATOM     76  H   UNL     1     155.192 163.028 190.013  0.00  0.00    +0.024 HD
ENDBRANCH  70  73
ENDBRANCH  66  70
ENDBRANCH  63  66
ENDBRANCH  60  62
BRANCH  60  77
ATOM     77  C   UNL     1     150.740 166.692 189.264  0.00  0.00    -0.057 C 
ATOM     78  H   UNL     1     150.145 167.443 188.732  0.00  0.00    +0.024 HD
ATOM     79  H   UNL     1     151.104 165.959 188.535  0.00  0.00    +0.024 HD
ATOM     80  H   UNL     1     150.066 166.165 189.950  0.00  0.00    +0.024 HD
ENDBRANCH  60  77
ENDBRANCH  58  60
BRANCH  58  81
ATOM     81  O   UNL     1     153.076 166.694 192.070  0.00  0.00    -0.379 OA
BRANCH  81  82
ATOM     82  C   UNL     1     153.205 166.794 193.482  0.00  0.00    +0.037 C 
ATOM     83  H   UNL     1     153.403 167.825 193.781  0.00  0.00    +0.052 HD
ATOM     84  H   UNL     1     152.309 166.422 193.986  0.00  0.00    +0.052 HD
ATOM     85  H   UNL     1     154.057 166.180 193.786  0.00  0.00    +0.052 HD
ENDBRANCH  81  82
ENDBRANCH  58  81
ENDBRANCH  52  58
ENDBRANCH   1  52
BRANCH   1  86
ATOM     86  O   UNL     1     149.152 167.117 192.573  0.00  0.00    -0.459 OA
BRANCH  86  88
ATOM     87  O   UNL     1     147.349 167.682 193.873  0.00  0.00    -0.248 OA
ATOM     88  C   UNL     1     148.236 166.901 193.558  0.00  0.00    +0.337 C 
BRANCH  88  89
ATOM     89  C   UNL     1     148.507 165.540 194.219  0.00  0.00    +0.155 C 
ATOM     90  O   UNL     1     147.871 165.420 195.504  0.00  0.00    -0.365 OA
ATOM     91  C   UNL     1     148.861 165.542 196.530  0.00  0.00    +0.049 C 
ATOM     92  C   UNL     1     150.160 165.929 195.858  0.00  0.00    -0.027 C 
ATOM     93  C   UNL     1     149.997 165.362 194.466  0.00  0.00    -0.014 C 
ATOM     94  H   UNL     1     148.098 164.757 193.569  0.00  0.00    +0.071 HD
ATOM     95  H   UNL     1     148.950 164.573 197.031  0.00  0.00    +0.056 HD
ATOM     96  H   UNL     1     148.536 166.284 197.264  0.00  0.00    +0.056 HD
ATOM     97  H   UNL     1     151.039 165.549 196.385  0.00  0.00    +0.029 HD
ATOM     98  H   UNL     1     150.247 167.021 195.807  0.00  0.00    +0.029 HD
ATOM     99  H   UNL     1     150.642 165.862 193.738  0.00  0.00    +0.030 HD
ATOM    100  H   UNL     1     150.246 164.290 194.476  0.00  0.00    +0.030 HD
ENDBRANCH  88  89
ENDBRANCH  86  88
ENDBRANCH   1  86
TORSDOF 32
ENDMDL
MODEL 8
REMARK VINA RESULT:      -4.7      3.244      6.296
REMARK  Name = 2a_conf1
REMARK  32 active torsions:
REMARK  status: ('A' for Active; 'I' for Inactive)
REMARK    1  A    between atoms: C_2  and  C_3
REMARK    2  A    between atoms: C_2  and  O_8
REMARK    3  A    between atoms: O_8  and  C_9
REMARK    4  A    between atoms: C_9  and  C_10
REMARK    5  A    between atoms: C_9  and  C_29
REMARK    6  A    between atoms: C_10  and  C_11
REMARK    7  A    between atoms: C_11  and  C_12
REMARK    8  A    between atoms: C_12  and  C_13
REMARK    9  A    between atoms: C_12  and  C_14
REMARK   10  A    between atoms: C_14  and  O_15
REMARK   11  A    between atoms: C_14  and  C_17
REMARK   12  A    between atoms: O_15  and  C_16
REMARK   13  A    between atoms: C_17  and  C_18
REMARK   14  A    between atoms: C_18  and  O_19
REMARK   15  A    between atoms: C_18  and  C_26
REMARK   16  A    between atoms: O_19  and  C_20
REMARK   17  A    between atoms: C_20  and  C_21
REMARK   18  A    between atoms: C_21  and  C_22
REMARK   19  A    between atoms: C_22  and  C_23
REMARK   20  A    between atoms: C_23  and  N_24
REMARK   21  A    between atoms: C_26  and  C_27
REMARK   22  A    between atoms: C_26  and  C_28
REMARK   23  A    between atoms: C_29  and  C_30
REMARK   24  A    between atoms: C_29  and  C_31
REMARK   25  A    between atoms: C_31  and  O_32
REMARK   26  A    between atoms: C_31  and  C_34
REMARK   27  A    between atoms: O_32  and  C_33
REMARK   28  A    between atoms: C_34  and  C_35
REMARK   29  A    between atoms: C_34  and  C_36
REMARK   30  A    between atoms: C_37  and  N_38
REMARK   31  A    between atoms: N_38  and  C_39
REMARK   32  A    between atoms: C_39  and  C_40
REMARK                            x       y       z     vdW  Elec       q    Type
REMARK                         _______ _______ _______ _____ _____    ______ ____
ROOT
ATOM      1  C   UNL     1     146.150 170.474 189.905  0.00  0.00    +0.108 C 
ATOM      2  H   UNL     1     145.644 170.412 190.877  0.00  0.00    +0.074 HD
ENDROOT
BRANCH   1   3
ATOM      3  C   UNL     1     147.115 169.277 189.803  0.00  0.00    -0.015 C 
ATOM      4  H   UNL     1     146.654 168.455 189.246  0.00  0.00    +0.030 HD
ATOM      5  H   UNL     1     148.008 169.592 189.260  0.00  0.00    +0.030 HD
BRANCH   3   6
ATOM      6  C   UNL     1     147.541 168.753 191.181  0.00  0.00    -0.045 C 
ATOM      7  H   UNL     1     148.632 168.734 191.260  0.00  0.00    +0.027 HD
ATOM      8  H   UNL     1     147.200 169.478 191.933  0.00  0.00    +0.027 HD
BRANCH   6   9
ATOM      9  C   UNL     1     146.950 167.366 191.532  0.00  0.00    -0.017 C 
ATOM     10  H   UNL     1     147.604 166.616 191.071  0.00  0.00    +0.032 HD
BRANCH   9  11
ATOM     11  C   UNL     1     145.578 167.218 190.853  0.00  0.00    -0.060 C 
ATOM     12  H   UNL     1     145.420 168.011 190.113  0.00  0.00    +0.023 HD
ATOM     13  H   UNL     1     145.472 166.251 190.351  0.00  0.00    +0.023 HD
ATOM     14  H   UNL     1     144.770 167.300 191.589  0.00  0.00    +0.023 HD
ENDBRANCH   9  11
BRANCH   9  15
ATOM     15  C   UNL     1     146.840 167.040 193.054  0.00  0.00    +0.064 C 
ATOM     16  H   UNL     1     147.158 167.930 193.607  0.00  0.00    +0.060 HD
BRANCH  15  17
ATOM     17  C   UNL     1     147.729 165.852 193.482  0.00  0.00    +0.011 C 
ATOM     18  H   UNL     1     147.121 165.168 194.089  0.00  0.00    +0.033 HD
ATOM     19  H   UNL     1     148.057 165.293 192.600  0.00  0.00    +0.033 HD
BRANCH  17  20
ATOM     20  C   UNL     1     148.986 166.211 194.312  0.00  0.00    +0.108 C 
ATOM     21  H   UNL     1     149.036 167.306 194.387  0.00  0.00    +0.074 HD
BRANCH  20  22
ATOM     22  C   UNL     1     148.996 165.647 195.756  0.00  0.00    -0.009 C 
ATOM     23  H   UNL     1     148.740 164.581 195.729  0.00  0.00    +0.033 HD
BRANCH  22  24
ATOM     24  C   UNL     1     150.403 165.734 196.365  0.00  0.00    -0.059 C 
ATOM     25  H   UNL     1     150.857 166.712 196.167  0.00  0.00    +0.023 HD
ATOM     26  H   UNL     1     151.062 164.966 195.946  0.00  0.00    +0.023 HD
ATOM     27  H   UNL     1     150.371 165.603 197.451  0.00  0.00    +0.023 HD
ENDBRANCH  22  24
BRANCH  22  28
ATOM     28  C   UNL     1     148.009 166.368 196.675  0.00  0.00    -0.059 C 
ATOM     29  H   UNL     1     147.440 165.651 197.281  0.00  0.00    +0.023 HD
ATOM     30  H   UNL     1     148.515 167.060 197.354  0.00  0.00    +0.023 HD
ATOM     31  H   UNL     1     147.295 166.959 196.091  0.00  0.00    +0.023 HD
ENDBRANCH  22  28
ENDBRANCH  20  22
BRANCH  20  32
ATOM     32  O   UNL     1     150.187 165.748 193.655  0.00  0.00    -0.461 OA
BRANCH  32  33
ATOM     33  C   UNL     1     150.714 166.564 192.700  0.00  0.00    +0.307 C 
ATOM     34  O   UNL     1     150.641 167.785 192.694  0.00  0.00    -0.251 OA
BRANCH  33  35
ATOM     35  C   UNL     1     151.396 165.735 191.639  0.00  0.00    +0.046 C 
ATOM     36  H   UNL     1     150.742 165.698 190.763  0.00  0.00    +0.038 HD
ATOM     37  H   UNL     1     151.528 164.717 192.024  0.00  0.00    +0.038 HD
BRANCH  35  38
ATOM     38  C   UNL     1     152.765 166.319 191.283  0.00  0.00    -0.031 C 
ATOM     39  H   UNL     1     153.065 167.060 192.037  0.00  0.00    +0.028 HD
ATOM     40  H   UNL     1     153.517 165.522 191.327  0.00  0.00    +0.028 HD
BRANCH  38  41
ATOM     41  C   UNL     1     152.800 166.950 189.893  0.00  0.00    -0.006 C 
ATOM     42  H   UNL     1     152.376 166.261 189.155  0.00  0.00    +0.042 HD
ATOM     43  H   UNL     1     153.842 167.142 189.604  0.00  0.00    +0.042 HD
BRANCH  41  44
ATOM     44  N   UNL     1     152.060 168.208 189.863  0.00  0.00    -0.330 NA
ATOM     45  H   UNL     1     151.182 168.090 190.372  0.00  0.00    +0.118 HD
ATOM     46  H   UNL     1     152.583 168.915 190.381  0.00  0.00    +0.118 HD
ENDBRANCH  41  44
ENDBRANCH  38  41
ENDBRANCH  35  38
ENDBRANCH  33  35
ENDBRANCH  32  33
ENDBRANCH  20  32
ENDBRANCH  17  20
ENDBRANCH  15  17
BRANCH  15  47
ATOM     47  O   UNL     1     145.491 166.734 193.432  0.00  0.00    -0.379 OA
BRANCH  47  48
ATOM     48  C   UNL     1     145.356 165.534 194.179  0.00  0.00    +0.037 C 
ATOM     49  H   UNL     1     146.117 165.480 194.962  0.00  0.00    +0.052 HD
ATOM     50  H   UNL     1     145.413 164.659 193.528  0.00  0.00    +0.052 HD
ATOM     51  H   UNL     1     144.374 165.545 194.660  0.00  0.00    +0.052 HD
ENDBRANCH  47  48
ENDBRANCH  15  47
ENDBRANCH   9  15
ENDBRANCH   6   9
ENDBRANCH   3   6
ENDBRANCH   1   3
BRANCH   1  52
ATOM     52  C   UNL     1     145.067 170.498 188.781  0.00  0.00    +0.020 C 
ATOM     53  H   UNL     1     145.263 169.623 188.146  0.00  0.00    +0.036 HD
BRANCH  52  54
ATOM     54  C   UNL     1     145.276 171.752 187.916  0.00  0.00    -0.057 C 
ATOM     55  H   UNL     1     144.475 171.849 187.172  0.00  0.00    +0.023 HD
ATOM     56  H   UNL     1     146.234 171.727 187.381  0.00  0.00    +0.023 HD
ATOM     57  H   UNL     1     145.252 172.663 188.521  0.00  0.00    +0.023 HD
ENDBRANCH  52  54
BRANCH  52  58
ATOM     58  C   UNL     1     143.602 170.363 189.306  0.00  0.00    +0.070 C 
ATOM     59  H   UNL     1     143.287 169.317 189.204  0.00  0.00    +0.061 HD
BRANCH  58  60
ATOM     60  C   UNL     1     143.420 170.747 190.810  0.00  0.00    +0.002 C 
ATOM     61  H   UNL     1     144.384 170.595 191.313  0.00  0.00    +0.037 HD
BRANCH  60  62
ATOM     62  C   UNL     1     142.970 172.184 191.004  0.00  0.00    -0.065 C 
ATOM     63  C   UNL     1     141.926 172.531 191.773  0.00  0.00    -0.005 C 
ATOM     64  H   UNL     1     143.552 172.930 190.466  0.00  0.00    +0.059 HD
ATOM     65  H   UNL     1     141.370 171.741 192.277  0.00  0.00    +0.078 HD
BRANCH  63  66
ATOM     66  N   UNL     1     141.457 173.817 191.993  0.00  0.00    -0.281 N 
ATOM     67  C   UNL     1     140.730 174.475 191.004  0.00  0.00    +0.206 C 
ATOM     68  O   UNL     1     140.297 175.621 191.055  0.00  0.00    -0.279 OA
ATOM     69  H   UNL     1     140.567 173.857 190.110  0.00  0.00    +0.126 HD
BRANCH  66  70
ATOM     70  C   UNL     1     141.728 174.557 193.225  0.00  0.00    +0.016 C 
ATOM     71  H   UNL     1     141.580 173.907 194.091  0.00  0.00    +0.047 HD
ATOM     72  H   UNL     1     140.992 175.364 193.328  0.00  0.00    +0.047 HD
BRANCH  70  73
ATOM     73  C   UNL     1     143.118 175.171 193.229  0.00  0.00    -0.049 C 
ATOM     74  H   UNL     1     143.877 174.441 193.534  0.00  0.00    +0.024 HD
ATOM     75  H   UNL     1     143.154 176.018 193.921  0.00  0.00    +0.024 HD
ATOM     76  H   UNL     1     143.388 175.527 192.231  0.00  0.00    +0.024 HD
ENDBRANCH  70  73
ENDBRANCH  66  70
ENDBRANCH  63  66
ENDBRANCH  60  62
BRANCH  60  77
ATOM     77  C   UNL     1     142.419 169.822 191.513  0.00  0.00    -0.057 C 
ATOM     78  H   UNL     1     142.892 168.901 191.874  0.00  0.00    +0.024 HD
ATOM     79  H   UNL     1     141.959 170.331 192.368  0.00  0.00    +0.024 HD
ATOM     80  H   UNL     1     141.613 169.531 190.830  0.00  0.00    +0.024 HD
ENDBRANCH  60  77
ENDBRANCH  58  60
BRANCH  58  81
ATOM     81  O   UNL     1     142.750 171.217 188.520  0.00  0.00    -0.379 OA
BRANCH  81  82
ATOM     82  C   UNL     1     141.690 170.533 187.866  0.00  0.00    +0.037 C 
ATOM     83  H   UNL     1     140.779 170.567 188.466  0.00  0.00    +0.052 HD
ATOM     84  H   UNL     1     141.503 170.955 186.875  0.00  0.00    +0.052 HD
ATOM     85  H   UNL     1     141.985 169.487 187.751  0.00  0.00    +0.052 HD
ENDBRANCH  81  82
ENDBRANCH  58  81
ENDBRANCH  52  58
ENDBRANCH   1  52
BRANCH   1  86
ATOM     86  O   UNL     1     146.955 171.671 189.870  0.00  0.00    -0.459 OA
BRANCH  86  88
ATOM     87  O   UNL     1     146.279 172.533 191.886  0.00  0.00    -0.248 OA
ATOM     88  C   UNL     1     147.151 172.311 191.056  0.00  0.00    +0.337 C 
BRANCH  88  89
ATOM     89  C   UNL     1     148.626 172.728 191.175  0.00  0.00    +0.155 C 
ATOM     90  O   UNL     1     149.515 171.597 191.174  0.00  0.00    -0.365 OA
ATOM     91  C   UNL     1     150.000 171.379 192.502  0.00  0.00    +0.049 C 
ATOM     92  C   UNL     1     149.241 172.316 193.417  0.00  0.00    -0.027 C 
ATOM     93  C   UNL     1     148.864 173.451 192.493  0.00  0.00    -0.014 C 
ATOM     94  H   UNL     1     148.876 173.351 190.309  0.00  0.00    +0.071 HD
ATOM     95  H   UNL     1     151.071 171.600 192.513  0.00  0.00    +0.056 HD
ATOM     96  H   UNL     1     149.858 170.329 192.774  0.00  0.00    +0.056 HD
ATOM     97  H   UNL     1     149.829 172.632 194.281  0.00  0.00    +0.029 HD
ATOM     98  H   UNL     1     148.335 171.824 193.792  0.00  0.00    +0.029 HD
ATOM     99  H   UNL     1     148.004 174.018 192.862  0.00  0.00    +0.030 HD
ATOM    100  H   UNL     1     149.717 174.138 192.389  0.00  0.00    +0.030 HD
ENDBRANCH  88  89
ENDBRANCH  86  88
ENDBRANCH   1  86
TORSDOF 32
ENDMDL
MODEL 9
REMARK VINA RESULT:      -4.7      2.925      8.847
REMARK  Name = 2a_conf1
REMARK  32 active torsions:
REMARK  status: ('A' for Active; 'I' for Inactive)
REMARK    1  A    between atoms: C_2  and  C_3
REMARK    2  A    between atoms: C_2  and  O_8
REMARK    3  A    between atoms: O_8  and  C_9
REMARK    4  A    between atoms: C_9  and  C_10
REMARK    5  A    between atoms: C_9  and  C_29
REMARK    6  A    between atoms: C_10  and  C_11
REMARK    7  A    between atoms: C_11  and  C_12
REMARK    8  A    between atoms: C_12  and  C_13
REMARK    9  A    between atoms: C_12  and  C_14
REMARK   10  A    between atoms: C_14  and  O_15
REMARK   11  A    between atoms: C_14  and  C_17
REMARK   12  A    between atoms: O_15  and  C_16
REMARK   13  A    between atoms: C_17  and  C_18
REMARK   14  A    between atoms: C_18  and  O_19
REMARK   15  A    between atoms: C_18  and  C_26
REMARK   16  A    between atoms: O_19  and  C_20
REMARK   17  A    between atoms: C_20  and  C_21
REMARK   18  A    between atoms: C_21  and  C_22
REMARK   19  A    between atoms: C_22  and  C_23
REMARK   20  A    between atoms: C_23  and  N_24
REMARK   21  A    between atoms: C_26  and  C_27
REMARK   22  A    between atoms: C_26  and  C_28
REMARK   23  A    between atoms: C_29  and  C_30
REMARK   24  A    between atoms: C_29  and  C_31
REMARK   25  A    between atoms: C_31  and  O_32
REMARK   26  A    between atoms: C_31  and  C_34
REMARK   27  A    between atoms: O_32  and  C_33
REMARK   28  A    between atoms: C_34  and  C_35
REMARK   29  A    between atoms: C_34  and  C_36
REMARK   30  A    between atoms: C_37  and  N_38
REMARK   31  A    between atoms: N_38  and  C_39
REMARK   32  A    between atoms: C_39  and  C_40
REMARK                            x       y       z     vdW  Elec       q    Type
REMARK                         _______ _______ _______ _____ _____    ______ ____
ROOT
ATOM      1  C   UNL     1     152.784 166.396 188.691  0.00  0.00    +0.108 C 
ATOM      2  H   UNL     1     152.543 165.350 188.921  0.00  0.00    +0.074 HD
ENDROOT
BRANCH   1   3
ATOM      3  C   UNL     1     152.485 167.232 189.950  0.00  0.00    -0.015 C 
ATOM      4  H   UNL     1     153.295 167.943 190.144  0.00  0.00    +0.030 HD
ATOM      5  H   UNL     1     151.570 167.803 189.782  0.00  0.00    +0.030 HD
BRANCH   3   6
ATOM      6  C   UNL     1     152.295 166.360 191.198  0.00  0.00    -0.045 C 
ATOM      7  H   UNL     1     151.449 165.679 191.060  0.00  0.00    +0.027 HD
ATOM      8  H   UNL     1     153.182 165.719 191.296  0.00  0.00    +0.027 HD
BRANCH   6   9
ATOM      9  C   UNL     1     152.128 167.170 192.507  0.00  0.00    -0.017 C 
ATOM     10  H   UNL     1     152.585 168.152 192.334  0.00  0.00    +0.032 HD
BRANCH   9  11
ATOM     11  C   UNL     1     152.952 166.501 193.619  0.00  0.00    -0.060 C 
ATOM     12  H   UNL     1     152.658 166.880 194.605  0.00  0.00    +0.023 HD
ATOM     13  H   UNL     1     152.833 165.412 193.619  0.00  0.00    +0.023 HD
ATOM     14  H   UNL     1     154.019 166.718 193.496  0.00  0.00    +0.023 HD
ENDBRANCH   9  11
BRANCH   9  15
ATOM     15  C   UNL     1     150.659 167.399 192.982  0.00  0.00    +0.064 C 
ATOM     16  H   UNL     1     150.686 167.587 194.061  0.00  0.00    +0.060 HD
BRANCH  15  17
ATOM     17  C   UNL     1     149.744 166.182 192.720  0.00  0.00    +0.011 C 
ATOM     18  H   UNL     1     149.431 166.208 191.668  0.00  0.00    +0.033 HD
ATOM     19  H   UNL     1     150.306 165.254 192.865  0.00  0.00    +0.033 HD
BRANCH  17  20
ATOM     20  C   UNL     1     148.461 166.101 193.581  0.00  0.00    +0.108 C 
ATOM     21  H   UNL     1     148.261 167.105 193.979  0.00  0.00    +0.074 HD
BRANCH  20  22
ATOM     22  C   UNL     1     147.191 165.645 192.818  0.00  0.00    -0.009 C 
ATOM     23  H   UNL     1     147.349 164.632 192.427  0.00  0.00    +0.033 HD
BRANCH  22  24
ATOM     24  C   UNL     1     145.987 165.555 193.765  0.00  0.00    -0.059 C 
ATOM     25  H   UNL     1     146.146 166.165 194.662  0.00  0.00    +0.023 HD
ATOM     26  H   UNL     1     145.815 164.523 194.088  0.00  0.00    +0.023 HD
ATOM     27  H   UNL     1     145.076 165.919 193.280  0.00  0.00    +0.023 HD
ENDBRANCH  22  24
BRANCH  22  28
ATOM     28  C   UNL     1     146.841 166.572 191.653  0.00  0.00    -0.059 C 
ATOM     29  H   UNL     1     147.723 167.133 191.317  0.00  0.00    +0.023 HD
ATOM     30  H   UNL     1     146.444 166.020 190.796  0.00  0.00    +0.023 HD
ATOM     31  H   UNL     1     146.074 167.296 191.949  0.00  0.00    +0.023 HD
ENDBRANCH  22  28
ENDBRANCH  20  22
BRANCH  20  32
ATOM     32  O   UNL     1     148.645 165.201 194.697  0.00  0.00    -0.461 OA
BRANCH  32  33
ATOM     33  C   UNL     1     148.827 165.773 195.920  0.00  0.00    +0.307 C 
ATOM     34  O   UNL     1     147.938 166.232 196.625  0.00  0.00    -0.251 OA
BRANCH  33  35
ATOM     35  C   UNL     1     150.294 165.765 196.275  0.00  0.00    +0.046 C 
ATOM     36  H   UNL     1     150.381 165.880 197.359  0.00  0.00    +0.038 HD
ATOM     37  H   UNL     1     150.774 166.622 195.789  0.00  0.00    +0.038 HD
BRANCH  35  38
ATOM     38  C   UNL     1     150.966 164.475 195.800  0.00  0.00    -0.031 C 
ATOM     39  H   UNL     1     150.426 164.067 194.935  0.00  0.00    +0.028 HD
ATOM     40  H   UNL     1     151.976 164.709 195.443  0.00  0.00    +0.028 HD
BRANCH  38  41
ATOM     41  C   UNL     1     151.066 163.417 196.896  0.00  0.00    -0.006 C 
ATOM     42  H   UNL     1     150.218 163.505 197.584  0.00  0.00    +0.042 HD
ATOM     43  H   UNL     1     151.982 163.578 197.479  0.00  0.00    +0.042 HD
BRANCH  41  44
ATOM     44  N   UNL     1     151.092 162.070 196.332  0.00  0.00    -0.330 NA
ATOM     45  H   UNL     1     151.850 162.010 195.649  0.00  0.00    +0.118 HD
ATOM     46  H   UNL     1     151.332 161.405 197.067  0.00  0.00    +0.118 HD
ENDBRANCH  41  44
ENDBRANCH  38  41
ENDBRANCH  35  38
ENDBRANCH  33  35
ENDBRANCH  32  33
ENDBRANCH  20  32
ENDBRANCH  17  20
ENDBRANCH  15  17
BRANCH  15  47
ATOM     47  O   UNL     1     150.068 168.536 192.341  0.00  0.00    -0.379 OA
BRANCH  47  48
ATOM     48  C   UNL     1     150.880 169.700 192.359  0.00  0.00    +0.037 C 
ATOM     49  H   UNL     1     151.785 169.530 192.949  0.00  0.00    +0.052 HD
ATOM     50  H   UNL     1     150.327 170.558 192.746  0.00  0.00    +0.052 HD
ATOM     51  H   UNL     1     151.182 169.917 191.331  0.00  0.00    +0.052 HD
ENDBRANCH  47  48
ENDBRANCH  15  47
ENDBRANCH   9  15
ENDBRANCH   6   9
ENDBRANCH   3   6
ENDBRANCH   1   3
BRANCH   1  52
ATOM     52  C   UNL     1     154.274 166.474 188.232  0.00  0.00    +0.020 C 
ATOM     53  H   UNL     1     154.784 167.129 188.950  0.00  0.00    +0.036 HD
BRANCH  52  54
ATOM     54  C   UNL     1     154.335 167.160 186.856  0.00  0.00    -0.057 C 
ATOM     55  H   UNL     1     155.319 167.616 186.693  0.00  0.00    +0.023 HD
ATOM     56  H   UNL     1     153.576 167.947 186.757  0.00  0.00    +0.023 HD
ATOM     57  H   UNL     1     154.184 166.443 186.045  0.00  0.00    +0.023 HD
ENDBRANCH  52  54
BRANCH  52  58
ATOM     58  C   UNL     1     155.019 165.100 188.255  0.00  0.00    +0.070 C 
ATOM     59  H   UNL     1     155.806 165.115 187.491  0.00  0.00    +0.061 HD
BRANCH  58  60
ATOM     60  C   UNL     1     155.714 164.770 189.615  0.00  0.00    +0.002 C 
ATOM     61  H   UNL     1     154.931 164.494 190.333  0.00  0.00    +0.037 HD
BRANCH  60  62
ATOM     62  C   UNL     1     156.719 163.637 189.506  0.00  0.00    -0.065 C 
ATOM     63  C   UNL     1     157.881 163.616 190.179  0.00  0.00    -0.005 C 
ATOM     64  H   UNL     1     156.440 162.831 188.831  0.00  0.00    +0.059 HD
ATOM     65  H   UNL     1     158.116 164.458 190.830  0.00  0.00    +0.078 HD
BRANCH  63  66
ATOM     66  N   UNL     1     158.846 162.622 190.126  0.00  0.00    -0.281 N 
ATOM     67  C   UNL     1     158.513 161.346 189.678  0.00  0.00    +0.206 C 
ATOM     68  O   UNL     1     159.256 160.374 189.622  0.00  0.00    -0.279 OA
ATOM     69  H   UNL     1     157.462 161.264 189.364  0.00  0.00    +0.126 HD
BRANCH  66  70
ATOM     70  C   UNL     1     160.224 162.834 190.568  0.00  0.00    +0.016 C 
ATOM     71  H   UNL     1     160.624 163.747 190.118  0.00  0.00    +0.047 HD
ATOM     72  H   UNL     1     160.851 162.016 190.193  0.00  0.00    +0.047 HD
BRANCH  70  73
ATOM     73  C   UNL     1     160.339 162.873 192.084  0.00  0.00    -0.049 C 
ATOM     74  H   UNL     1     160.334 163.903 192.459  0.00  0.00    +0.024 HD
ATOM     75  H   UNL     1     161.267 162.391 192.404  0.00  0.00    +0.024 HD
ATOM     76  H   UNL     1     159.498 162.350 192.550  0.00  0.00    +0.024 HD
ENDBRANCH  70  73
ENDBRANCH  66  70
ENDBRANCH  63  66
ENDBRANCH  60  62
BRANCH  60  77
ATOM     77  C   UNL     1     156.422 165.997 190.202  0.00  0.00    -0.057 C 
ATOM     78  H   UNL     1     157.506 165.851 190.279  0.00  0.00    +0.024 HD
ATOM     79  H   UNL     1     156.236 166.882 189.584  0.00  0.00    +0.024 HD
ATOM     80  H   UNL     1     156.049 166.215 191.209  0.00  0.00    +0.024 HD
ENDBRANCH  60  77
ENDBRANCH  58  60
BRANCH  58  81
ATOM     81  O   UNL     1     154.071 164.056 187.971  0.00  0.00    -0.379 OA
BRANCH  81  82
ATOM     82  C   UNL     1     154.198 163.496 186.671  0.00  0.00    +0.037 C 
ATOM     83  H   UNL     1     154.694 164.195 185.995  0.00  0.00    +0.052 HD
ATOM     84  H   UNL     1     154.746 162.550 186.702  0.00  0.00    +0.052 HD
ATOM     85  H   UNL     1     153.192 163.305 186.288  0.00  0.00    +0.052 HD
ENDBRANCH  81  82
ENDBRANCH  58  81
ENDBRANCH  52  58
ENDBRANCH   1  52
BRANCH   1  86
ATOM     86  O   UNL     1     151.899 166.864 187.652  0.00  0.00    -0.459 OA
BRANCH  86  88
ATOM     87  O   UNL     1     150.949 165.790 185.861  0.00  0.00    -0.248 OA
ATOM     88  C   UNL     1     151.094 165.933 187.068  0.00  0.00    +0.337 C 
BRANCH  88  89
ATOM     89  C   UNL     1     150.386 165.112 188.158  0.00  0.00    +0.155 C 
ATOM     90  O   UNL     1     149.800 163.905 187.639  0.00  0.00    -0.365 OA
ATOM     91  C   UNL     1     148.381 164.069 187.558  0.00  0.00    +0.049 C 
ATOM     92  C   UNL     1     148.077 165.516 187.881  0.00  0.00    -0.027 C 
ATOM     93  C   UNL     1     149.241 165.913 188.759  0.00  0.00    -0.014 C 
ATOM     94  H   UNL     1     151.132 164.826 188.909  0.00  0.00    +0.071 HD
ATOM     95  H   UNL     1     147.920 163.398 188.288  0.00  0.00    +0.056 HD
ATOM     96  H   UNL     1     148.038 163.787 186.559  0.00  0.00    +0.056 HD
ATOM     97  H   UNL     1     147.104 165.647 188.359  0.00  0.00    +0.029 HD
ATOM     98  H   UNL     1     148.082 166.116 186.963  0.00  0.00    +0.029 HD
ATOM     99  H   UNL     1     149.401 166.996 188.771  0.00  0.00    +0.030 HD
ATOM    100  H   UNL     1     149.054 165.576 189.789  0.00  0.00    +0.030 HD
ENDBRANCH  88  89
ENDBRANCH  86  88
ENDBRANCH   1  86
TORSDOF 32
ENDMDL
MODEL 10
REMARK VINA RESULT:      -4.7      3.665      7.379
REMARK  Name = 2a_conf1
REMARK  32 active torsions:
REMARK  status: ('A' for Active; 'I' for Inactive)
REMARK    1  A    between atoms: C_2  and  C_3
REMARK    2  A    between atoms: C_2  and  O_8
REMARK    3  A    between atoms: O_8  and  C_9
REMARK    4  A    between atoms: C_9  and  C_10
REMARK    5  A    between atoms: C_9  and  C_29
REMARK    6  A    between atoms: C_10  and  C_11
REMARK    7  A    between atoms: C_11  and  C_12
REMARK    8  A    between atoms: C_12  and  C_13
REMARK    9  A    between atoms: C_12  and  C_14
REMARK   10  A    between atoms: C_14  and  O_15
REMARK   11  A    between atoms: C_14  and  C_17
REMARK   12  A    between atoms: O_15  and  C_16
REMARK   13  A    between atoms: C_17  and  C_18
REMARK   14  A    between atoms: C_18  and  O_19
REMARK   15  A    between atoms: C_18  and  C_26
REMARK   16  A    between atoms: O_19  and  C_20
REMARK   17  A    between atoms: C_20  and  C_21
REMARK   18  A    between atoms: C_21  and  C_22
REMARK   19  A    between atoms: C_22  and  C_23
REMARK   20  A    between atoms: C_23  and  N_24
REMARK   21  A    between atoms: C_26  and  C_27
REMARK   22  A    between atoms: C_26  and  C_28
REMARK   23  A    between atoms: C_29  and  C_30
REMARK   24  A    between atoms: C_29  and  C_31
REMARK   25  A    between atoms: C_31  and  O_32
REMARK   26  A    between atoms: C_31  and  C_34
REMARK   27  A    between atoms: O_32  and  C_33
REMARK   28  A    between atoms: C_34  and  C_35
REMARK   29  A    between atoms: C_34  and  C_36
REMARK   30  A    between atoms: C_37  and  N_38
REMARK   31  A    between atoms: N_38  and  C_39
REMARK   32  A    between atoms: C_39  and  C_40
REMARK                            x       y       z     vdW  Elec       q    Type
REMARK                         _______ _______ _______ _____ _____    ______ ____
ROOT
ATOM      1  C   UNL     1     146.335 170.268 190.032  0.00  0.00    +0.108 C 
ATOM      2  H   UNL     1     145.966 170.123 191.055  0.00  0.00    +0.074 HD
ENDROOT
BRANCH   1   3
ATOM      3  C   UNL     1     147.429 169.214 189.776  0.00  0.00    -0.015 C 
ATOM      4  H   UNL     1     147.076 168.451 189.074  0.00  0.00    +0.030 HD
ATOM      5  H   UNL     1     148.294 169.707 189.329  0.00  0.00    +0.030 HD
BRANCH   3   6
ATOM      6  C   UNL     1     147.879 168.515 191.066  0.00  0.00    -0.045 C 
ATOM      7  H   UNL     1     147.941 169.236 191.887  0.00  0.00    +0.027 HD
ATOM      8  H   UNL     1     147.092 167.804 191.351  0.00  0.00    +0.027 HD
BRANCH   6   9
ATOM      9  C   UNL     1     149.212 167.741 190.925  0.00  0.00    -0.017 C 
ATOM     10  H   UNL     1     149.995 168.487 190.743  0.00  0.00    +0.032 HD
BRANCH   9  11
ATOM     11  C   UNL     1     149.152 166.862 189.665  0.00  0.00    -0.060 C 
ATOM     12  H   UNL     1     148.813 167.442 188.799  0.00  0.00    +0.023 HD
ATOM     13  H   UNL     1     150.126 166.422 189.426  0.00  0.00    +0.023 HD
ATOM     14  H   UNL     1     148.442 166.039 189.800  0.00  0.00    +0.023 HD
ENDBRANCH   9  11
BRANCH   9  15
ATOM     15  C   UNL     1     149.637 166.888 192.162  0.00  0.00    +0.064 C 
ATOM     16  H   UNL     1     149.428 165.839 191.927  0.00  0.00    +0.060 HD
BRANCH  15  17
ATOM     17  C   UNL     1     148.868 167.266 193.447  0.00  0.00    +0.011 C 
ATOM     18  H   UNL     1     149.598 167.575 194.206  0.00  0.00    +0.033 HD
ATOM     19  H   UNL     1     148.220 168.127 193.256  0.00  0.00    +0.033 HD
BRANCH  17  20
ATOM     20  C   UNL     1     147.999 166.147 194.071  0.00  0.00    +0.108 C 
ATOM     21  H   UNL     1     148.079 165.263 193.425  0.00  0.00    +0.074 HD
BRANCH  20  22
ATOM     22  C   UNL     1     148.420 165.716 195.499  0.00  0.00    -0.009 C 
ATOM     23  H   UNL     1     148.188 164.653 195.639  0.00  0.00    +0.033 HD
BRANCH  22  24
ATOM     24  C   UNL     1     149.938 165.852 195.686  0.00  0.00    -0.059 C 
ATOM     25  H   UNL     1     150.394 166.362 194.830  0.00  0.00    +0.023 HD
ATOM     26  H   UNL     1     150.412 164.869 195.784  0.00  0.00    +0.023 HD
ATOM     27  H   UNL     1     150.174 166.436 196.580  0.00  0.00    +0.023 HD
ENDBRANCH  22  24
BRANCH  22  28
ATOM     28  C   UNL     1     147.710 166.522 196.588  0.00  0.00    -0.059 C 
ATOM     29  H   UNL     1     147.493 167.542 196.245  0.00  0.00    +0.023 HD
ATOM     30  H   UNL     1     146.766 166.058 196.890  0.00  0.00    +0.023 HD
ATOM     31  H   UNL     1     148.332 166.593 197.488  0.00  0.00    +0.023 HD
ENDBRANCH  22  28
ENDBRANCH  20  22
BRANCH  20  32
ATOM     32  O   UNL     1     146.611 166.543 194.126  0.00  0.00    -0.461 OA
BRANCH  32  33
ATOM     33  C   UNL     1     145.771 165.952 193.232  0.00  0.00    +0.307 C 
ATOM     34  O   UNL     1     146.086 165.563 192.116  0.00  0.00    -0.251 OA
BRANCH  33  35
ATOM     35  C   UNL     1     144.384 165.853 193.821  0.00  0.00    +0.046 C 
ATOM     36  H   UNL     1     144.460 166.018 194.899  0.00  0.00    +0.038 HD
ATOM     37  H   UNL     1     144.002 164.842 193.644  0.00  0.00    +0.038 HD
BRANCH  35  38
ATOM     38  C   UNL     1     143.440 166.868 193.171  0.00  0.00    -0.031 C 
ATOM     39  H   UNL     1     143.380 167.774 193.789  0.00  0.00    +0.028 HD
ATOM     40  H   UNL     1     143.861 167.184 192.209  0.00  0.00    +0.028 HD
BRANCH  38  41
ATOM     41  C   UNL     1     142.038 166.309 192.933  0.00  0.00    -0.006 C 
ATOM     42  H   UNL     1     141.296 167.111 192.999  0.00  0.00    +0.042 HD
ATOM     43  H   UNL     1     141.800 165.573 193.712  0.00  0.00    +0.042 HD
BRANCH  41  44
ATOM     44  N   UNL     1     141.941 165.665 191.626  0.00  0.00    -0.330 NA
ATOM     45  H   UNL     1     140.957 165.601 191.359  0.00  0.00    +0.118 HD
ATOM     46  H   UNL     1     142.376 166.265 190.924  0.00  0.00    +0.118 HD
ENDBRANCH  41  44
ENDBRANCH  38  41
ENDBRANCH  35  38
ENDBRANCH  33  35
ENDBRANCH  32  33
ENDBRANCH  20  32
ENDBRANCH  17  20
ENDBRANCH  15  17
BRANCH  15  47
ATOM     47  O   UNL     1     151.038 167.018 192.437  0.00  0.00    -0.379 OA
BRANCH  47  48
ATOM     48  C   UNL     1     151.765 165.804 192.329  0.00  0.00    +0.037 C 
ATOM     49  H   UNL     1     151.099 164.944 192.444  0.00  0.00    +0.052 HD
ATOM     50  H   UNL     1     152.572 165.764 193.062  0.00  0.00    +0.052 HD
ATOM     51  H   UNL     1     152.204 165.761 191.328  0.00  0.00    +0.052 HD
ENDBRANCH  47  48
ENDBRANCH  15  47
ENDBRANCH   9  15
ENDBRANCH   6   9
ENDBRANCH   3   6
ENDBRANCH   1   3
BRANCH   1  52
ATOM     52  C   UNL     1     145.128 170.163 189.047  0.00  0.00    +0.020 C 
ATOM     53  H   UNL     1     145.247 169.210 188.514  0.00  0.00    +0.036 HD
BRANCH  52  54
ATOM     54  C   UNL     1     145.237 171.291 188.006  0.00  0.00    -0.057 C 
ATOM     55  H   UNL     1     145.734 170.933 187.096  0.00  0.00    +0.023 HD
ATOM     56  H   UNL     1     145.804 172.148 188.388  0.00  0.00    +0.023 HD
ATOM     57  H   UNL     1     144.249 171.650 187.702  0.00  0.00    +0.023 HD
ENDBRANCH  52  54
BRANCH  52  58
ATOM     58  C   UNL     1     143.734 170.123 189.752  0.00  0.00    +0.070 C 
ATOM     59  H   UNL     1     143.017 170.689 189.144  0.00  0.00    +0.061 HD
BRANCH  58  60
ATOM     60  C   UNL     1     143.144 168.687 189.928  0.00  0.00    +0.002 C 
ATOM     61  H   UNL     1     143.099 168.473 191.003  0.00  0.00    +0.037 HD
BRANCH  60  62
ATOM     62  C   UNL     1     141.759 168.538 189.326  0.00  0.00    -0.065 C 
ATOM     63  C   UNL     1     140.850 169.526 189.315  0.00  0.00    -0.005 C 
ATOM     64  H   UNL     1     141.539 167.560 188.901  0.00  0.00    +0.059 HD
ATOM     65  H   UNL     1     141.118 170.480 189.768  0.00  0.00    +0.078 HD
BRANCH  63  66
ATOM     66  N   UNL     1     139.568 169.461 188.790  0.00  0.00    -0.281 N 
ATOM     67  C   UNL     1     139.370 169.028 187.481  0.00  0.00    +0.206 C 
ATOM     68  O   UNL     1     138.300 168.964 186.887  0.00  0.00    -0.279 OA
ATOM     69  H   UNL     1     140.304 168.734 186.982  0.00  0.00    +0.126 HD
BRANCH  66  70
ATOM     70  C   UNL     1     138.384 169.876 189.541  0.00  0.00    +0.016 C 
ATOM     71  H   UNL     1     137.691 169.036 189.641  0.00  0.00    +0.047 HD
ATOM     72  H   UNL     1     137.845 170.641 188.968  0.00  0.00    +0.047 HD
BRANCH  70  73
ATOM     73  C   UNL     1     138.743 170.457 190.899  0.00  0.00    -0.049 C 
ATOM     74  H   UNL     1     138.039 171.244 191.196  0.00  0.00    +0.024 HD
ATOM     75  H   UNL     1     139.750 170.884 190.873  0.00  0.00    +0.024 HD
ATOM     76  H   UNL     1     138.714 169.683 191.672  0.00  0.00    +0.024 HD
ENDBRANCH  70  73
ENDBRANCH  66  70
ENDBRANCH  63  66
ENDBRANCH  60  62
BRANCH  60  77
ATOM     77  C   UNL     1     144.060 167.620 189.316  0.00  0.00    -0.057 C 
ATOM     78  H   UNL     1     144.924 167.402 189.954  0.00  0.00    +0.024 HD
ATOM     79  H   UNL     1     143.509 166.687 189.150  0.00  0.00    +0.024 HD
ATOM     80  H   UNL     1     144.446 167.951 188.344  0.00  0.00    +0.024 HD
ENDBRANCH  60  77
ENDBRANCH  58  60
BRANCH  58  81
ATOM     81  O   UNL     1     143.860 170.719 191.056  0.00  0.00    -0.379 OA
BRANCH  81  82
ATOM     82  C   UNL     1     143.072 171.888 191.237  0.00  0.00    +0.037 C 
ATOM     83  H   UNL     1     143.243 172.320 192.225  0.00  0.00    +0.052 HD
ATOM     84  H   UNL     1     143.283 172.629 190.461  0.00  0.00    +0.052 HD
ATOM     85  H   UNL     1     142.020 171.598 191.167  0.00  0.00    +0.052 HD
ENDBRANCH  81  82
ENDBRANCH  58  81
ENDBRANCH  52  58
ENDBRANCH   1  52
BRANCH   1  86
ATOM     86  O   UNL     1     146.965 171.562 189.939  0.00  0.00    -0.459 OA
BRANCH  86  88
ATOM     87  O   UNL     1     146.336 172.458 191.955  0.00  0.00    -0.248 OA
ATOM     88  C   UNL     1     147.189 172.220 191.111  0.00  0.00    +0.337 C 
BRANCH  88  89
ATOM     89  C   UNL     1     148.668 172.630 191.193  0.00  0.00    +0.155 C 
ATOM     90  O   UNL     1     149.552 171.495 191.195  0.00  0.00    -0.365 OA
ATOM     91  C   UNL     1     150.061 171.300 192.518  0.00  0.00    +0.049 C 
ATOM     92  C   UNL     1     149.325 172.258 193.429  0.00  0.00    -0.027 C 
ATOM     93  C   UNL     1     148.935 173.377 192.491  0.00  0.00    -0.014 C 
ATOM     94  H   UNL     1     148.904 173.236 190.309  0.00  0.00    +0.071 HD
ATOM     95  H   UNL     1     151.134 171.516 192.503  0.00  0.00    +0.056 HD
ATOM     96  H   UNL     1     149.920 170.257 192.813  0.00  0.00    +0.056 HD
ATOM     97  H   UNL     1     149.933 172.588 194.275  0.00  0.00    +0.029 HD
ATOM     98  H   UNL     1     148.425 171.779 193.831  0.00  0.00    +0.029 HD
ATOM     99  H   UNL     1     148.086 173.955 192.866  0.00  0.00    +0.030 HD
ATOM    100  H   UNL     1     149.790 174.057 192.357  0.00  0.00    +0.030 HD
ENDBRANCH  88  89
ENDBRANCH  86  88
ENDBRANCH   1  86
TORSDOF 32
ENDMDL
