MODEL 1
REMARK VINA RESULT:      -5.0      0.000      0.000
REMARK  Name = 2c_conf3
REMARK  32 active torsions:
REMARK  status: ('A' for Active; 'I' for Inactive)
REMARK    1  A    between atoms: N_2  and  C_3
REMARK    2  A    between atoms: N_2  and  C_5
REMARK    3  A    between atoms: C_3  and  C_4
REMARK    4  A    between atoms: C_6  and  C_7
REMARK    5  A    between atoms: C_7  and  C_8
REMARK    6  A    between atoms: C_7  and  C_9
REMARK    7  A    between atoms: C_9  and  O_10
REMARK    8  A    between atoms: C_9  and  C_12
REMARK    9  A    between atoms: O_10  and  C_11
REMARK   10  A    between atoms: C_12  and  C_13
REMARK   11  A    between atoms: C_12  and  C_14
REMARK   12  A    between atoms: C_14  and  O_15
REMARK   13  A    between atoms: C_14  and  C_21
REMARK   14  A    between atoms: O_15  and  C_16
REMARK   15  A    between atoms: C_16  and  C_17
REMARK   16  A    between atoms: C_17  and  C_18
REMARK   17  A    between atoms: C_17  and  C_19
REMARK   18  A    between atoms: C_21  and  C_22
REMARK   19  A    between atoms: C_22  and  C_23
REMARK   20  A    between atoms: C_23  and  C_24
REMARK   21  A    between atoms: C_23  and  C_25
REMARK   22  A    between atoms: C_25  and  O_26
REMARK   23  A    between atoms: C_25  and  C_28
REMARK   24  A    between atoms: O_26  and  C_27
REMARK   25  A    between atoms: C_28  and  C_29
REMARK   26  A    between atoms: C_29  and  O_30
REMARK   27  A    between atoms: C_29  and  C_35
REMARK   28  A    between atoms: O_30  and  C_31
REMARK   29  A    between atoms: C_31  and  C_32
REMARK   30  A    between atoms: C_32  and  C_33
REMARK   31  A    between atoms: C_35  and  C_36
REMARK   32  A    between atoms: C_35  and  C_37
REMARK                            x       y       z     vdW  Elec       q    Type
REMARK                         _______ _______ _______ _____ _____    ______ ____
ROOT
ATOM      1  C   UNL     1     148.342 169.427 191.088  0.00  0.00    +0.108 C 
ATOM      2  H   UNL     1     149.180 170.051 190.769  0.00  0.00    +0.074 HD
ENDROOT
BRANCH   1   3
ATOM      3  C   UNL     1     147.531 169.013 189.838  0.00  0.00    -0.015 C 
ATOM      4  H   UNL     1     146.463 169.017 190.077  0.00  0.00    +0.030 HD
ATOM      5  H   UNL     1     147.694 169.767 189.058  0.00  0.00    +0.030 HD
BRANCH   3   6
ATOM      6  C   UNL     1     147.934 167.644 189.267  0.00  0.00    -0.045 C 
ATOM      7  H   UNL     1     148.023 167.754 188.179  0.00  0.00    +0.027 HD
ATOM      8  H   UNL     1     148.937 167.392 189.619  0.00  0.00    +0.027 HD
BRANCH   6   9
ATOM      9  C   UNL     1     146.950 166.472 189.508  0.00  0.00    -0.017 C 
ATOM     10  H   UNL     1     147.341 165.919 190.377  0.00  0.00    +0.032 HD
BRANCH   9  11
ATOM     11  C   UNL     1     146.958 165.454 188.362  0.00  0.00    -0.060 C 
ATOM     12  H   UNL     1     146.230 164.654 188.537  0.00  0.00    +0.023 HD
ATOM     13  H   UNL     1     147.937 164.970 188.277  0.00  0.00    +0.023 HD
ATOM     14  H   UNL     1     146.720 165.924 187.402  0.00  0.00    +0.023 HD
ENDBRANCH   9  11
BRANCH   9  15
ATOM     15  C   UNL     1     145.508 166.925 189.907  0.00  0.00    +0.064 C 
ATOM     16  H   UNL     1     145.422 168.017 189.839  0.00  0.00    +0.060 HD
BRANCH  15  17
ATOM     17  C   UNL     1     145.167 166.462 191.344  0.00  0.00    +0.011 C 
ATOM     18  H   UNL     1     145.381 165.390 191.408  0.00  0.00    +0.033 HD
ATOM     19  H   UNL     1     145.830 166.973 192.051  0.00  0.00    +0.033 HD
BRANCH  17  20
ATOM     20  C   UNL     1     143.709 166.691 191.797  0.00  0.00    +0.108 C 
ATOM     21  H   UNL     1     143.033 166.306 191.023  0.00  0.00    +0.074 HD
BRANCH  20  22
ATOM     22  C   UNL     1     143.412 165.964 193.143  0.00  0.00    -0.009 C 
ATOM     23  H   UNL     1     142.975 164.983 192.916  0.00  0.00    +0.033 HD
BRANCH  22  24
ATOM     24  C   UNL     1     142.421 166.736 194.022  0.00  0.00    -0.059 C 
ATOM     25  H   UNL     1     142.863 167.669 194.387  0.00  0.00    +0.023 HD
ATOM     26  H   UNL     1     141.512 166.987 193.466  0.00  0.00    +0.023 HD
ATOM     27  H   UNL     1     142.135 166.160 194.908  0.00  0.00    +0.023 HD
ENDBRANCH  22  24
BRANCH  22  28
ATOM     28  C   UNL     1     144.684 165.698 193.957  0.00  0.00    -0.059 C 
ATOM     29  H   UNL     1     144.494 165.800 195.032  0.00  0.00    +0.023 HD
ATOM     30  H   UNL     1     145.488 166.385 193.676  0.00  0.00    +0.023 HD
ATOM     31  H   UNL     1     145.057 164.685 193.776  0.00  0.00    +0.023 HD
ENDBRANCH  22  28
ENDBRANCH  20  22
BRANCH  20  32
ATOM     32  O   UNL     1     143.533 168.112 191.987  0.00  0.00    -0.461 OA
BRANCH  32  33
ATOM     33  C   UNL     1     142.546 168.716 191.263  0.00  0.00    +0.307 C 
ATOM     34  O   UNL     1     141.553 168.162 190.814  0.00  0.00    -0.251 OA
BRANCH  33  35
ATOM     35  C   UNL     1     142.872 170.176 191.081  0.00  0.00    +0.042 C 
ATOM     36  H   UNL     1     141.993 170.683 190.671  0.00  0.00    +0.037 HD
ATOM     37  H   UNL     1     143.110 170.595 192.063  0.00  0.00    +0.037 HD
BRANCH  35  38
ATOM     38  C   UNL     1     144.045 170.385 190.139  0.00  0.00    -0.055 C 
ATOM     39  H   UNL     1     144.988 170.356 190.695  0.00  0.00    +0.023 HD
ATOM     40  H   UNL     1     143.969 171.352 189.630  0.00  0.00    +0.023 HD
ATOM     41  H   UNL     1     144.074 169.604 189.372  0.00  0.00    +0.023 HD
ENDBRANCH  35  38
ENDBRANCH  33  35
ENDBRANCH  32  33
ENDBRANCH  20  32
ENDBRANCH  17  20
ENDBRANCH  15  17
BRANCH  15  42
ATOM     42  O   UNL     1     144.581 166.277 189.025  0.00  0.00    -0.379 OA
BRANCH  42  43
ATOM     43  C   UNL     1     143.885 167.175 188.173  0.00  0.00    +0.037 C 
ATOM     44  H   UNL     1     143.173 166.601 187.573  0.00  0.00    +0.052 HD
ATOM     45  H   UNL     1     143.333 167.918 188.755  0.00  0.00    +0.052 HD
ATOM     46  H   UNL     1     144.577 167.683 187.497  0.00  0.00    +0.052 HD
ENDBRANCH  42  43
ENDBRANCH  15  42
ENDBRANCH   9  15
ENDBRANCH   6   9
ENDBRANCH   3   6
ENDBRANCH   1   3
BRANCH   1  47
ATOM     47  C   UNL     1     148.873 168.212 191.893  0.00  0.00    +0.020 C 
ATOM     48  H   UNL     1     148.735 167.341 191.236  0.00  0.00    +0.036 HD
BRANCH  47  49
ATOM     49  C   UNL     1     147.957 167.898 193.088  0.00  0.00    -0.057 C 
ATOM     50  H   UNL     1     148.279 166.999 193.625  0.00  0.00    +0.023 HD
ATOM     51  H   UNL     1     147.904 168.734 193.790  0.00  0.00    +0.023 HD
ATOM     52  H   UNL     1     146.934 167.705 192.744  0.00  0.00    +0.023 HD
ENDBRANCH  47  49
BRANCH  47  53
ATOM     53  C   UNL     1     150.385 168.241 192.254  0.00  0.00    +0.070 C 
ATOM     54  H   UNL     1     150.488 168.693 193.250  0.00  0.00    +0.061 HD
BRANCH  53  55
ATOM     55  C   UNL     1     151.221 166.927 192.285  0.00  0.00    +0.002 C 
ATOM     56  H   UNL     1     152.233 167.233 191.974  0.00  0.00    +0.037 HD
BRANCH  55  58
ATOM     57  C   UNL     1     150.339 165.611 194.221  0.00  0.00    -0.005 C 
ATOM     58  C   UNL     1     151.345 166.295 193.656  0.00  0.00    -0.065 C 
ATOM     59  H   UNL     1     149.413 165.492 193.658  0.00  0.00    +0.078 HD
ATOM     60  H   UNL     1     152.282 166.467 194.173  0.00  0.00    +0.059 HD
BRANCH  57  62
ATOM     61  C   UNL     1     150.947 163.842 195.827  0.00  0.00    +0.206 C 
ATOM     62  N   UNL     1     150.317 165.033 195.481  0.00  0.00    -0.281 N 
ATOM     63  O   UNL     1     150.981 163.352 196.951  0.00  0.00    -0.279 OA
ATOM     64  H   UNL     1     151.447 163.338 194.987  0.00  0.00    +0.126 HD
BRANCH  62  65
ATOM     65  C   UNL     1     149.628 165.763 196.553  0.00  0.00    +0.016 C 
ATOM     66  H   UNL     1     149.803 165.251 197.508  0.00  0.00    +0.047 HD
ATOM     67  H   UNL     1     150.065 166.764 196.650  0.00  0.00    +0.047 HD
BRANCH  65  68
ATOM     68  C   UNL     1     148.136 165.895 196.285  0.00  0.00    -0.049 C 
ATOM     69  H   UNL     1     147.910 166.886 195.878  0.00  0.00    +0.024 HD
ATOM     70  H   UNL     1     147.554 165.762 197.205  0.00  0.00    +0.024 HD
ATOM     71  H   UNL     1     147.798 165.145 195.564  0.00  0.00    +0.024 HD
ENDBRANCH  65  68
ENDBRANCH  62  65
ENDBRANCH  57  62
ENDBRANCH  55  58
BRANCH  55  72
ATOM     72  C   UNL     1     150.832 165.862 191.255  0.00  0.00    -0.057 C 
ATOM     73  H   UNL     1     150.343 165.015 191.752  0.00  0.00    +0.024 HD
ATOM     74  H   UNL     1     151.708 165.466 190.732  0.00  0.00    +0.024 HD
ATOM     75  H   UNL     1     150.121 166.239 190.515  0.00  0.00    +0.024 HD
ENDBRANCH  55  72
ENDBRANCH  53  55
BRANCH  53  76
ATOM     76  O   UNL     1     151.065 169.111 191.317  0.00  0.00    -0.379 OA
BRANCH  76  77
ATOM     77  C   UNL     1     151.935 170.053 191.936  0.00  0.00    +0.037 C 
ATOM     78  H   UNL     1     152.511 169.577 192.734  0.00  0.00    +0.052 HD
ATOM     79  H   UNL     1     152.633 170.421 191.180  0.00  0.00    +0.052 HD
ATOM     80  H   UNL     1     151.376 170.905 192.331  0.00  0.00    +0.052 HD
ENDBRANCH  76  77
ENDBRANCH  53  76
ENDBRANCH  47  53
ENDBRANCH   1  47
BRANCH   1  81
ATOM     81  O   UNL     1     147.470 170.174 191.974  0.00  0.00    -0.461 OA
BRANCH  81  82
ATOM     82  C   UNL     1     147.477 171.531 191.855  0.00  0.00    +0.310 C 
ATOM     83  O   UNL     1     146.481 172.237 191.766  0.00  0.00    -0.251 OA
BRANCH  82  84
ATOM     84  C   UNL     1     148.891 172.077 191.857  0.00  0.00    +0.051 C 
ATOM     85  H   UNL     1     149.536 171.284 191.456  0.00  0.00    +0.041 HD
BRANCH  84  86
ATOM     86  C   UNL     1     149.006 173.292 190.943  0.00  0.00    -0.053 C 
ATOM     87  H   UNL     1     149.414 174.150 191.487  0.00  0.00    +0.024 HD
ATOM     88  H   UNL     1     148.024 173.572 190.549  0.00  0.00    +0.024 HD
ATOM     89  H   UNL     1     149.668 173.094 190.093  0.00  0.00    +0.024 HD
ENDBRANCH  84  86
BRANCH  84  90
ATOM     90  C   UNL     1     149.352 172.384 193.276  0.00  0.00    -0.053 C 
ATOM     91  H   UNL     1     148.494 172.516 193.945  0.00  0.00    +0.024 HD
ATOM     92  H   UNL     1     149.947 173.302 193.319  0.00  0.00    +0.024 HD
ATOM     93  H   UNL     1     149.966 171.567 193.670  0.00  0.00    +0.024 HD
ENDBRANCH  84  90
ENDBRANCH  82  84
ENDBRANCH  81  82
ENDBRANCH   1  81
TORSDOF 32
ENDMDL
MODEL 2
REMARK VINA RESULT:      -5.0      2.473      5.460
REMARK  Name = 2c_conf3
REMARK  32 active torsions:
REMARK  status: ('A' for Active; 'I' for Inactive)
REMARK    1  A    between atoms: N_2  and  C_3
REMARK    2  A    between atoms: N_2  and  C_5
REMARK    3  A    between atoms: C_3  and  C_4
REMARK    4  A    between atoms: C_6  and  C_7
REMARK    5  A    between atoms: C_7  and  C_8
REMARK    6  A    between atoms: C_7  and  C_9
REMARK    7  A    between atoms: C_9  and  O_10
REMARK    8  A    between atoms: C_9  and  C_12
REMARK    9  A    between atoms: O_10  and  C_11
REMARK   10  A    between atoms: C_12  and  C_13
REMARK   11  A    between atoms: C_12  and  C_14
REMARK   12  A    between atoms: C_14  and  O_15
REMARK   13  A    between atoms: C_14  and  C_21
REMARK   14  A    between atoms: O_15  and  C_16
REMARK   15  A    between atoms: C_16  and  C_17
REMARK   16  A    between atoms: C_17  and  C_18
REMARK   17  A    between atoms: C_17  and  C_19
REMARK   18  A    between atoms: C_21  and  C_22
REMARK   19  A    between atoms: C_22  and  C_23
REMARK   20  A    between atoms: C_23  and  C_24
REMARK   21  A    between atoms: C_23  and  C_25
REMARK   22  A    between atoms: C_25  and  O_26
REMARK   23  A    between atoms: C_25  and  C_28
REMARK   24  A    between atoms: O_26  and  C_27
REMARK   25  A    between atoms: C_28  and  C_29
REMARK   26  A    between atoms: C_29  and  O_30
REMARK   27  A    between atoms: C_29  and  C_35
REMARK   28  A    between atoms: O_30  and  C_31
REMARK   29  A    between atoms: C_31  and  C_32
REMARK   30  A    between atoms: C_32  and  C_33
REMARK   31  A    between atoms: C_35  and  C_36
REMARK   32  A    between atoms: C_35  and  C_37
REMARK                            x       y       z     vdW  Elec       q    Type
REMARK                         _______ _______ _______ _____ _____    ______ ____
ROOT
ATOM      1  C   UNL     1     150.810 165.775 189.196  0.00  0.00    +0.108 C 
ATOM      2  H   UNL     1     151.084 164.762 189.498  0.00  0.00    +0.074 HD
ENDROOT
BRANCH   1   3
ATOM      3  C   UNL     1     149.429 166.114 189.804  0.00  0.00    -0.015 C 
ATOM      4  H   UNL     1     148.649 165.568 189.263  0.00  0.00    +0.030 HD
ATOM      5  H   UNL     1     149.414 165.761 190.842  0.00  0.00    +0.030 HD
BRANCH   3   6
ATOM      6  C   UNL     1     149.108 167.617 189.808  0.00  0.00    -0.045 C 
ATOM      7  H   UNL     1     149.552 168.046 190.716  0.00  0.00    +0.027 HD
ATOM      8  H   UNL     1     149.628 168.095 188.975  0.00  0.00    +0.027 HD
BRANCH   6   9
ATOM      9  C   UNL     1     147.610 168.010 189.826  0.00  0.00    -0.017 C 
ATOM     10  H   UNL     1     147.047 167.070 189.718  0.00  0.00    +0.032 HD
BRANCH   9  11
ATOM     11  C   UNL     1     147.208 168.849 188.607  0.00  0.00    -0.060 C 
ATOM     12  H   UNL     1     146.225 168.551 188.227  0.00  0.00    +0.023 HD
ATOM     13  H   UNL     1     147.917 168.705 187.785  0.00  0.00    +0.023 HD
ATOM     14  H   UNL     1     147.169 169.916 188.846  0.00  0.00    +0.023 HD
ENDBRANCH   9  11
BRANCH   9  15
ATOM     15  C   UNL     1     147.134 168.638 191.176  0.00  0.00    +0.064 C 
ATOM     16  H   UNL     1     146.397 169.429 190.988  0.00  0.00    +0.060 HD
BRANCH  15  17
ATOM     17  C   UNL     1     148.335 169.218 191.963  0.00  0.00    +0.011 C 
ATOM     18  H   UNL     1     148.388 168.692 192.923  0.00  0.00    +0.033 HD
ATOM     19  H   UNL     1     149.258 169.001 191.416  0.00  0.00    +0.033 HD
BRANCH  17  20
ATOM     20  C   UNL     1     148.285 170.734 192.245  0.00  0.00    +0.108 C 
ATOM     21  H   UNL     1     147.717 170.905 193.168  0.00  0.00    +0.074 HD
BRANCH  20  22
ATOM     22  C   UNL     1     149.716 171.329 192.408  0.00  0.00    -0.009 C 
ATOM     23  H   UNL     1     149.933 171.950 191.529  0.00  0.00    +0.033 HD
BRANCH  22  24
ATOM     24  C   UNL     1     150.796 170.246 192.505  0.00  0.00    -0.059 C 
ATOM     25  H   UNL     1     151.780 170.647 192.242  0.00  0.00    +0.023 HD
ATOM     26  H   UNL     1     150.857 169.839 193.520  0.00  0.00    +0.023 HD
ATOM     27  H   UNL     1     150.603 169.420 191.813  0.00  0.00    +0.023 HD
ENDBRANCH  22  24
BRANCH  22  28
ATOM     28  C   UNL     1     149.832 172.247 193.630  0.00  0.00    -0.059 C 
ATOM     29  H   UNL     1     148.859 172.386 194.114  0.00  0.00    +0.023 HD
ATOM     30  H   UNL     1     150.231 173.228 193.356  0.00  0.00    +0.023 HD
ATOM     31  H   UNL     1     150.518 171.823 194.372  0.00  0.00    +0.023 HD
ENDBRANCH  22  28
ENDBRANCH  20  22
BRANCH  20  32
ATOM     32  O   UNL     1     147.646 171.365 191.112  0.00  0.00    -0.461 OA
BRANCH  32  33
ATOM     33  C   UNL     1     146.633 172.239 191.380  0.00  0.00    +0.307 C 
ATOM     34  O   UNL     1     146.700 173.195 192.140  0.00  0.00    -0.251 OA
BRANCH  33  35
ATOM     35  C   UNL     1     145.402 171.841 190.607  0.00  0.00    +0.042 C 
ATOM     36  H   UNL     1     145.205 170.779 190.784  0.00  0.00    +0.037 HD
ATOM     37  H   UNL     1     144.562 172.436 190.977  0.00  0.00    +0.037 HD
BRANCH  35  38
ATOM     38  C   UNL     1     145.570 172.067 189.114  0.00  0.00    -0.055 C 
ATOM     39  H   UNL     1     145.562 171.110 188.582  0.00  0.00    +0.023 HD
ATOM     40  H   UNL     1     146.516 172.577 188.901  0.00  0.00    +0.023 HD
ATOM     41  H   UNL     1     144.758 172.687 188.718  0.00  0.00    +0.023 HD
ENDBRANCH  35  38
ENDBRANCH  33  35
ENDBRANCH  32  33
ENDBRANCH  20  32
ENDBRANCH  17  20
ENDBRANCH  15  17
BRANCH  15  42
ATOM     42  O   UNL     1     146.572 167.589 191.978  0.00  0.00    -0.379 OA
BRANCH  42  43
ATOM     43  C   UNL     1     145.463 166.943 191.372  0.00  0.00    +0.037 C 
ATOM     44  H   UNL     1     144.936 166.368 192.139  0.00  0.00    +0.052 HD
ATOM     45  H   UNL     1     144.771 167.672 190.944  0.00  0.00    +0.052 HD
ATOM     46  H   UNL     1     145.795 166.254 190.590  0.00  0.00    +0.052 HD
ENDBRANCH  42  43
ENDBRANCH  15  42
ENDBRANCH   9  15
ENDBRANCH   6   9
ENDBRANCH   3   6
ENDBRANCH   1   3
BRANCH   1  47
ATOM     47  C   UNL     1     151.921 166.766 189.633  0.00  0.00    +0.020 C 
ATOM     48  H   UNL     1     151.394 167.680 189.945  0.00  0.00    +0.036 HD
BRANCH  47  49
ATOM     49  C   UNL     1     152.749 167.235 188.425  0.00  0.00    -0.057 C 
ATOM     50  H   UNL     1     153.220 166.396 187.902  0.00  0.00    +0.023 HD
ATOM     51  H   UNL     1     152.145 167.805 187.714  0.00  0.00    +0.023 HD
ATOM     52  H   UNL     1     153.563 167.893 188.752  0.00  0.00    +0.023 HD
ENDBRANCH  47  49
BRANCH  47  53
ATOM     53  C   UNL     1     152.782 166.332 190.853  0.00  0.00    +0.070 C 
ATOM     54  H   UNL     1     153.812 166.670 190.679  0.00  0.00    +0.061 HD
BRANCH  53  55
ATOM     55  C   UNL     1     152.411 166.793 192.293  0.00  0.00    +0.002 C 
ATOM     56  H   UNL     1     152.034 167.821 192.168  0.00  0.00    +0.037 HD
BRANCH  55  58
ATOM     57  C   UNL     1     150.354 166.556 193.696  0.00  0.00    -0.005 C 
ATOM     58  C   UNL     1     151.309 165.986 192.947  0.00  0.00    -0.065 C 
ATOM     59  H   UNL     1     150.366 167.640 193.814  0.00  0.00    +0.078 HD
ATOM     60  H   UNL     1     151.364 164.913 192.809  0.00  0.00    +0.059 HD
BRANCH  57  62
ATOM     61  C   UNL     1     148.223 165.321 193.788  0.00  0.00    +0.206 C 
ATOM     62  N   UNL     1     149.328 165.921 194.381  0.00  0.00    -0.281 N 
ATOM     63  O   UNL     1     147.340 164.708 194.380  0.00  0.00    -0.279 OA
ATOM     64  H   UNL     1     148.184 165.429 192.695  0.00  0.00    +0.126 HD
BRANCH  62  65
ATOM     65  C   UNL     1     149.446 165.817 195.840  0.00  0.00    +0.016 C 
ATOM     66  H   UNL     1     149.594 166.818 196.263  0.00  0.00    +0.047 HD
ATOM     67  H   UNL     1     148.505 165.436 196.255  0.00  0.00    +0.047 HD
BRANCH  65  68
ATOM     68  C   UNL     1     150.582 164.891 196.255  0.00  0.00    -0.049 C 
ATOM     69  H   UNL     1     150.586 164.760 197.343  0.00  0.00    +0.024 HD
ATOM     70  H   UNL     1     151.555 165.298 195.956  0.00  0.00    +0.024 HD
ATOM     71  H   UNL     1     150.474 163.905 195.793  0.00  0.00    +0.024 HD
ENDBRANCH  65  68
ENDBRANCH  62  65
ENDBRANCH  57  62
ENDBRANCH  55  58
BRANCH  55  72
ATOM     72  C   UNL     1     153.583 166.954 193.267  0.00  0.00    -0.057 C 
ATOM     73  H   UNL     1     154.258 167.747 192.921  0.00  0.00    +0.024 HD
ATOM     74  H   UNL     1     154.176 166.038 193.343  0.00  0.00    +0.024 HD
ATOM     75  H   UNL     1     153.254 167.244 194.269  0.00  0.00    +0.024 HD
ENDBRANCH  55  72
ENDBRANCH  53  55
BRANCH  53  76
ATOM     76  O   UNL     1     152.810 164.885 190.904  0.00  0.00    -0.379 OA
BRANCH  76  77
ATOM     77  C   UNL     1     154.011 164.316 190.395  0.00  0.00    +0.037 C 
ATOM     78  H   UNL     1     153.985 163.226 190.478  0.00  0.00    +0.052 HD
ATOM     79  H   UNL     1     154.092 164.579 189.337  0.00  0.00    +0.052 HD
ATOM     80  H   UNL     1     154.887 164.712 190.914  0.00  0.00    +0.052 HD
ENDBRANCH  76  77
ENDBRANCH  53  76
ENDBRANCH  47  53
ENDBRANCH   1  47
BRANCH   1  81
ATOM     81  O   UNL     1     150.711 165.860 187.753  0.00  0.00    -0.461 OA
BRANCH  81  82
ATOM     82  C   UNL     1     149.821 165.029 187.141  0.00  0.00    +0.310 C 
ATOM     83  O   UNL     1     149.756 163.817 187.308  0.00  0.00    -0.251 OA
BRANCH  82  84
ATOM     84  C   UNL     1     148.894 165.796 186.220  0.00  0.00    +0.051 C 
ATOM     85  H   UNL     1     149.002 165.351 185.222  0.00  0.00    +0.041 HD
BRANCH  84  86
ATOM     86  C   UNL     1     147.441 165.640 186.656  0.00  0.00    -0.053 C 
ATOM     87  H   UNL     1     146.768 165.697 185.795  0.00  0.00    +0.024 HD
ATOM     88  H   UNL     1     147.163 166.430 187.361  0.00  0.00    +0.024 HD
ATOM     89  H   UNL     1     147.271 164.674 187.145  0.00  0.00    +0.024 HD
ENDBRANCH  84  86
BRANCH  84  90
ATOM     90  C   UNL     1     149.309 167.259 186.129  0.00  0.00    -0.053 C 
ATOM     91  H   UNL     1     148.520 167.860 185.662  0.00  0.00    +0.024 HD
ATOM     92  H   UNL     1     150.216 167.386 185.530  0.00  0.00    +0.024 HD
ATOM     93  H   UNL     1     149.503 167.670 187.125  0.00  0.00    +0.024 HD
ENDBRANCH  84  90
ENDBRANCH  82  84
ENDBRANCH  81  82
ENDBRANCH   1  81
TORSDOF 32
ENDMDL
MODEL 3
REMARK VINA RESULT:      -5.0      3.406      7.784
REMARK  Name = 2c_conf3
REMARK  32 active torsions:
REMARK  status: ('A' for Active; 'I' for Inactive)
REMARK    1  A    between atoms: N_2  and  C_3
REMARK    2  A    between atoms: N_2  and  C_5
REMARK    3  A    between atoms: C_3  and  C_4
REMARK    4  A    between atoms: C_6  and  C_7
REMARK    5  A    between atoms: C_7  and  C_8
REMARK    6  A    between atoms: C_7  and  C_9
REMARK    7  A    between atoms: C_9  and  O_10
REMARK    8  A    between atoms: C_9  and  C_12
REMARK    9  A    between atoms: O_10  and  C_11
REMARK   10  A    between atoms: C_12  and  C_13
REMARK   11  A    between atoms: C_12  and  C_14
REMARK   12  A    between atoms: C_14  and  O_15
REMARK   13  A    between atoms: C_14  and  C_21
REMARK   14  A    between atoms: O_15  and  C_16
REMARK   15  A    between atoms: C_16  and  C_17
REMARK   16  A    between atoms: C_17  and  C_18
REMARK   17  A    between atoms: C_17  and  C_19
REMARK   18  A    between atoms: C_21  and  C_22
REMARK   19  A    between atoms: C_22  and  C_23
REMARK   20  A    between atoms: C_23  and  C_24
REMARK   21  A    between atoms: C_23  and  C_25
REMARK   22  A    between atoms: C_25  and  O_26
REMARK   23  A    between atoms: C_25  and  C_28
REMARK   24  A    between atoms: O_26  and  C_27
REMARK   25  A    between atoms: C_28  and  C_29
REMARK   26  A    between atoms: C_29  and  O_30
REMARK   27  A    between atoms: C_29  and  C_35
REMARK   28  A    between atoms: O_30  and  C_31
REMARK   29  A    between atoms: C_31  and  C_32
REMARK   30  A    between atoms: C_32  and  C_33
REMARK   31  A    between atoms: C_35  and  C_36
REMARK   32  A    between atoms: C_35  and  C_37
REMARK                            x       y       z     vdW  Elec       q    Type
REMARK                         _______ _______ _______ _____ _____    ______ ____
ROOT
ATOM      1  C   UNL     1     147.618 169.998 191.413  0.00  0.00    +0.108 C 
ATOM      2  H   UNL     1     147.048 170.579 192.142  0.00  0.00    +0.074 HD
ENDROOT
BRANCH   1   3
ATOM      3  C   UNL     1     148.348 168.855 192.157  0.00  0.00    -0.015 C 
ATOM      4  H   UNL     1     148.354 169.065 193.231  0.00  0.00    +0.030 HD
ATOM      5  H   UNL     1     147.778 167.930 192.009  0.00  0.00    +0.030 HD
BRANCH   3   6
ATOM      6  C   UNL     1     149.783 168.615 191.662  0.00  0.00    -0.045 C 
ATOM      7  H   UNL     1     149.983 169.345 190.867  0.00  0.00    +0.027 HD
ATOM      8  H   UNL     1     150.483 168.857 192.465  0.00  0.00    +0.027 HD
BRANCH   6   9
ATOM      9  C   UNL     1     150.089 167.220 191.061  0.00  0.00    -0.017 C 
ATOM     10  H   UNL     1     150.634 167.405 190.122  0.00  0.00    +0.032 HD
BRANCH   9  11
ATOM     11  C   UNL     1     148.819 166.474 190.634  0.00  0.00    -0.060 C 
ATOM     12  H   UNL     1     147.919 167.026 190.925  0.00  0.00    +0.023 HD
ATOM     13  H   UNL     1     148.758 165.498 191.126  0.00  0.00    +0.023 HD
ATOM     14  H   UNL     1     148.786 166.319 189.551  0.00  0.00    +0.023 HD
ENDBRANCH   9  11
BRANCH   9  15
ATOM     15  C   UNL     1     151.040 166.345 191.939  0.00  0.00    +0.064 C 
ATOM     16  H   UNL     1     150.807 165.280 191.805  0.00  0.00    +0.060 HD
BRANCH  15  17
ATOM     17  C   UNL     1     150.907 166.724 193.434  0.00  0.00    +0.011 C 
ATOM     18  H   UNL     1     151.915 166.747 193.862  0.00  0.00    +0.033 HD
ATOM     19  H   UNL     1     150.493 167.734 193.511  0.00  0.00    +0.033 HD
BRANCH  17  20
ATOM     20  C   UNL     1     150.040 165.779 194.293  0.00  0.00    +0.108 C 
ATOM     21  H   UNL     1     149.981 164.802 193.797  0.00  0.00    +0.074 HD
BRANCH  20  22
ATOM     22  C   UNL     1     150.645 165.592 195.718  0.00  0.00    -0.009 C 
ATOM     23  H   UNL     1     151.575 166.172 195.776  0.00  0.00    +0.033 HD
BRANCH  22  24
ATOM     24  C   UNL     1     150.974 164.128 196.030  0.00  0.00    -0.059 C 
ATOM     25  H   UNL     1     150.976 163.523 195.118  0.00  0.00    +0.023 HD
ATOM     26  H   UNL     1     151.959 164.036 196.500  0.00  0.00    +0.023 HD
ATOM     27  H   UNL     1     150.231 163.682 196.698  0.00  0.00    +0.023 HD
ENDBRANCH  22  24
BRANCH  22  28
ATOM     28  C   UNL     1     149.724 166.132 196.819  0.00  0.00    -0.059 C 
ATOM     29  H   UNL     1     148.836 166.611 196.392  0.00  0.00    +0.023 HD
ATOM     30  H   UNL     1     150.243 166.858 197.452  0.00  0.00    +0.023 HD
ATOM     31  H   UNL     1     149.387 165.324 197.476  0.00  0.00    +0.023 HD
ENDBRANCH  22  28
ENDBRANCH  20  22
BRANCH  20  32
ATOM     32  O   UNL     1     148.734 166.384 194.419  0.00  0.00    -0.461 OA
BRANCH  32  33
ATOM     33  C   UNL     1     147.663 165.628 194.040  0.00  0.00    +0.307 C 
ATOM     34  O   UNL     1     147.704 164.451 193.710  0.00  0.00    -0.251 OA
BRANCH  33  35
ATOM     35  C   UNL     1     146.412 166.469 194.072  0.00  0.00    +0.042 C 
ATOM     36  H   UNL     1     145.787 166.134 194.905  0.00  0.00    +0.037 HD
ATOM     37  H   UNL     1     146.708 167.509 194.232  0.00  0.00    +0.037 HD
BRANCH  35  38
ATOM     38  C   UNL     1     145.617 166.355 192.784  0.00  0.00    -0.055 C 
ATOM     39  H   UNL     1     144.735 167.004 192.822  0.00  0.00    +0.023 HD
ATOM     40  H   UNL     1     145.284 165.324 192.620  0.00  0.00    +0.023 HD
ATOM     41  H   UNL     1     146.224 166.651 191.921  0.00  0.00    +0.023 HD
ENDBRANCH  35  38
ENDBRANCH  33  35
ENDBRANCH  32  33
ENDBRANCH  20  32
ENDBRANCH  17  20
ENDBRANCH  15  17
BRANCH  15  42
ATOM     42  O   UNL     1     152.391 166.631 191.551  0.00  0.00    -0.379 OA
BRANCH  42  43
ATOM     43  C   UNL     1     153.288 166.734 192.647  0.00  0.00    +0.037 C 
ATOM     44  H   UNL     1     152.854 167.416 193.385  0.00  0.00    +0.052 HD
ATOM     45  H   UNL     1     153.442 165.761 193.119  0.00  0.00    +0.052 HD
ATOM     46  H   UNL     1     154.250 167.140 192.325  0.00  0.00    +0.052 HD
ENDBRANCH  42  43
ENDBRANCH  15  42
ENDBRANCH   9  15
ENDBRANCH   6   9
ENDBRANCH   3   6
ENDBRANCH   1   3
BRANCH   1  47
ATOM     47  C   UNL     1     146.667 169.483 190.301  0.00  0.00    +0.020 C 
ATOM     48  H   UNL     1     146.468 168.430 190.547  0.00  0.00    +0.036 HD
BRANCH  47  49
ATOM     49  C   UNL     1     147.395 169.394 188.949  0.00  0.00    -0.057 C 
ATOM     50  H   UNL     1     146.699 169.450 188.105  0.00  0.00    +0.023 HD
ATOM     51  H   UNL     1     148.150 170.177 188.842  0.00  0.00    +0.023 HD
ATOM     52  H   UNL     1     147.917 168.434 188.859  0.00  0.00    +0.023 HD
ENDBRANCH  47  49
BRANCH  47  53
ATOM     53  C   UNL     1     145.276 170.173 190.218  0.00  0.00    +0.070 C 
ATOM     54  H   UNL     1     144.707 169.901 191.117  0.00  0.00    +0.061 HD
BRANCH  53  55
ATOM     55  C   UNL     1     145.163 171.721 190.087  0.00  0.00    +0.002 C 
ATOM     56  H   UNL     1     146.137 172.102 190.436  0.00  0.00    +0.037 HD
BRANCH  55  58
ATOM     57  C   UNL     1     145.993 172.635 187.911  0.00  0.00    -0.005 C 
ATOM     58  C   UNL     1     144.969 172.218 188.669  0.00  0.00    -0.065 C 
ATOM     59  H   UNL     1     146.999 172.588 188.328  0.00  0.00    +0.078 HD
ATOM     60  H   UNL     1     143.943 172.260 188.320  0.00  0.00    +0.059 HD
BRANCH  57  62
ATOM     61  C   UNL     1     146.211 174.472 186.281  0.00  0.00    +0.206 C 
ATOM     62  N   UNL     1     145.934 173.153 186.626  0.00  0.00    -0.281 N 
ATOM     63  O   UNL     1     146.216 174.926 185.141  0.00  0.00    -0.279 OA
ATOM     64  H   UNL     1     146.442 175.122 187.137  0.00  0.00    +0.126 HD
BRANCH  62  65
ATOM     65  C   UNL     1     145.616 172.227 185.532  0.00  0.00    +0.016 C 
ATOM     66  H   UNL     1     144.599 171.838 185.673  0.00  0.00    +0.047 HD
ATOM     67  H   UNL     1     145.614 172.774 184.581  0.00  0.00    +0.047 HD
BRANCH  65  68
ATOM     68  C   UNL     1     146.616 171.083 185.445  0.00  0.00    -0.049 C 
ATOM     69  H   UNL     1     146.971 170.812 186.445  0.00  0.00    +0.024 HD
ATOM     70  H   UNL     1     147.485 171.362 184.837  0.00  0.00    +0.024 HD
ATOM     71  H   UNL     1     146.162 170.197 184.992  0.00  0.00    +0.024 HD
ENDBRANCH  65  68
ENDBRANCH  62  65
ENDBRANCH  57  62
ENDBRANCH  55  58
BRANCH  55  72
ATOM     72  C   UNL     1     144.154 172.401 191.017  0.00  0.00    -0.057 C 
ATOM     73  H   UNL     1     143.178 172.483 190.523  0.00  0.00    +0.024 HD
ATOM     74  H   UNL     1     144.466 173.415 191.283  0.00  0.00    +0.024 HD
ATOM     75  H   UNL     1     143.988 171.832 191.937  0.00  0.00    +0.024 HD
ENDBRANCH  55  72
ENDBRANCH  53  55
BRANCH  53  76
ATOM     76  O   UNL     1     144.562 169.634 189.080  0.00  0.00    -0.379 OA
BRANCH  76  77
ATOM     77  C   UNL     1     143.576 168.668 189.427  0.00  0.00    +0.037 C 
ATOM     78  H   UNL     1     143.308 168.062 188.556  0.00  0.00    +0.052 HD
ATOM     79  H   UNL     1     143.998 168.008 190.189  0.00  0.00    +0.052 HD
ATOM     80  H   UNL     1     142.685 169.145 189.842  0.00  0.00    +0.052 HD
ENDBRANCH  76  77
ENDBRANCH  53  76
ENDBRANCH  47  53
ENDBRANCH   1  47
BRANCH   1  81
ATOM     81  O   UNL     1     148.610 170.834 190.768  0.00  0.00    -0.461 OA
BRANCH  81  82
ATOM     82  C   UNL     1     148.685 172.134 191.170  0.00  0.00    +0.310 C 
ATOM     83  O   UNL     1     149.020 173.074 190.461  0.00  0.00    -0.251 OA
BRANCH  82  84
ATOM     84  C   UNL     1     148.284 172.285 192.624  0.00  0.00    +0.051 C 
ATOM     85  H   UNL     1     147.803 171.342 192.917  0.00  0.00    +0.041 HD
BRANCH  84  86
ATOM     86  C   UNL     1     149.510 172.490 193.507  0.00  0.00    -0.053 C 
ATOM     87  H   UNL     1     149.214 172.677 194.544  0.00  0.00    +0.024 HD
ATOM     88  H   UNL     1     150.097 173.346 193.159  0.00  0.00    +0.024 HD
ATOM     89  H   UNL     1     150.160 171.608 193.502  0.00  0.00    +0.024 HD
ENDBRANCH  84  86
BRANCH  84  90
ATOM     90  C   UNL     1     147.265 173.405 192.792  0.00  0.00    -0.053 C 
ATOM     91  H   UNL     1     147.160 173.979 191.865  0.00  0.00    +0.024 HD
ATOM     92  H   UNL     1     147.559 174.105 193.581  0.00  0.00    +0.024 HD
ATOM     93  H   UNL     1     146.282 172.999 193.053  0.00  0.00    +0.024 HD
ENDBRANCH  84  90
ENDBRANCH  82  84
ENDBRANCH  81  82
ENDBRANCH   1  81
TORSDOF 32
ENDMDL
MODEL 4
REMARK VINA RESULT:      -4.9      2.555      7.140
REMARK  Name = 2c_conf3
REMARK  32 active torsions:
REMARK  status: ('A' for Active; 'I' for Inactive)
REMARK    1  A    between atoms: N_2  and  C_3
REMARK    2  A    between atoms: N_2  and  C_5
REMARK    3  A    between atoms: C_3  and  C_4
REMARK    4  A    between atoms: C_6  and  C_7
REMARK    5  A    between atoms: C_7  and  C_8
REMARK    6  A    between atoms: C_7  and  C_9
REMARK    7  A    between atoms: C_9  and  O_10
REMARK    8  A    between atoms: C_9  and  C_12
REMARK    9  A    between atoms: O_10  and  C_11
REMARK   10  A    between atoms: C_12  and  C_13
REMARK   11  A    between atoms: C_12  and  C_14
REMARK   12  A    between atoms: C_14  and  O_15
REMARK   13  A    between atoms: C_14  and  C_21
REMARK   14  A    between atoms: O_15  and  C_16
REMARK   15  A    between atoms: C_16  and  C_17
REMARK   16  A    between atoms: C_17  and  C_18
REMARK   17  A    between atoms: C_17  and  C_19
REMARK   18  A    between atoms: C_21  and  C_22
REMARK   19  A    between atoms: C_22  and  C_23
REMARK   20  A    between atoms: C_23  and  C_24
REMARK   21  A    between atoms: C_23  and  C_25
REMARK   22  A    between atoms: C_25  and  O_26
REMARK   23  A    between atoms: C_25  and  C_28
REMARK   24  A    between atoms: O_26  and  C_27
REMARK   25  A    between atoms: C_28  and  C_29
REMARK   26  A    between atoms: C_29  and  O_30
REMARK   27  A    between atoms: C_29  and  C_35
REMARK   28  A    between atoms: O_30  and  C_31
REMARK   29  A    between atoms: C_31  and  C_32
REMARK   30  A    between atoms: C_32  and  C_33
REMARK   31  A    between atoms: C_35  and  C_36
REMARK   32  A    between atoms: C_35  and  C_37
REMARK                            x       y       z     vdW  Elec       q    Type
REMARK                         _______ _______ _______ _____ _____    ______ ____
ROOT
ATOM      1  C   UNL     1     147.636 169.435 191.473  0.00  0.00    +0.108 C 
ATOM      2  H   UNL     1     146.797 169.804 192.067  0.00  0.00    +0.074 HD
ENDROOT
BRANCH   1   3
ATOM      3  C   UNL     1     148.659 168.771 192.424  0.00  0.00    -0.015 C 
ATOM      4  H   UNL     1     149.006 169.506 193.157  0.00  0.00    +0.030 HD
ATOM      5  H   UNL     1     148.146 167.975 192.978  0.00  0.00    +0.030 HD
BRANCH   3   6
ATOM      6  C   UNL     1     149.861 168.147 191.698  0.00  0.00    -0.045 C 
ATOM      7  H   UNL     1     149.814 167.062 191.855  0.00  0.00    +0.027 HD
ATOM      8  H   UNL     1     149.743 168.293 190.622  0.00  0.00    +0.027 HD
BRANCH   6   9
ATOM      9  C   UNL     1     151.268 168.595 192.168  0.00  0.00    -0.017 C 
ATOM     10  H   UNL     1     151.222 168.644 193.267  0.00  0.00    +0.032 HD
BRANCH   9  11
ATOM     11  C   UNL     1     151.606 170.025 191.727  0.00  0.00    -0.060 C 
ATOM     12  H   UNL     1     151.471 170.735 192.550  0.00  0.00    +0.023 HD
ATOM     13  H   UNL     1     150.941 170.351 190.921  0.00  0.00    +0.023 HD
ATOM     14  H   UNL     1     152.640 170.106 191.377  0.00  0.00    +0.023 HD
ENDBRANCH   9  11
BRANCH   9  15
ATOM     15  C   UNL     1     152.404 167.574 191.835  0.00  0.00    +0.064 C 
ATOM     16  H   UNL     1     153.111 168.014 191.120  0.00  0.00    +0.060 HD
BRANCH  15  17
ATOM     17  C   UNL     1     151.812 166.269 191.249  0.00  0.00    +0.011 C 
ATOM     18  H   UNL     1     152.045 165.457 191.945  0.00  0.00    +0.033 HD
ATOM     19  H   UNL     1     150.721 166.361 191.202  0.00  0.00    +0.033 HD
BRANCH  17  20
ATOM     20  C   UNL     1     152.323 165.867 189.849  0.00  0.00    +0.108 C 
ATOM     21  H   UNL     1     151.899 164.891 189.583  0.00  0.00    +0.074 HD
BRANCH  20  22
ATOM     22  C   UNL     1     151.910 166.915 188.772  0.00  0.00    -0.009 C 
ATOM     23  H   UNL     1     151.900 167.907 189.242  0.00  0.00    +0.033 HD
BRANCH  22  24
ATOM     24  C   UNL     1     150.517 166.646 188.193  0.00  0.00    -0.059 C 
ATOM     25  H   UNL     1     150.015 165.839 188.736  0.00  0.00    +0.023 HD
ATOM     26  H   UNL     1     149.885 167.538 188.254  0.00  0.00    +0.023 HD
ATOM     27  H   UNL     1     150.569 166.331 187.146  0.00  0.00    +0.023 HD
ENDBRANCH  22  24
BRANCH  22  28
ATOM     28  C   UNL     1     152.914 166.991 187.615  0.00  0.00    -0.059 C 
ATOM     29  H   UNL     1     152.781 167.910 187.035  0.00  0.00    +0.023 HD
ATOM     30  H   UNL     1     152.813 166.134 186.942  0.00  0.00    +0.023 HD
ATOM     31  H   UNL     1     153.943 166.977 187.991  0.00  0.00    +0.023 HD
ENDBRANCH  22  28
ENDBRANCH  20  22
BRANCH  20  32
ATOM     32  O   UNL     1     153.766 165.812 189.914  0.00  0.00    -0.461 OA
BRANCH  32  33
ATOM     33  C   UNL     1     154.335 164.574 189.990  0.00  0.00    +0.307 C 
ATOM     34  O   UNL     1     153.728 163.514 190.048  0.00  0.00    -0.251 OA
BRANCH  33  35
ATOM     35  C   UNL     1     155.836 164.707 190.009  0.00  0.00    +0.042 C 
ATOM     36  H   UNL     1     156.226 164.153 190.869  0.00  0.00    +0.037 HD
ATOM     37  H   UNL     1     156.227 164.270 189.086  0.00  0.00    +0.037 HD
BRANCH  35  38
ATOM     38  C   UNL     1     156.278 166.156 190.116  0.00  0.00    -0.055 C 
ATOM     39  H   UNL     1     155.407 166.814 190.205  0.00  0.00    +0.023 HD
ATOM     40  H   UNL     1     156.853 166.455 189.232  0.00  0.00    +0.023 HD
ATOM     41  H   UNL     1     156.914 166.308 190.996  0.00  0.00    +0.023 HD
ENDBRANCH  35  38
ENDBRANCH  33  35
ENDBRANCH  32  33
ENDBRANCH  20  32
ENDBRANCH  17  20
ENDBRANCH  15  17
BRANCH  15  42
ATOM     42  O   UNL     1     153.059 167.225 193.062  0.00  0.00    -0.379 OA
BRANCH  42  43
ATOM     43  C   UNL     1     152.548 166.043 193.663  0.00  0.00    +0.037 C 
ATOM     44  H   UNL     1     151.545 166.256 194.044  0.00  0.00    +0.052 HD
ATOM     45  H   UNL     1     152.481 165.232 192.934  0.00  0.00    +0.052 HD
ATOM     46  H   UNL     1     153.178 165.730 194.500  0.00  0.00    +0.052 HD
ENDBRANCH  42  43
ENDBRANCH  15  42
ENDBRANCH   9  15
ENDBRANCH   6   9
ENDBRANCH   3   6
ENDBRANCH   1   3
BRANCH   1  47
ATOM     47  C   UNL     1     147.113 168.468 190.379  0.00  0.00    +0.020 C 
ATOM     48  H   UNL     1     147.624 167.512 190.562  0.00  0.00    +0.036 HD
BRANCH  47  49
ATOM     49  C   UNL     1     147.626 168.878 188.988  0.00  0.00    -0.057 C 
ATOM     50  H   UNL     1     148.677 168.607 188.844  0.00  0.00    +0.023 HD
ATOM     51  H   UNL     1     147.030 168.433 188.187  0.00  0.00    +0.023 HD
ATOM     52  H   UNL     1     147.566 169.965 188.864  0.00  0.00    +0.023 HD
ENDBRANCH  47  49
BRANCH  47  53
ATOM     53  C   UNL     1     145.590 168.154 190.416  0.00  0.00    +0.070 C 
ATOM     54  H   UNL     1     145.242 168.036 189.381  0.00  0.00    +0.061 HD
BRANCH  53  55
ATOM     55  C   UNL     1     145.052 166.919 191.198  0.00  0.00    +0.002 C 
ATOM     56  H   UNL     1     144.668 166.241 190.418  0.00  0.00    +0.037 HD
BRANCH  55  58
ATOM     57  C   UNL     1     146.245 166.281 193.303  0.00  0.00    -0.005 C 
ATOM     58  C   UNL     1     146.107 166.159 191.974  0.00  0.00    -0.065 C 
ATOM     59  H   UNL     1     145.554 166.934 193.837  0.00  0.00    +0.078 HD
ATOM     60  H   UNL     1     146.776 165.543 191.384  0.00  0.00    +0.059 HD
BRANCH  57  62
ATOM     61  C   UNL     1     148.460 165.271 193.691  0.00  0.00    +0.206 C 
ATOM     62  N   UNL     1     147.198 165.679 194.110  0.00  0.00    -0.281 N 
ATOM     63  O   UNL     1     149.329 164.789 194.411  0.00  0.00    -0.279 OA
ATOM     64  H   UNL     1     148.647 165.417 192.618  0.00  0.00    +0.126 HD
BRANCH  62  65
ATOM     65  C   UNL     1     146.878 165.514 195.533  0.00  0.00    +0.016 C 
ATOM     66  H   UNL     1     145.799 165.653 195.679  0.00  0.00    +0.047 HD
ATOM     67  H   UNL     1     147.105 164.485 195.841  0.00  0.00    +0.047 HD
BRANCH  65  68
ATOM     68  C   UNL     1     147.663 166.479 196.410  0.00  0.00    -0.049 C 
ATOM     69  H   UNL     1     147.255 167.491 196.320  0.00  0.00    +0.024 HD
ATOM     70  H   UNL     1     148.720 166.509 196.119  0.00  0.00    +0.024 HD
ATOM     71  H   UNL     1     147.614 166.183 197.463  0.00  0.00    +0.024 HD
ENDBRANCH  65  68
ENDBRANCH  62  65
ENDBRANCH  57  62
ENDBRANCH  55  58
BRANCH  55  72
ATOM     72  C   UNL     1     143.833 167.171 192.091  0.00  0.00    -0.057 C 
ATOM     73  H   UNL     1     143.641 166.297 192.726  0.00  0.00    +0.024 HD
ATOM     74  H   UNL     1     142.928 167.345 191.501  0.00  0.00    +0.024 HD
ATOM     75  H   UNL     1     143.980 168.018 192.767  0.00  0.00    +0.024 HD
ENDBRANCH  55  72
ENDBRANCH  53  55
BRANCH  53  76
ATOM     76  O   UNL     1     144.898 169.297 190.973  0.00  0.00    -0.379 OA
BRANCH  76  77
ATOM     77  C   UNL     1     144.333 170.159 189.992  0.00  0.00    +0.037 C 
ATOM     78  H   UNL     1     143.254 170.256 190.140  0.00  0.00    +0.052 HD
ATOM     79  H   UNL     1     144.786 171.148 190.104  0.00  0.00    +0.052 HD
ATOM     80  H   UNL     1     144.544 169.799 188.982  0.00  0.00    +0.052 HD
ENDBRANCH  76  77
ENDBRANCH  53  76
ENDBRANCH  47  53
ENDBRANCH   1  47
BRANCH   1  81
ATOM     81  O   UNL     1     148.289 170.534 190.790  0.00  0.00    -0.461 OA
BRANCH  81  82
ATOM     82  C   UNL     1     147.767 171.779 190.974  0.00  0.00    +0.310 C 
ATOM     83  O   UNL     1     147.318 172.494 190.087  0.00  0.00    -0.251 OA
BRANCH  82  84
ATOM     84  C   UNL     1     147.796 172.179 192.435  0.00  0.00    +0.051 C 
ATOM     85  H   UNL     1     147.436 171.313 193.006  0.00  0.00    +0.041 HD
BRANCH  84  86
ATOM     86  C   UNL     1     149.220 172.487 192.886  0.00  0.00    -0.053 C 
ATOM     87  H   UNL     1     149.949 172.044 192.200  0.00  0.00    +0.024 HD
ATOM     88  H   UNL     1     149.403 172.085 193.888  0.00  0.00    +0.024 HD
ATOM     89  H   UNL     1     149.407 173.566 192.915  0.00  0.00    +0.024 HD
ENDBRANCH  84  86
BRANCH  84  90
ATOM     90  C   UNL     1     146.849 173.343 192.699  0.00  0.00    -0.053 C 
ATOM     91  H   UNL     1     147.035 173.781 193.685  0.00  0.00    +0.024 HD
ATOM     92  H   UNL     1     145.801 173.026 192.671  0.00  0.00    +0.024 HD
ATOM     93  H   UNL     1     146.982 174.129 191.948  0.00  0.00    +0.024 HD
ENDBRANCH  84  90
ENDBRANCH  82  84
ENDBRANCH  81  82
ENDBRANCH   1  81
TORSDOF 32
ENDMDL
MODEL 5
REMARK VINA RESULT:      -4.9      2.231      6.626
REMARK  Name = 2c_conf3
REMARK  32 active torsions:
REMARK  status: ('A' for Active; 'I' for Inactive)
REMARK    1  A    between atoms: N_2  and  C_3
REMARK    2  A    between atoms: N_2  and  C_5
REMARK    3  A    between atoms: C_3  and  C_4
REMARK    4  A    between atoms: C_6  and  C_7
REMARK    5  A    between atoms: C_7  and  C_8
REMARK    6  A    between atoms: C_7  and  C_9
REMARK    7  A    between atoms: C_9  and  O_10
REMARK    8  A    between atoms: C_9  and  C_12
REMARK    9  A    between atoms: O_10  and  C_11
REMARK   10  A    between atoms: C_12  and  C_13
REMARK   11  A    between atoms: C_12  and  C_14
REMARK   12  A    between atoms: C_14  and  O_15
REMARK   13  A    between atoms: C_14  and  C_21
REMARK   14  A    between atoms: O_15  and  C_16
REMARK   15  A    between atoms: C_16  and  C_17
REMARK   16  A    between atoms: C_17  and  C_18
REMARK   17  A    between atoms: C_17  and  C_19
REMARK   18  A    between atoms: C_21  and  C_22
REMARK   19  A    between atoms: C_22  and  C_23
REMARK   20  A    between atoms: C_23  and  C_24
REMARK   21  A    between atoms: C_23  and  C_25
REMARK   22  A    between atoms: C_25  and  O_26
REMARK   23  A    between atoms: C_25  and  C_28
REMARK   24  A    between atoms: O_26  and  C_27
REMARK   25  A    between atoms: C_28  and  C_29
REMARK   26  A    between atoms: C_29  and  O_30
REMARK   27  A    between atoms: C_29  and  C_35
REMARK   28  A    between atoms: O_30  and  C_31
REMARK   29  A    between atoms: C_31  and  C_32
REMARK   30  A    between atoms: C_32  and  C_33
REMARK   31  A    between atoms: C_35  and  C_36
REMARK   32  A    between atoms: C_35  and  C_37
REMARK                            x       y       z     vdW  Elec       q    Type
REMARK                         _______ _______ _______ _____ _____    ______ ____
ROOT
ATOM      1  C   UNL     1     146.526 170.998 190.373  0.00  0.00    +0.108 C 
ATOM      2  H   UNL     1     146.220 170.866 191.413  0.00  0.00    +0.074 HD
ENDROOT
BRANCH   1   3
ATOM      3  C   UNL     1     147.663 169.996 190.064  0.00  0.00    -0.015 C 
ATOM      4  H   UNL     1     147.825 169.951 188.983  0.00  0.00    +0.030 HD
ATOM      5  H   UNL     1     148.587 170.374 190.517  0.00  0.00    +0.030 HD
BRANCH   3   6
ATOM      6  C   UNL     1     147.407 168.584 190.614  0.00  0.00    -0.045 C 
ATOM      7  H   UNL     1     147.331 168.664 191.706  0.00  0.00    +0.027 HD
ATOM      8  H   UNL     1     146.425 168.242 190.277  0.00  0.00    +0.027 HD
BRANCH   6   9
ATOM      9  C   UNL     1     148.494 167.517 190.329  0.00  0.00    -0.017 C 
ATOM     10  H   UNL     1     149.154 167.952 189.561  0.00  0.00    +0.032 HD
BRANCH   9  11
ATOM     11  C   UNL     1     147.919 166.252 189.679  0.00  0.00    -0.060 C 
ATOM     12  H   UNL     1     148.710 165.528 189.457  0.00  0.00    +0.023 HD
ATOM     13  H   UNL     1     147.436 166.489 188.726  0.00  0.00    +0.023 HD
ATOM     14  H   UNL     1     147.185 165.763 190.327  0.00  0.00    +0.023 HD
ENDBRANCH   9  11
BRANCH   9  15
ATOM     15  C   UNL     1     149.414 167.205 191.553  0.00  0.00    +0.064 C 
ATOM     16  H   UNL     1     149.523 166.120 191.678  0.00  0.00    +0.060 HD
BRANCH  15  17
ATOM     17  C   UNL     1     148.831 167.824 192.847  0.00  0.00    +0.011 C 
ATOM     18  H   UNL     1     149.486 168.650 193.144  0.00  0.00    +0.033 HD
ATOM     19  H   UNL     1     147.845 168.247 192.628  0.00  0.00    +0.033 HD
BRANCH  17  20
ATOM     20  C   UNL     1     148.690 166.864 194.048  0.00  0.00    +0.108 C 
ATOM     21  H   UNL     1     148.983 167.395 194.962  0.00  0.00    +0.074 HD
BRANCH  20  22
ATOM     22  C   UNL     1     147.224 166.357 194.199  0.00  0.00    -0.009 C 
ATOM     23  H   UNL     1     146.550 167.216 194.090  0.00  0.00    +0.033 HD
BRANCH  22  24
ATOM     24  C   UNL     1     146.962 165.715 195.566  0.00  0.00    -0.059 C 
ATOM     25  H   UNL     1     146.236 164.899 195.484  0.00  0.00    +0.023 HD
ATOM     26  H   UNL     1     147.883 165.305 195.993  0.00  0.00    +0.023 HD
ATOM     27  H   UNL     1     146.543 166.434 196.276  0.00  0.00    +0.023 HD
ENDBRANCH  22  24
BRANCH  22  28
ATOM     28  C   UNL     1     146.837 165.355 193.105  0.00  0.00    -0.059 C 
ATOM     29  H   UNL     1     147.388 164.414 193.217  0.00  0.00    +0.023 HD
ATOM     30  H   UNL     1     147.031 165.759 192.107  0.00  0.00    +0.023 HD
ATOM     31  H   UNL     1     145.767 165.125 193.149  0.00  0.00    +0.023 HD
ENDBRANCH  22  28
ENDBRANCH  20  22
BRANCH  20  32
ATOM     32  O   UNL     1     149.550 165.730 193.799  0.00  0.00    -0.461 OA
BRANCH  32  33
ATOM     33  C   UNL     1     150.749 165.709 194.452  0.00  0.00    +0.307 C 
ATOM     34  O   UNL     1     151.848 165.801 193.923  0.00  0.00    -0.251 OA
BRANCH  33  35
ATOM     35  C   UNL     1     150.518 165.537 195.931  0.00  0.00    +0.042 C 
ATOM     36  H   UNL     1     151.157 166.243 196.470  0.00  0.00    +0.037 HD
ATOM     37  H   UNL     1     149.468 165.763 196.139  0.00  0.00    +0.037 HD
BRANCH  35  38
ATOM     38  C   UNL     1     150.840 164.128 196.398  0.00  0.00    -0.055 C 
ATOM     39  H   UNL     1     151.730 163.751 195.883  0.00  0.00    +0.023 HD
ATOM     40  H   UNL     1     150.004 163.449 196.194  0.00  0.00    +0.023 HD
ATOM     41  H   UNL     1     151.033 164.107 197.476  0.00  0.00    +0.023 HD
ENDBRANCH  35  38
ENDBRANCH  33  35
ENDBRANCH  32  33
ENDBRANCH  20  32
ENDBRANCH  17  20
ENDBRANCH  15  17
BRANCH  15  42
ATOM     42  O   UNL     1     150.685 167.830 191.323  0.00  0.00    -0.379 OA
BRANCH  42  43
ATOM     43  C   UNL     1     150.884 169.010 192.088  0.00  0.00    +0.037 C 
ATOM     44  H   UNL     1     150.103 169.062 192.852  0.00  0.00    +0.052 HD
ATOM     45  H   UNL     1     151.858 168.996 192.582  0.00  0.00    +0.052 HD
ATOM     46  H   UNL     1     150.808 169.899 191.456  0.00  0.00    +0.052 HD
ENDBRANCH  42  43
ENDBRANCH  15  42
ENDBRANCH   9  15
ENDBRANCH   6   9
ENDBRANCH   3   6
ENDBRANCH   1   3
BRANCH   1  47
ATOM     47  C   UNL     1     145.298 170.823 189.442  0.00  0.00    +0.020 C 
ATOM     48  H   UNL     1     145.254 169.750 189.210  0.00  0.00    +0.036 HD
BRANCH  47  49
ATOM     49  C   UNL     1     145.549 171.468 188.069  0.00  0.00    -0.057 C 
ATOM     50  H   UNL     1     145.790 172.532 188.154  0.00  0.00    +0.023 HD
ATOM     51  H   UNL     1     146.352 170.963 187.524  0.00  0.00    +0.023 HD
ATOM     52  H   UNL     1     144.651 171.401 187.445  0.00  0.00    +0.023 HD
ENDBRANCH  47  49
BRANCH  47  53
ATOM     53  C   UNL     1     143.916 171.185 190.060  0.00  0.00    +0.070 C 
ATOM     54  H   UNL     1     143.434 171.922 189.404  0.00  0.00    +0.061 HD
BRANCH  53  55
ATOM     55  C   UNL     1     142.852 170.080 190.328  0.00  0.00    +0.002 C 
ATOM     56  H   UNL     1     142.125 170.187 189.506  0.00  0.00    +0.037 HD
BRANCH  55  58
ATOM     57  C   UNL     1     142.969 167.708 191.113  0.00  0.00    -0.005 C 
ATOM     58  C   UNL     1     143.388 168.665 190.272  0.00  0.00    -0.065 C 
ATOM     59  H   UNL     1     142.198 167.960 191.842  0.00  0.00    +0.078 HD
ATOM     60  H   UNL     1     144.167 168.483 189.540  0.00  0.00    +0.059 HD
BRANCH  57  62
ATOM     61  C   UNL     1     144.270 165.789 190.275  0.00  0.00    +0.206 C 
ATOM     62  N   UNL     1     143.418 166.398 191.190  0.00  0.00    -0.281 N 
ATOM     63  O   UNL     1     144.717 164.650 190.364  0.00  0.00    -0.279 OA
ATOM     64  H   UNL     1     144.540 166.424 189.419  0.00  0.00    +0.126 HD
BRANCH  62  65
ATOM     65  C   UNL     1     143.015 165.608 192.360  0.00  0.00    +0.016 C 
ATOM     66  H   UNL     1     141.951 165.353 192.274  0.00  0.00    +0.047 HD
ATOM     67  H   UNL     1     143.566 164.659 192.365  0.00  0.00    +0.047 HD
BRANCH  65  68
ATOM     68  C   UNL     1     143.283 166.344 193.665  0.00  0.00    -0.049 C 
ATOM     69  H   UNL     1     144.273 166.081 194.053  0.00  0.00    +0.024 HD
ATOM     70  H   UNL     1     142.537 166.087 194.426  0.00  0.00    +0.024 HD
ATOM     71  H   UNL     1     143.251 167.428 193.518  0.00  0.00    +0.024 HD
ENDBRANCH  65  68
ENDBRANCH  62  65
ENDBRANCH  57  62
ENDBRANCH  55  58
BRANCH  55  72
ATOM     72  C   UNL     1     142.001 170.263 191.589  0.00  0.00    -0.057 C 
ATOM     73  H   UNL     1     142.204 171.240 192.045  0.00  0.00    +0.024 HD
ATOM     74  H   UNL     1     142.226 169.503 192.344  0.00  0.00    +0.024 HD
ATOM     75  H   UNL     1     140.929 170.239 191.374  0.00  0.00    +0.024 HD
ENDBRANCH  55  72
ENDBRANCH  53  55
BRANCH  53  76
ATOM     76  O   UNL     1     144.138 171.829 191.337  0.00  0.00    -0.379 OA
BRANCH  76  77
ATOM     77  C   UNL     1     143.720 173.189 191.374  0.00  0.00    +0.037 C 
ATOM     78  H   UNL     1     144.301 173.750 192.112  0.00  0.00    +0.052 HD
ATOM     79  H   UNL     1     143.899 173.628 190.389  0.00  0.00    +0.052 HD
ATOM     80  H   UNL     1     142.653 173.268 191.596  0.00  0.00    +0.052 HD
ENDBRANCH  76  77
ENDBRANCH  53  76
ENDBRANCH  47  53
ENDBRANCH   1  47
BRANCH   1  81
ATOM     81  O   UNL     1     147.028 172.342 190.164  0.00  0.00    -0.461 OA
BRANCH  81  82
ATOM     82  C   UNL     1     148.067 172.746 190.948  0.00  0.00    +0.310 C 
ATOM     83  O   UNL     1     149.090 173.282 190.542  0.00  0.00    -0.251 OA
BRANCH  82  84
ATOM     84  C   UNL     1     147.798 172.458 192.411  0.00  0.00    +0.051 C 
ATOM     85  H   UNL     1     147.237 171.515 192.449  0.00  0.00    +0.041 HD
BRANCH  84  86
ATOM     86  C   UNL     1     149.102 172.268 193.177  0.00  0.00    -0.053 C 
ATOM     87  H   UNL     1     149.957 172.255 192.492  0.00  0.00    +0.024 HD
ATOM     88  H   UNL     1     149.092 171.322 193.728  0.00  0.00    +0.024 HD
ATOM     89  H   UNL     1     149.267 173.077 193.896  0.00  0.00    +0.024 HD
ENDBRANCH  84  86
BRANCH  84  90
ATOM     90  C   UNL     1     146.928 173.547 193.027  0.00  0.00    -0.053 C 
ATOM     91  H   UNL     1     145.932 173.555 192.569  0.00  0.00    +0.024 HD
ATOM     92  H   UNL     1     147.363 174.541 192.885  0.00  0.00    +0.024 HD
ATOM     93  H   UNL     1     146.806 173.384 194.103  0.00  0.00    +0.024 HD
ENDBRANCH  84  90
ENDBRANCH  82  84
ENDBRANCH  81  82
ENDBRANCH   1  81
TORSDOF 32
ENDMDL
MODEL 6
REMARK VINA RESULT:      -4.9      3.543      7.788
REMARK  Name = 2c_conf3
REMARK  32 active torsions:
REMARK  status: ('A' for Active; 'I' for Inactive)
REMARK    1  A    between atoms: N_2  and  C_3
REMARK    2  A    between atoms: N_2  and  C_5
REMARK    3  A    between atoms: C_3  and  C_4
REMARK    4  A    between atoms: C_6  and  C_7
REMARK    5  A    between atoms: C_7  and  C_8
REMARK    6  A    between atoms: C_7  and  C_9
REMARK    7  A    between atoms: C_9  and  O_10
REMARK    8  A    between atoms: C_9  and  C_12
REMARK    9  A    between atoms: O_10  and  C_11
REMARK   10  A    between atoms: C_12  and  C_13
REMARK   11  A    between atoms: C_12  and  C_14
REMARK   12  A    between atoms: C_14  and  O_15
REMARK   13  A    between atoms: C_14  and  C_21
REMARK   14  A    between atoms: O_15  and  C_16
REMARK   15  A    between atoms: C_16  and  C_17
REMARK   16  A    between atoms: C_17  and  C_18
REMARK   17  A    between atoms: C_17  and  C_19
REMARK   18  A    between atoms: C_21  and  C_22
REMARK   19  A    between atoms: C_22  and  C_23
REMARK   20  A    between atoms: C_23  and  C_24
REMARK   21  A    between atoms: C_23  and  C_25
REMARK   22  A    between atoms: C_25  and  O_26
REMARK   23  A    between atoms: C_25  and  C_28
REMARK   24  A    between atoms: O_26  and  C_27
REMARK   25  A    between atoms: C_28  and  C_29
REMARK   26  A    between atoms: C_29  and  O_30
REMARK   27  A    between atoms: C_29  and  C_35
REMARK   28  A    between atoms: O_30  and  C_31
REMARK   29  A    between atoms: C_31  and  C_32
REMARK   30  A    between atoms: C_32  and  C_33
REMARK   31  A    between atoms: C_35  and  C_36
REMARK   32  A    between atoms: C_35  and  C_37
REMARK                            x       y       z     vdW  Elec       q    Type
REMARK                         _______ _______ _______ _____ _____    ______ ____
ROOT
ATOM      1  C   UNL     1     147.683 170.238 191.136  0.00  0.00    +0.108 C 
ATOM      2  H   UNL     1     147.229 170.632 192.048  0.00  0.00    +0.074 HD
ENDROOT
BRANCH   1   3
ATOM      3  C   UNL     1     148.456 168.946 191.490  0.00  0.00    -0.015 C 
ATOM      4  H   UNL     1     147.976 168.454 192.341  0.00  0.00    +0.030 HD
ATOM      5  H   UNL     1     148.389 168.261 190.636  0.00  0.00    +0.030 HD
BRANCH   3   6
ATOM      6  C   UNL     1     149.945 169.182 191.795  0.00  0.00    -0.045 C 
ATOM      7  H   UNL     1     150.451 169.369 190.839  0.00  0.00    +0.027 HD
ATOM      8  H   UNL     1     150.049 170.106 192.368  0.00  0.00    +0.027 HD
BRANCH   6   9
ATOM      9  C   UNL     1     150.710 168.018 192.473  0.00  0.00    -0.017 C 
ATOM     10  H   UNL     1     150.623 168.187 193.557  0.00  0.00    +0.032 HD
BRANCH   9  11
ATOM     11  C   UNL     1     152.216 168.062 192.189  0.00  0.00    -0.060 C 
ATOM     12  H   UNL     1     152.763 167.380 192.849  0.00  0.00    +0.023 HD
ATOM     13  H   UNL     1     152.618 169.063 192.373  0.00  0.00    +0.023 HD
ATOM     14  H   UNL     1     152.441 167.783 191.155  0.00  0.00    +0.023 HD
ENDBRANCH   9  11
BRANCH   9  15
ATOM     15  C   UNL     1     150.085 166.609 192.211  0.00  0.00    +0.064 C 
ATOM     16  H   UNL     1     149.008 166.703 192.017  0.00  0.00    +0.060 HD
BRANCH  15  17
ATOM     17  C   UNL     1     150.318 165.674 193.423  0.00  0.00    +0.011 C 
ATOM     18  H   UNL     1     150.401 164.651 193.041  0.00  0.00    +0.033 HD
ATOM     19  H   UNL     1     151.274 165.929 193.892  0.00  0.00    +0.033 HD
BRANCH  17  20
ATOM     20  C   UNL     1     149.224 165.697 194.511  0.00  0.00    +0.108 C 
ATOM     21  H   UNL     1     148.672 164.748 194.480  0.00  0.00    +0.074 HD
BRANCH  20  22
ATOM     22  C   UNL     1     149.839 165.883 195.931  0.00  0.00    -0.009 C 
ATOM     23  H   UNL     1     150.562 166.708 195.887  0.00  0.00    +0.033 HD
BRANCH  22  24
ATOM     24  C   UNL     1     150.572 164.630 196.424  0.00  0.00    -0.059 C 
ATOM     25  H   UNL     1     149.958 164.072 197.138  0.00  0.00    +0.023 HD
ATOM     26  H   UNL     1     150.815 163.962 195.592  0.00  0.00    +0.023 HD
ATOM     27  H   UNL     1     151.499 164.885 196.945  0.00  0.00    +0.023 HD
ENDBRANCH  22  24
BRANCH  22  28
ATOM     28  C   UNL     1     148.788 166.279 196.975  0.00  0.00    -0.059 C 
ATOM     29  H   UNL     1     147.833 165.776 196.786  0.00  0.00    +0.023 HD
ATOM     30  H   UNL     1     148.620 167.360 196.982  0.00  0.00    +0.023 HD
ATOM     31  H   UNL     1     149.118 166.004 197.983  0.00  0.00    +0.023 HD
ENDBRANCH  22  28
ENDBRANCH  20  22
BRANCH  20  32
ATOM     32  O   UNL     1     148.356 166.817 194.230  0.00  0.00    -0.461 OA
BRANCH  32  33
ATOM     33  C   UNL     1     147.061 166.532 193.907  0.00  0.00    +0.307 C 
ATOM     34  O   UNL     1     146.240 167.334 193.485  0.00  0.00    -0.251 OA
BRANCH  33  35
ATOM     35  C   UNL     1     146.785 165.072 194.163  0.00  0.00    +0.042 C 
ATOM     36  H   UNL     1     146.531 164.592 193.214  0.00  0.00    +0.037 HD
ATOM     37  H   UNL     1     147.694 164.622 194.570  0.00  0.00    +0.037 HD
BRANCH  35  38
ATOM     38  C   UNL     1     145.636 164.873 195.137  0.00  0.00    -0.055 C 
ATOM     39  H   UNL     1     145.350 165.829 195.588  0.00  0.00    +0.023 HD
ATOM     40  H   UNL     1     145.919 164.181 195.938  0.00  0.00    +0.023 HD
ATOM     41  H   UNL     1     144.760 164.457 194.629  0.00  0.00    +0.023 HD
ENDBRANCH  35  38
ENDBRANCH  33  35
ENDBRANCH  32  33
ENDBRANCH  20  32
ENDBRANCH  17  20
ENDBRANCH  15  17
BRANCH  15  42
ATOM     42  O   UNL     1     150.763 166.024 191.091  0.00  0.00    -0.379 OA
BRANCH  42  43
ATOM     43  C   UNL     1     150.004 166.050 189.891  0.00  0.00    +0.037 C 
ATOM     44  H   UNL     1     150.125 167.034 189.427  0.00  0.00    +0.052 HD
ATOM     45  H   UNL     1     150.353 165.288 189.191  0.00  0.00    +0.052 HD
ATOM     46  H   UNL     1     148.942 165.895 190.100  0.00  0.00    +0.052 HD
ENDBRANCH  42  43
ENDBRANCH  15  42
ENDBRANCH   9  15
ENDBRANCH   6   9
ENDBRANCH   3   6
ENDBRANCH   1   3
BRANCH   1  47
ATOM     47  C   UNL     1     146.586 170.010 190.064  0.00  0.00    +0.020 C 
ATOM     48  H   UNL     1     145.982 169.170 190.434  0.00  0.00    +0.036 HD
BRANCH  47  49
ATOM     49  C   UNL     1     147.192 169.458 188.762  0.00  0.00    -0.057 C 
ATOM     50  H   UNL     1     148.245 169.736 188.651  0.00  0.00    +0.023 HD
ATOM     51  H   UNL     1     147.102 168.370 188.702  0.00  0.00    +0.023 HD
ATOM     52  H   UNL     1     146.667 169.870 187.892  0.00  0.00    +0.023 HD
ENDBRANCH  47  49
BRANCH  47  53
ATOM     53  C   UNL     1     145.593 171.187 189.842  0.00  0.00    +0.070 C 
ATOM     54  H   UNL     1     146.173 172.067 189.535  0.00  0.00    +0.061 HD
BRANCH  53  55
ATOM     55  C   UNL     1     144.424 171.059 188.821  0.00  0.00    +0.002 C 
ATOM     56  H   UNL     1     143.595 171.628 189.274  0.00  0.00    +0.037 HD
BRANCH  55  58
ATOM     57  C   UNL     1     145.678 172.578 187.279  0.00  0.00    -0.005 C 
ATOM     58  C   UNL     1     144.704 171.676 187.466  0.00  0.00    -0.065 C 
ATOM     59  H   UNL     1     146.300 172.853 188.131  0.00  0.00    +0.078 HD
ATOM     60  H   UNL     1     144.038 171.377 186.665  0.00  0.00    +0.059 HD
BRANCH  57  62
ATOM     61  C   UNL     1     146.106 172.649 184.852  0.00  0.00    +0.206 C 
ATOM     62  N   UNL     1     145.996 173.244 186.105  0.00  0.00    -0.281 N 
ATOM     63  O   UNL     1     146.331 173.238 183.799  0.00  0.00    -0.279 OA
ATOM     64  H   UNL     1     145.968 171.558 184.858  0.00  0.00    +0.126 HD
BRANCH  62  65
ATOM     65  C   UNL     1     146.168 174.700 186.173  0.00  0.00    +0.016 C 
ATOM     66  H   UNL     1     146.794 174.949 187.039  0.00  0.00    +0.047 HD
ATOM     67  H   UNL     1     146.712 175.044 185.285  0.00  0.00    +0.047 HD
BRANCH  65  68
ATOM     68  C   UNL     1     144.834 175.429 186.251  0.00  0.00    -0.049 C 
ATOM     69  H   UNL     1     144.007 174.712 186.215  0.00  0.00    +0.024 HD
ATOM     70  H   UNL     1     144.716 176.130 185.417  0.00  0.00    +0.024 HD
ATOM     71  H   UNL     1     144.752 175.999 187.182  0.00  0.00    +0.024 HD
ENDBRANCH  65  68
ENDBRANCH  62  65
ENDBRANCH  57  62
ENDBRANCH  55  58
BRANCH  55  72
ATOM     72  C   UNL     1     143.843 169.654 188.641  0.00  0.00    -0.057 C 
ATOM     73  H   UNL     1     144.559 169.012 188.112  0.00  0.00    +0.024 HD
ATOM     74  H   UNL     1     142.924 169.668 188.047  0.00  0.00    +0.024 HD
ATOM     75  H   UNL     1     143.636 169.164 189.597  0.00  0.00    +0.024 HD
ENDBRANCH  55  72
ENDBRANCH  53  55
BRANCH  53  76
ATOM     76  O   UNL     1     144.969 171.506 191.109  0.00  0.00    -0.379 OA
BRANCH  76  77
ATOM     77  C   UNL     1     143.996 172.541 191.024  0.00  0.00    +0.037 C 
ATOM     78  H   UNL     1     143.260 172.444 191.827  0.00  0.00    +0.052 HD
ATOM     79  H   UNL     1     144.507 173.500 191.140  0.00  0.00    +0.052 HD
ATOM     80  H   UNL     1     143.496 172.534 190.053  0.00  0.00    +0.052 HD
ENDBRANCH  76  77
ENDBRANCH  53  76
ENDBRANCH  47  53
ENDBRANCH   1  47
BRANCH   1  81
ATOM     81  O   UNL     1     148.620 171.198 190.587  0.00  0.00    -0.461 OA
BRANCH  81  82
ATOM     82  C   UNL     1     148.656 172.432 191.164  0.00  0.00    +0.310 C 
ATOM     83  O   UNL     1     148.958 173.471 190.591  0.00  0.00    -0.251 OA
BRANCH  82  84
ATOM     84  C   UNL     1     148.260 172.368 192.625  0.00  0.00    +0.051 C 
ATOM     85  H   UNL     1     147.806 171.382 192.786  0.00  0.00    +0.041 HD
BRANCH  84  86
ATOM     86  C   UNL     1     149.485 172.482 193.526  0.00  0.00    -0.053 C 
ATOM     87  H   UNL     1     149.401 171.807 194.383  0.00  0.00    +0.024 HD
ATOM     88  H   UNL     1     149.592 173.504 193.905  0.00  0.00    +0.024 HD
ATOM     89  H   UNL     1     150.404 172.222 192.989  0.00  0.00    +0.024 HD
ENDBRANCH  84  86
BRANCH  84  90
ATOM     90  C   UNL     1     147.212 173.426 192.950  0.00  0.00    -0.053 C 
ATOM     91  H   UNL     1     147.531 174.043 193.798  0.00  0.00    +0.024 HD
ATOM     92  H   UNL     1     146.250 172.975 193.214  0.00  0.00    +0.024 HD
ATOM     93  H   UNL     1     147.049 174.086 192.092  0.00  0.00    +0.024 HD
ENDBRANCH  84  90
ENDBRANCH  82  84
ENDBRANCH  81  82
ENDBRANCH   1  81
TORSDOF 32
ENDMDL
MODEL 7
REMARK VINA RESULT:      -4.9      2.759      7.240
REMARK  Name = 2c_conf3
REMARK  32 active torsions:
REMARK  status: ('A' for Active; 'I' for Inactive)
REMARK    1  A    between atoms: N_2  and  C_3
REMARK    2  A    between atoms: N_2  and  C_5
REMARK    3  A    between atoms: C_3  and  C_4
REMARK    4  A    between atoms: C_6  and  C_7
REMARK    5  A    between atoms: C_7  and  C_8
REMARK    6  A    between atoms: C_7  and  C_9
REMARK    7  A    between atoms: C_9  and  O_10
REMARK    8  A    between atoms: C_9  and  C_12
REMARK    9  A    between atoms: O_10  and  C_11
REMARK   10  A    between atoms: C_12  and  C_13
REMARK   11  A    between atoms: C_12  and  C_14
REMARK   12  A    between atoms: C_14  and  O_15
REMARK   13  A    between atoms: C_14  and  C_21
REMARK   14  A    between atoms: O_15  and  C_16
REMARK   15  A    between atoms: C_16  and  C_17
REMARK   16  A    between atoms: C_17  and  C_18
REMARK   17  A    between atoms: C_17  and  C_19
REMARK   18  A    between atoms: C_21  and  C_22
REMARK   19  A    between atoms: C_22  and  C_23
REMARK   20  A    between atoms: C_23  and  C_24
REMARK   21  A    between atoms: C_23  and  C_25
REMARK   22  A    between atoms: C_25  and  O_26
REMARK   23  A    between atoms: C_25  and  C_28
REMARK   24  A    between atoms: O_26  and  C_27
REMARK   25  A    between atoms: C_28  and  C_29
REMARK   26  A    between atoms: C_29  and  O_30
REMARK   27  A    between atoms: C_29  and  C_35
REMARK   28  A    between atoms: O_30  and  C_31
REMARK   29  A    between atoms: C_31  and  C_32
REMARK   30  A    between atoms: C_32  and  C_33
REMARK   31  A    between atoms: C_35  and  C_36
REMARK   32  A    between atoms: C_35  and  C_37
REMARK                            x       y       z     vdW  Elec       q    Type
REMARK                         _______ _______ _______ _____ _____    ______ ____
ROOT
ATOM      1  C   UNL     1     147.891 168.671 191.916  0.00  0.00    +0.108 C 
ATOM      2  H   UNL     1     147.015 168.944 192.510  0.00  0.00    +0.074 HD
ENDROOT
BRANCH   1   3
ATOM      3  C   UNL     1     149.094 168.482 192.869  0.00  0.00    -0.015 C 
ATOM      4  H   UNL     1     149.459 169.461 193.195  0.00  0.00    +0.030 HD
ATOM      5  H   UNL     1     148.744 167.950 193.762  0.00  0.00    +0.030 HD
BRANCH   3   6
ATOM      6  C   UNL     1     150.246 167.672 192.254  0.00  0.00    -0.045 C 
ATOM      7  H   UNL     1     150.250 166.686 192.738  0.00  0.00    +0.027 HD
ATOM      8  H   UNL     1     150.027 167.481 191.202  0.00  0.00    +0.027 HD
BRANCH   6   9
ATOM      9  C   UNL     1     151.674 168.249 192.428  0.00  0.00    -0.017 C 
ATOM     10  H   UNL     1     151.754 168.553 193.483  0.00  0.00    +0.032 HD
BRANCH   9  11
ATOM     11  C   UNL     1     151.885 169.542 191.632  0.00  0.00    -0.060 C 
ATOM     12  H   UNL     1     151.644 169.399 190.573  0.00  0.00    +0.023 HD
ATOM     13  H   UNL     1     152.932 169.858 191.673  0.00  0.00    +0.023 HD
ATOM     14  H   UNL     1     151.262 170.358 192.013  0.00  0.00    +0.023 HD
ENDBRANCH   9  11
BRANCH   9  15
ATOM     15  C   UNL     1     152.813 167.204 192.200  0.00  0.00    +0.064 C 
ATOM     16  H   UNL     1     153.582 167.621 191.535  0.00  0.00    +0.060 HD
BRANCH  15  17
ATOM     17  C   UNL     1     152.246 165.900 191.588  0.00  0.00    +0.011 C 
ATOM     18  H   UNL     1     152.411 165.095 192.312  0.00  0.00    +0.033 HD
ATOM     19  H   UNL     1     151.164 166.008 191.457  0.00  0.00    +0.033 HD
BRANCH  17  20
ATOM     20  C   UNL     1     152.855 165.469 190.237  0.00  0.00    +0.108 C 
ATOM     21  H   UNL     1     152.075 165.509 189.467  0.00  0.00    +0.074 HD
BRANCH  20  22
ATOM     22  C   UNL     1     154.032 166.403 189.822  0.00  0.00    -0.009 C 
ATOM     23  H   UNL     1     153.913 167.360 190.346  0.00  0.00    +0.033 HD
BRANCH  22  24
ATOM     24  C   UNL     1     154.057 166.684 188.315  0.00  0.00    -0.059 C 
ATOM     25  H   UNL     1     155.085 166.751 187.945  0.00  0.00    +0.023 HD
ATOM     26  H   UNL     1     153.548 165.891 187.757  0.00  0.00    +0.023 HD
ATOM     27  H   UNL     1     153.576 167.637 188.075  0.00  0.00    +0.023 HD
ENDBRANCH  22  24
BRANCH  22  28
ATOM     28  C   UNL     1     155.397 165.844 190.238  0.00  0.00    -0.059 C 
ATOM     29  H   UNL     1     156.133 165.958 189.434  0.00  0.00    +0.023 HD
ATOM     30  H   UNL     1     155.330 164.784 190.503  0.00  0.00    +0.023 HD
ATOM     31  H   UNL     1     155.780 166.366 191.121  0.00  0.00    +0.023 HD
ENDBRANCH  22  28
ENDBRANCH  20  22
BRANCH  20  32
ATOM     32  O   UNL     1     153.364 164.126 190.400  0.00  0.00    -0.461 OA
BRANCH  32  33
ATOM     33  C   UNL     1     153.069 163.229 189.415  0.00  0.00    +0.307 C 
ATOM     34  O   UNL     1     152.031 163.199 188.768  0.00  0.00    -0.251 OA
BRANCH  33  35
ATOM     35  C   UNL     1     154.213 162.261 189.251  0.00  0.00    +0.042 C 
ATOM     36  H   UNL     1     154.839 162.597 188.419  0.00  0.00    +0.037 HD
ATOM     37  H   UNL     1     154.798 162.268 190.175  0.00  0.00    +0.037 HD
BRANCH  35  38
ATOM     38  C   UNL     1     153.728 160.851 188.964  0.00  0.00    -0.055 C 
ATOM     39  H   UNL     1     153.402 160.365 189.889  0.00  0.00    +0.023 HD
ATOM     40  H   UNL     1     154.526 160.248 188.516  0.00  0.00    +0.023 HD
ATOM     41  H   UNL     1     152.885 160.861 188.265  0.00  0.00    +0.023 HD
ENDBRANCH  35  38
ENDBRANCH  33  35
ENDBRANCH  32  33
ENDBRANCH  20  32
ENDBRANCH  17  20
ENDBRANCH  15  17
BRANCH  15  42
ATOM     42  O   UNL     1     153.365 166.863 193.479  0.00  0.00    -0.379 OA
BRANCH  42  43
ATOM     43  C   UNL     1     154.450 167.694 193.868  0.00  0.00    +0.037 C 
ATOM     44  H   UNL     1     155.358 167.325 193.383  0.00  0.00    +0.052 HD
ATOM     45  H   UNL     1     154.282 168.728 193.558  0.00  0.00    +0.052 HD
ATOM     46  H   UNL     1     154.597 167.657 194.951  0.00  0.00    +0.052 HD
ENDBRANCH  42  43
ENDBRANCH  15  42
ENDBRANCH   9  15
ENDBRANCH   6   9
ENDBRANCH   3   6
ENDBRANCH   1   3
BRANCH   1  47
ATOM     47  C   UNL     1     147.578 167.403 191.080  0.00  0.00    +0.020 C 
ATOM     48  H   UNL     1     148.380 166.689 191.315  0.00  0.00    +0.036 HD
BRANCH  47  49
ATOM     49  C   UNL     1     147.776 167.669 189.578  0.00  0.00    -0.057 C 
ATOM     50  H   UNL     1     148.073 166.764 189.038  0.00  0.00    +0.023 HD
ATOM     51  H   UNL     1     146.874 168.079 189.115  0.00  0.00    +0.023 HD
ATOM     52  H   UNL     1     148.576 168.401 189.422  0.00  0.00    +0.023 HD
ENDBRANCH  47  49
BRANCH  47  53
ATOM     53  C   UNL     1     146.245 166.675 191.416  0.00  0.00    +0.070 C 
ATOM     54  H   UNL     1     145.906 166.152 190.512  0.00  0.00    +0.061 HD
BRANCH  53  55
ATOM     55  C   UNL     1     146.179 165.632 192.571  0.00  0.00    +0.002 C 
ATOM     56  H   UNL     1     145.834 164.703 192.088  0.00  0.00    +0.037 HD
BRANCH  55  58
ATOM     57  C   UNL     1     147.795 165.703 194.479  0.00  0.00    -0.005 C 
ATOM     58  C   UNL     1     147.513 165.330 193.222  0.00  0.00    -0.065 C 
ATOM     59  H   UNL     1     147.024 166.218 195.052  0.00  0.00    +0.078 HD
ATOM     60  H   UNL     1     148.244 164.834 192.594  0.00  0.00    +0.059 HD
BRANCH  57  62
ATOM     61  C   UNL     1     150.171 165.055 194.600  0.00  0.00    +0.206 C 
ATOM     62  N   UNL     1     148.989 165.528 195.162  0.00  0.00    -0.281 N 
ATOM     63  O   UNL     1     151.246 164.950 195.181  0.00  0.00    -0.279 OA
ATOM     64  H   UNL     1     150.082 164.768 193.542  0.00  0.00    +0.126 HD
BRANCH  62  65
ATOM     65  C   UNL     1     149.032 165.930 196.573  0.00  0.00    +0.016 C 
ATOM     66  H   UNL     1     149.222 165.047 197.195  0.00  0.00    +0.047 HD
ATOM     67  H   UNL     1     149.877 166.612 196.731  0.00  0.00    +0.047 HD
BRANCH  65  68
ATOM     68  C   UNL     1     147.748 166.622 197.007  0.00  0.00    -0.049 C 
ATOM     69  H   UNL     1     146.889 165.962 196.848  0.00  0.00    +0.024 HD
ATOM     70  H   UNL     1     147.581 167.544 196.438  0.00  0.00    +0.024 HD
ATOM     71  H   UNL     1     147.784 166.887 198.069  0.00  0.00    +0.024 HD
ENDBRANCH  65  68
ENDBRANCH  62  65
ENDBRANCH  57  62
ENDBRANCH  55  58
BRANCH  55  72
ATOM     72  C   UNL     1     145.123 165.893 193.649  0.00  0.00    -0.057 C 
ATOM     73  H   UNL     1     145.270 165.213 194.498  0.00  0.00    +0.024 HD
ATOM     74  H   UNL     1     144.109 165.722 193.274  0.00  0.00    +0.024 HD
ATOM     75  H   UNL     1     145.182 166.908 194.053  0.00  0.00    +0.024 HD
ENDBRANCH  55  72
ENDBRANCH  53  55
BRANCH  53  76
ATOM     76  O   UNL     1     145.245 167.672 191.736  0.00  0.00    -0.379 OA
BRANCH  76  77
ATOM     77  C   UNL     1     144.310 167.903 190.688  0.00  0.00    +0.037 C 
ATOM     78  H   UNL     1     143.286 167.830 191.064  0.00  0.00    +0.052 HD
ATOM     79  H   UNL     1     144.467 168.915 190.308  0.00  0.00    +0.052 HD
ATOM     80  H   UNL     1     144.459 167.201 189.864  0.00  0.00    +0.052 HD
ENDBRANCH  76  77
ENDBRANCH  53  76
ENDBRANCH  47  53
ENDBRANCH   1  47
BRANCH   1  81
ATOM     81  O   UNL     1     148.210 169.729 190.978  0.00  0.00    -0.461 OA
BRANCH  81  82
ATOM     82  C   UNL     1     147.823 170.993 191.310  0.00  0.00    +0.310 C 
ATOM     83  O   UNL     1     146.664 171.370 191.421  0.00  0.00    -0.251 OA
BRANCH  82  84
ATOM     84  C   UNL     1     149.021 171.892 191.542  0.00  0.00    +0.051 C 
ATOM     85  H   UNL     1     149.885 171.391 191.086  0.00  0.00    +0.041 HD
BRANCH  84  86
ATOM     86  C   UNL     1     148.832 173.238 190.851  0.00  0.00    -0.053 C 
ATOM     87  H   UNL     1     148.067 173.170 190.070  0.00  0.00    +0.024 HD
ATOM     88  H   UNL     1     149.767 173.568 190.387  0.00  0.00    +0.024 HD
ATOM     89  H   UNL     1     148.513 174.011 191.559  0.00  0.00    +0.024 HD
ENDBRANCH  84  86
BRANCH  84  90
ATOM     90  C   UNL     1     149.300 172.049 193.032  0.00  0.00    -0.053 C 
ATOM     91  H   UNL     1     148.683 172.845 193.463  0.00  0.00    +0.024 HD
ATOM     92  H   UNL     1     150.347 172.306 193.222  0.00  0.00    +0.024 HD
ATOM     93  H   UNL     1     149.079 171.120 193.568  0.00  0.00    +0.024 HD
ENDBRANCH  84  90
ENDBRANCH  82  84
ENDBRANCH  81  82
ENDBRANCH   1  81
TORSDOF 32
ENDMDL
MODEL 8
REMARK VINA RESULT:      -4.8      1.151      2.445
REMARK  Name = 2c_conf3
REMARK  32 active torsions:
REMARK  status: ('A' for Active; 'I' for Inactive)
REMARK    1  A    between atoms: N_2  and  C_3
REMARK    2  A    between atoms: N_2  and  C_5
REMARK    3  A    between atoms: C_3  and  C_4
REMARK    4  A    between atoms: C_6  and  C_7
REMARK    5  A    between atoms: C_7  and  C_8
REMARK    6  A    between atoms: C_7  and  C_9
REMARK    7  A    between atoms: C_9  and  O_10
REMARK    8  A    between atoms: C_9  and  C_12
REMARK    9  A    between atoms: O_10  and  C_11
REMARK   10  A    between atoms: C_12  and  C_13
REMARK   11  A    between atoms: C_12  and  C_14
REMARK   12  A    between atoms: C_14  and  O_15
REMARK   13  A    between atoms: C_14  and  C_21
REMARK   14  A    between atoms: O_15  and  C_16
REMARK   15  A    between atoms: C_16  and  C_17
REMARK   16  A    between atoms: C_17  and  C_18
REMARK   17  A    between atoms: C_17  and  C_19
REMARK   18  A    between atoms: C_21  and  C_22
REMARK   19  A    between atoms: C_22  and  C_23
REMARK   20  A    between atoms: C_23  and  C_24
REMARK   21  A    between atoms: C_23  and  C_25
REMARK   22  A    between atoms: C_25  and  O_26
REMARK   23  A    between atoms: C_25  and  C_28
REMARK   24  A    between atoms: O_26  and  C_27
REMARK   25  A    between atoms: C_28  and  C_29
REMARK   26  A    between atoms: C_29  and  O_30
REMARK   27  A    between atoms: C_29  and  C_35
REMARK   28  A    between atoms: O_30  and  C_31
REMARK   29  A    between atoms: C_31  and  C_32
REMARK   30  A    between atoms: C_32  and  C_33
REMARK   31  A    between atoms: C_35  and  C_36
REMARK   32  A    between atoms: C_35  and  C_37
REMARK                            x       y       z     vdW  Elec       q    Type
REMARK                         _______ _______ _______ _____ _____    ______ ____
ROOT
ATOM      1  C   UNL     1     148.162 169.505 190.839  0.00  0.00    +0.108 C 
ATOM      2  H   UNL     1     149.056 170.107 190.659  0.00  0.00    +0.074 HD
ENDROOT
BRANCH   1   3
ATOM      3  C   UNL     1     147.450 169.265 189.488  0.00  0.00    -0.015 C 
ATOM      4  H   UNL     1     147.976 169.807 188.696  0.00  0.00    +0.030 HD
ATOM      5  H   UNL     1     147.515 168.196 189.251  0.00  0.00    +0.030 HD
BRANCH   3   6
ATOM      6  C   UNL     1     145.964 169.660 189.495  0.00  0.00    -0.045 C 
ATOM      7  H   UNL     1     145.799 170.304 190.368  0.00  0.00    +0.027 HD
ATOM      8  H   UNL     1     145.758 170.287 188.625  0.00  0.00    +0.027 HD
BRANCH   6   9
ATOM      9  C   UNL     1     144.937 168.506 189.604  0.00  0.00    -0.017 C 
ATOM     10  H   UNL     1     145.507 167.618 189.917  0.00  0.00    +0.032 HD
BRANCH   9  11
ATOM     11  C   UNL     1     144.336 168.125 188.245  0.00  0.00    -0.060 C 
ATOM     12  H   UNL     1     145.118 167.977 187.494  0.00  0.00    +0.023 HD
ATOM     13  H   UNL     1     143.688 168.923 187.869  0.00  0.00    +0.023 HD
ATOM     14  H   UNL     1     143.748 167.203 188.308  0.00  0.00    +0.023 HD
ENDBRANCH   9  11
BRANCH   9  15
ATOM     15  C   UNL     1     143.851 168.724 190.707  0.00  0.00    +0.064 C 
ATOM     16  H   UNL     1     144.301 169.186 191.595  0.00  0.00    +0.060 HD
BRANCH  15  17
ATOM     17  C   UNL     1     143.189 167.379 191.096  0.00  0.00    +0.011 C 
ATOM     18  H   UNL     1     142.387 167.598 191.809  0.00  0.00    +0.033 HD
ATOM     19  H   UNL     1     142.728 166.937 190.207  0.00  0.00    +0.033 HD
BRANCH  17  20
ATOM     20  C   UNL     1     144.125 166.327 191.729  0.00  0.00    +0.108 C 
ATOM     21  H   UNL     1     145.123 166.766 191.846  0.00  0.00    +0.074 HD
BRANCH  20  22
ATOM     22  C   UNL     1     143.602 165.868 193.123  0.00  0.00    -0.009 C 
ATOM     23  H   UNL     1     143.071 164.915 192.995  0.00  0.00    +0.033 HD
BRANCH  22  24
ATOM     24  C   UNL     1     142.630 166.875 193.749  0.00  0.00    -0.059 C 
ATOM     25  H   UNL     1     142.151 167.488 192.979  0.00  0.00    +0.023 HD
ATOM     26  H   UNL     1     141.843 166.366 194.314  0.00  0.00    +0.023 HD
ATOM     27  H   UNL     1     143.145 167.567 194.422  0.00  0.00    +0.023 HD
ENDBRANCH  22  24
BRANCH  22  28
ATOM     28  C   UNL     1     144.739 165.604 194.117  0.00  0.00    -0.059 C 
ATOM     29  H   UNL     1     144.355 165.209 195.064  0.00  0.00    +0.023 HD
ATOM     30  H   UNL     1     145.309 166.516 194.323  0.00  0.00    +0.023 HD
ATOM     31  H   UNL     1     145.449 164.874 193.712  0.00  0.00    +0.023 HD
ENDBRANCH  22  28
ENDBRANCH  20  22
BRANCH  20  32
ATOM     32  O   UNL     1     144.153 165.185 190.845  0.00  0.00    -0.461 OA
BRANCH  32  33
ATOM     33  C   UNL     1     145.327 164.936 190.193  0.00  0.00    +0.307 C 
ATOM     34  O   UNL     1     146.446 165.061 190.670  0.00  0.00    -0.251 OA
BRANCH  33  35
ATOM     35  C   UNL     1     145.038 164.496 188.781  0.00  0.00    +0.042 C 
ATOM     36  H   UNL     1     145.434 165.249 188.092  0.00  0.00    +0.037 HD
ATOM     37  H   UNL     1     145.547 163.543 188.612  0.00  0.00    +0.037 HD
BRANCH  35  38
ATOM     38  C   UNL     1     143.550 164.332 188.528  0.00  0.00    -0.055 C 
ATOM     39  H   UNL     1     143.172 165.165 187.926  0.00  0.00    +0.023 HD
ATOM     40  H   UNL     1     142.994 164.304 189.472  0.00  0.00    +0.023 HD
ATOM     41  H   UNL     1     143.344 163.400 187.991  0.00  0.00    +0.023 HD
ENDBRANCH  35  38
ENDBRANCH  33  35
ENDBRANCH  32  33
ENDBRANCH  20  32
ENDBRANCH  17  20
ENDBRANCH  15  17
BRANCH  15  42
ATOM     42  O   UNL     1     142.821 169.556 190.157  0.00  0.00    -0.379 OA
BRANCH  42  43
ATOM     43  C   UNL     1     141.529 169.283 190.681  0.00  0.00    +0.037 C 
ATOM     44  H   UNL     1     140.784 169.626 189.958  0.00  0.00    +0.052 HD
ATOM     45  H   UNL     1     141.392 168.211 190.843  0.00  0.00    +0.052 HD
ATOM     46  H   UNL     1     141.371 169.817 191.621  0.00  0.00    +0.052 HD
ENDBRANCH  42  43
ENDBRANCH  15  42
ENDBRANCH   9  15
ENDBRANCH   6   9
ENDBRANCH   3   6
ENDBRANCH   1   3
BRANCH   1  47
ATOM     47  C   UNL     1     148.558 168.188 191.556  0.00  0.00    +0.020 C 
ATOM     48  H   UNL     1     148.515 167.407 190.783  0.00  0.00    +0.036 HD
BRANCH  47  49
ATOM     49  C   UNL     1     147.470 167.753 192.553  0.00  0.00    -0.057 C 
ATOM     50  H   UNL     1     147.854 167.045 193.294  0.00  0.00    +0.023 HD
ATOM     51  H   UNL     1     147.028 168.609 193.071  0.00  0.00    +0.023 HD
ATOM     52  H   UNL     1     146.654 167.243 192.028  0.00  0.00    +0.023 HD
ENDBRANCH  47  49
BRANCH  47  53
ATOM     53  C   UNL     1     149.998 168.134 192.140  0.00  0.00    +0.070 C 
ATOM     54  H   UNL     1     149.937 168.339 193.217  0.00  0.00    +0.061 HD
BRANCH  53  55
ATOM     55  C   UNL     1     150.869 166.851 191.991  0.00  0.00    +0.002 C 
ATOM     56  H   UNL     1     151.907 167.221 191.961  0.00  0.00    +0.037 HD
BRANCH  55  58
ATOM     57  C   UNL     1     150.264 166.250 194.343  0.00  0.00    -0.005 C 
ATOM     58  C   UNL     1     150.769 165.887 193.155  0.00  0.00    -0.065 C 
ATOM     59  H   UNL     1     149.893 167.269 194.459  0.00  0.00    +0.078 HD
ATOM     60  H   UNL     1     151.174 164.896 192.983  0.00  0.00    +0.059 HD
BRANCH  57  62
ATOM     61  C   UNL     1     150.895 164.316 195.736  0.00  0.00    +0.206 C 
ATOM     62  N   UNL     1     150.167 165.476 195.489  0.00  0.00    -0.281 N 
ATOM     63  O   UNL     1     150.857 163.656 196.770  0.00  0.00    -0.279 OA
ATOM     64  H   UNL     1     151.546 164.009 194.906  0.00  0.00    +0.126 HD
BRANCH  62  65
ATOM     65  C   UNL     1     149.274 165.947 196.555  0.00  0.00    +0.016 C 
ATOM     66  H   UNL     1     149.270 165.215 197.373  0.00  0.00    +0.047 HD
ATOM     67  H   UNL     1     149.668 166.882 196.973  0.00  0.00    +0.047 HD
BRANCH  65  68
ATOM     68  C   UNL     1     147.859 166.187 196.049  0.00  0.00    -0.049 C 
ATOM     69  H   UNL     1     147.678 165.604 195.139  0.00  0.00    +0.024 HD
ATOM     70  H   UNL     1     147.695 167.245 195.816  0.00  0.00    +0.024 HD
ATOM     71  H   UNL     1     147.118 165.890 196.797  0.00  0.00    +0.024 HD
ENDBRANCH  65  68
ENDBRANCH  62  65
ENDBRANCH  57  62
ENDBRANCH  55  58
BRANCH  55  72
ATOM     72  C   UNL     1     150.718 166.088 190.671  0.00  0.00    -0.057 C 
ATOM     73  H   UNL     1     151.629 166.190 190.068  0.00  0.00    +0.024 HD
ATOM     74  H   UNL     1     149.890 166.477 190.071  0.00  0.00    +0.024 HD
ATOM     75  H   UNL     1     150.567 165.016 190.826  0.00  0.00    +0.024 HD
ENDBRANCH  55  72
ENDBRANCH  53  55
BRANCH  53  76
ATOM     76  O   UNL     1     150.775 169.201 191.545  0.00  0.00    -0.379 OA
BRANCH  76  77
ATOM     77  C   UNL     1     151.948 169.535 192.279  0.00  0.00    +0.037 C 
ATOM     78  H   UNL     1     152.344 168.654 192.792  0.00  0.00    +0.052 HD
ATOM     79  H   UNL     1     152.703 169.891 191.574  0.00  0.00    +0.052 HD
ATOM     80  H   UNL     1     151.749 170.332 192.999  0.00  0.00    +0.052 HD
ENDBRANCH  76  77
ENDBRANCH  53  76
ENDBRANCH  47  53
ENDBRANCH   1  47
BRANCH   1  81
ATOM     81  O   UNL     1     147.251 170.210 191.720  0.00  0.00    -0.461 OA
BRANCH  81  82
ATOM     82  C   UNL     1     147.388 171.563 191.802  0.00  0.00    +0.310 C 
ATOM     83  O   UNL     1     146.465 172.361 191.907  0.00  0.00    -0.251 OA
BRANCH  82  84
ATOM     84  C   UNL     1     148.847 171.973 191.758  0.00  0.00    +0.051 C 
ATOM     85  H   UNL     1     149.391 171.149 191.279  0.00  0.00    +0.041 HD
BRANCH  84  86
ATOM     86  C   UNL     1     149.034 173.226 190.909  0.00  0.00    -0.053 C 
ATOM     87  H   UNL     1     149.974 173.179 190.350  0.00  0.00    +0.024 HD
ATOM     88  H   UNL     1     149.056 174.120 191.540  0.00  0.00    +0.024 HD
ATOM     89  H   UNL     1     148.223 173.343 190.183  0.00  0.00    +0.024 HD
ENDBRANCH  84  86
BRANCH  84  90
ATOM     90  C   UNL     1     149.403 172.149 193.166  0.00  0.00    -0.053 C 
ATOM     91  H   UNL     1     149.249 171.242 193.761  0.00  0.00    +0.024 HD
ATOM     92  H   UNL     1     148.916 172.975 193.694  0.00  0.00    +0.024 HD
ATOM     93  H   UNL     1     150.477 172.357 193.135  0.00  0.00    +0.024 HD
ENDBRANCH  84  90
ENDBRANCH  82  84
ENDBRANCH  81  82
ENDBRANCH   1  81
TORSDOF 32
ENDMDL
MODEL 9
REMARK VINA RESULT:      -4.8      1.572      3.123
REMARK  Name = 2c_conf3
REMARK  32 active torsions:
REMARK  status: ('A' for Active; 'I' for Inactive)
REMARK    1  A    between atoms: N_2  and  C_3
REMARK    2  A    between atoms: N_2  and  C_5
REMARK    3  A    between atoms: C_3  and  C_4
REMARK    4  A    between atoms: C_6  and  C_7
REMARK    5  A    between atoms: C_7  and  C_8
REMARK    6  A    between atoms: C_7  and  C_9
REMARK    7  A    between atoms: C_9  and  O_10
REMARK    8  A    between atoms: C_9  and  C_12
REMARK    9  A    between atoms: O_10  and  C_11
REMARK   10  A    between atoms: C_12  and  C_13
REMARK   11  A    between atoms: C_12  and  C_14
REMARK   12  A    between atoms: C_14  and  O_15
REMARK   13  A    between atoms: C_14  and  C_21
REMARK   14  A    between atoms: O_15  and  C_16
REMARK   15  A    between atoms: C_16  and  C_17
REMARK   16  A    between atoms: C_17  and  C_18
REMARK   17  A    between atoms: C_17  and  C_19
REMARK   18  A    between atoms: C_21  and  C_22
REMARK   19  A    between atoms: C_22  and  C_23
REMARK   20  A    between atoms: C_23  and  C_24
REMARK   21  A    between atoms: C_23  and  C_25
REMARK   22  A    between atoms: C_25  and  O_26
REMARK   23  A    between atoms: C_25  and  C_28
REMARK   24  A    between atoms: O_26  and  C_27
REMARK   25  A    between atoms: C_28  and  C_29
REMARK   26  A    between atoms: C_29  and  O_30
REMARK   27  A    between atoms: C_29  and  C_35
REMARK   28  A    between atoms: O_30  and  C_31
REMARK   29  A    between atoms: C_31  and  C_32
REMARK   30  A    between atoms: C_32  and  C_33
REMARK   31  A    between atoms: C_35  and  C_36
REMARK   32  A    between atoms: C_35  and  C_37
REMARK                            x       y       z     vdW  Elec       q    Type
REMARK                         _______ _______ _______ _____ _____    ______ ____
ROOT
ATOM      1  C   UNL     1     148.320 170.424 190.718  0.00  0.00    +0.108 C 
ATOM      2  H   UNL     1     149.108 170.796 190.060  0.00  0.00    +0.074 HD
ENDROOT
BRANCH   1   3
ATOM      3  C   UNL     1     147.307 169.620 189.868  0.00  0.00    -0.015 C 
ATOM      4  H   UNL     1     147.629 169.619 188.823  0.00  0.00    +0.030 HD
ATOM      5  H   UNL     1     147.317 168.580 190.215  0.00  0.00    +0.030 HD
BRANCH   3   6
ATOM      6  C   UNL     1     145.865 170.142 189.971  0.00  0.00    -0.045 C 
ATOM      7  H   UNL     1     145.700 170.450 191.011  0.00  0.00    +0.027 HD
ATOM      8  H   UNL     1     145.772 171.054 189.377  0.00  0.00    +0.027 HD
BRANCH   6   9
ATOM      9  C   UNL     1     144.735 169.139 189.628  0.00  0.00    -0.017 C 
ATOM     10  H   UNL     1     144.206 168.940 190.574  0.00  0.00    +0.032 HD
BRANCH   9  11
ATOM     11  C   UNL     1     145.277 167.773 189.189  0.00  0.00    -0.060 C 
ATOM     12  H   UNL     1     145.794 167.843 188.227  0.00  0.00    +0.023 HD
ATOM     13  H   UNL     1     144.460 167.056 189.054  0.00  0.00    +0.023 HD
ATOM     14  H   UNL     1     145.979 167.362 189.922  0.00  0.00    +0.023 HD
ENDBRANCH   9  11
BRANCH   9  15
ATOM     15  C   UNL     1     143.657 169.706 188.649  0.00  0.00    +0.064 C 
ATOM     16  H   UNL     1     143.966 170.691 188.275  0.00  0.00    +0.060 HD
BRANCH  15  17
ATOM     17  C   UNL     1     142.284 169.823 189.356  0.00  0.00    +0.011 C 
ATOM     18  H   UNL     1     141.857 170.796 189.092  0.00  0.00    +0.033 HD
ATOM     19  H   UNL     1     141.614 169.051 188.963  0.00  0.00    +0.033 HD
BRANCH  17  20
ATOM     20  C   UNL     1     142.307 169.705 190.895  0.00  0.00    +0.108 C 
ATOM     21  H   UNL     1     143.344 169.562 191.224  0.00  0.00    +0.074 HD
BRANCH  20  22
ATOM     22  C   UNL     1     141.730 170.985 191.570  0.00  0.00    -0.009 C 
ATOM     23  H   UNL     1     141.753 170.841 192.658  0.00  0.00    +0.033 HD
BRANCH  22  24
ATOM     24  C   UNL     1     140.281 171.267 191.156  0.00  0.00    -0.059 C 
ATOM     25  H   UNL     1     140.242 171.818 190.211  0.00  0.00    +0.023 HD
ATOM     26  H   UNL     1     139.719 170.336 191.028  0.00  0.00    +0.023 HD
ATOM     27  H   UNL     1     139.762 171.883 191.897  0.00  0.00    +0.023 HD
ENDBRANCH  22  24
BRANCH  22  28
ATOM     28  C   UNL     1     142.573 172.232 191.278  0.00  0.00    -0.059 C 
ATOM     29  H   UNL     1     143.457 171.980 190.682  0.00  0.00    +0.023 HD
ATOM     30  H   UNL     1     142.900 172.719 192.202  0.00  0.00    +0.023 HD
ATOM     31  H   UNL     1     141.991 172.973 190.719  0.00  0.00    +0.023 HD
ENDBRANCH  22  28
ENDBRANCH  20  22
BRANCH  20  32
ATOM     32  O   UNL     1     141.481 168.577 191.256  0.00  0.00    -0.461 OA
BRANCH  32  33
ATOM     33  C   UNL     1     142.124 167.422 191.596  0.00  0.00    +0.307 C 
ATOM     34  O   UNL     1     142.071 166.369 190.978  0.00  0.00    -0.251 OA
BRANCH  33  35
ATOM     35  C   UNL     1     142.905 167.634 192.869  0.00  0.00    +0.042 C 
ATOM     36  H   UNL     1     143.952 167.817 192.611  0.00  0.00    +0.037 HD
ATOM     37  H   UNL     1     142.494 168.511 193.376  0.00  0.00    +0.037 HD
BRANCH  35  38
ATOM     38  C   UNL     1     142.829 166.428 193.790  0.00  0.00    -0.055 C 
ATOM     39  H   UNL     1     142.429 166.720 194.766  0.00  0.00    +0.023 HD
ATOM     40  H   UNL     1     143.822 165.987 193.937  0.00  0.00    +0.023 HD
ATOM     41  H   UNL     1     142.178 165.654 193.369  0.00  0.00    +0.023 HD
ENDBRANCH  35  38
ENDBRANCH  33  35
ENDBRANCH  32  33
ENDBRANCH  20  32
ENDBRANCH  17  20
ENDBRANCH  15  17
BRANCH  15  42
ATOM     42  O   UNL     1     143.499 168.771 187.574  0.00  0.00    -0.379 OA
BRANCH  42  43
ATOM     43  C   UNL     1     142.144 168.438 187.305  0.00  0.00    +0.037 C 
ATOM     44  H   UNL     1     142.082 167.359 187.131  0.00  0.00    +0.052 HD
ATOM     45  H   UNL     1     141.504 168.693 188.152  0.00  0.00    +0.052 HD
ATOM     46  H   UNL     1     141.788 168.954 186.410  0.00  0.00    +0.052 HD
ENDBRANCH  42  43
ENDBRANCH  15  42
ENDBRANCH   9  15
ENDBRANCH   6   9
ENDBRANCH   3   6
ENDBRANCH   1   3
BRANCH   1  47
ATOM     47  C   UNL     1     148.948 169.584 191.862  0.00  0.00    +0.020 C 
ATOM     48  H   UNL     1     148.506 169.973 192.790  0.00  0.00    +0.036 HD
BRANCH  47  49
ATOM     49  C   UNL     1     150.443 169.906 192.025  0.00  0.00    -0.057 C 
ATOM     50  H   UNL     1     151.075 169.044 191.790  0.00  0.00    +0.023 HD
ATOM     51  H   UNL     1     150.747 170.752 191.403  0.00  0.00    +0.023 HD
ATOM     52  H   UNL     1     150.663 170.179 193.064  0.00  0.00    +0.023 HD
ENDBRANCH  47  49
BRANCH  47  53
ATOM     53  C   UNL     1     148.634 168.061 191.842  0.00  0.00    +0.070 C 
ATOM     54  H   UNL     1     148.146 167.827 190.887  0.00  0.00    +0.061 HD
BRANCH  53  55
ATOM     55  C   UNL     1     149.772 167.012 192.016  0.00  0.00    +0.002 C 
ATOM     56  H   UNL     1     150.677 167.612 192.208  0.00  0.00    +0.037 HD
BRANCH  55  58
ATOM     57  C   UNL     1     150.175 166.310 194.383  0.00  0.00    -0.005 C 
ATOM     58  C   UNL     1     149.592 166.081 193.197  0.00  0.00    -0.065 C 
ATOM     59  H   UNL     1     150.776 167.212 194.499  0.00  0.00    +0.078 HD
ATOM     60  H   UNL     1     149.000 165.192 193.012  0.00  0.00    +0.059 HD
BRANCH  57  62
ATOM     61  C   UNL     1     150.830 164.325 195.690  0.00  0.00    +0.206 C 
ATOM     62  N   UNL     1     150.124 165.511 195.515  0.00  0.00    -0.281 N 
ATOM     63  O   UNL     1     150.836 163.641 196.708  0.00  0.00    -0.279 OA
ATOM     64  H   UNL     1     151.421 164.020 194.814  0.00  0.00    +0.126 HD
BRANCH  62  65
ATOM     65  C   UNL     1     149.312 165.980 196.645  0.00  0.00    +0.016 C 
ATOM     66  H   UNL     1     149.513 165.350 197.520  0.00  0.00    +0.047 HD
ATOM     67  H   UNL     1     149.618 166.999 196.914  0.00  0.00    +0.047 HD
BRANCH  65  68
ATOM     68  C   UNL     1     147.825 165.979 196.317  0.00  0.00    -0.049 C 
ATOM     69  H   UNL     1     147.665 166.296 195.282  0.00  0.00    +0.024 HD
ATOM     70  H   UNL     1     147.274 166.662 196.974  0.00  0.00    +0.024 HD
ATOM     71  H   UNL     1     147.397 164.980 196.439  0.00  0.00    +0.024 HD
ENDBRANCH  65  68
ENDBRANCH  62  65
ENDBRANCH  57  62
ENDBRANCH  55  58
BRANCH  55  72
ATOM     72  C   UNL     1     150.132 166.202 190.767  0.00  0.00    -0.057 C 
ATOM     73  H   UNL     1     149.233 166.003 190.172  0.00  0.00    +0.024 HD
ATOM     74  H   UNL     1     150.569 165.232 191.025  0.00  0.00    +0.024 HD
ATOM     75  H   UNL     1     150.826 166.736 190.111  0.00  0.00    +0.024 HD
ENDBRANCH  55  72
ENDBRANCH  53  55
BRANCH  53  76
ATOM     76  O   UNL     1     147.679 167.776 192.892  0.00  0.00    -0.379 OA
BRANCH  76  77
ATOM     77  C   UNL     1     146.574 166.988 192.464  0.00  0.00    +0.037 C 
ATOM     78  H   UNL     1     146.515 166.061 193.042  0.00  0.00    +0.052 HD
ATOM     79  H   UNL     1     145.659 167.560 192.636  0.00  0.00    +0.052 HD
ATOM     80  H   UNL     1     146.641 166.761 191.397  0.00  0.00    +0.052 HD
ENDBRANCH  76  77
ENDBRANCH  53  76
ENDBRANCH  47  53
ENDBRANCH   1  47
BRANCH   1  81
ATOM     81  O   UNL     1     147.621 171.531 191.340  0.00  0.00    -0.461 OA
BRANCH  81  82
ATOM     82  C   UNL     1     148.252 172.738 191.350  0.00  0.00    +0.310 C 
ATOM     83  O   UNL     1     148.848 173.231 190.400  0.00  0.00    -0.251 OA
BRANCH  82  84
ATOM     84  C   UNL     1     148.118 173.420 192.697  0.00  0.00    +0.051 C 
ATOM     85  H   UNL     1     148.594 174.404 192.601  0.00  0.00    +0.041 HD
BRANCH  84  86
ATOM     86  C   UNL     1     146.652 173.632 193.055  0.00  0.00    -0.053 C 
ATOM     87  H   UNL     1     146.081 172.708 192.918  0.00  0.00    +0.024 HD
ATOM     88  H   UNL     1     146.208 174.407 192.421  0.00  0.00    +0.024 HD
ATOM     89  H   UNL     1     146.535 173.941 194.100  0.00  0.00    +0.024 HD
ENDBRANCH  84  86
BRANCH  84  90
ATOM     90  C   UNL     1     148.863 172.641 193.774  0.00  0.00    -0.053 C 
ATOM     91  H   UNL     1     148.384 172.772 194.751  0.00  0.00    +0.024 HD
ATOM     92  H   UNL     1     149.902 172.975 193.870  0.00  0.00    +0.024 HD
ATOM     93  H   UNL     1     148.874 171.571 193.543  0.00  0.00    +0.024 HD
ENDBRANCH  84  90
ENDBRANCH  82  84
ENDBRANCH  81  82
ENDBRANCH   1  81
TORSDOF 32
ENDMDL
MODEL 10
REMARK VINA RESULT:      -4.8      1.275      2.389
REMARK  Name = 2c_conf3
REMARK  32 active torsions:
REMARK  status: ('A' for Active; 'I' for Inactive)
REMARK    1  A    between atoms: N_2  and  C_3
REMARK    2  A    between atoms: N_2  and  C_5
REMARK    3  A    between atoms: C_3  and  C_4
REMARK    4  A    between atoms: C_6  and  C_7
REMARK    5  A    between atoms: C_7  and  C_8
REMARK    6  A    between atoms: C_7  and  C_9
REMARK    7  A    between atoms: C_9  and  O_10
REMARK    8  A    between atoms: C_9  and  C_12
REMARK    9  A    between atoms: O_10  and  C_11
REMARK   10  A    between atoms: C_12  and  C_13
REMARK   11  A    between atoms: C_12  and  C_14
REMARK   12  A    between atoms: C_14  and  O_15
REMARK   13  A    between atoms: C_14  and  C_21
REMARK   14  A    between atoms: O_15  and  C_16
REMARK   15  A    between atoms: C_16  and  C_17
REMARK   16  A    between atoms: C_17  and  C_18
REMARK   17  A    between atoms: C_17  and  C_19
REMARK   18  A    between atoms: C_21  and  C_22
REMARK   19  A    between atoms: C_22  and  C_23
REMARK   20  A    between atoms: C_23  and  C_24
REMARK   21  A    between atoms: C_23  and  C_25
REMARK   22  A    between atoms: C_25  and  O_26
REMARK   23  A    between atoms: C_25  and  C_28
REMARK   24  A    between atoms: O_26  and  C_27
REMARK   25  A    between atoms: C_28  and  C_29
REMARK   26  A    between atoms: C_29  and  O_30
REMARK   27  A    between atoms: C_29  and  C_35
REMARK   28  A    between atoms: O_30  and  C_31
REMARK   29  A    between atoms: C_31  and  C_32
REMARK   30  A    between atoms: C_32  and  C_33
REMARK   31  A    between atoms: C_35  and  C_36
REMARK   32  A    between atoms: C_35  and  C_37
REMARK                            x       y       z     vdW  Elec       q    Type
REMARK                         _______ _______ _______ _____ _____    ______ ____
ROOT
ATOM      1  C   UNL     1     148.167 169.244 190.849  0.00  0.00    +0.108 C 
ATOM      2  H   UNL     1     149.031 169.615 190.294  0.00  0.00    +0.074 HD
ENDROOT
BRANCH   1   3
ATOM      3  C   UNL     1     147.079 168.813 189.837  0.00  0.00    -0.015 C 
ATOM      4  H   UNL     1     146.091 169.068 190.233  0.00  0.00    +0.030 HD
ATOM      5  H   UNL     1     147.220 169.390 188.915  0.00  0.00    +0.030 HD
BRANCH   3   6
ATOM      6  C   UNL     1     147.129 167.320 189.477  0.00  0.00    -0.045 C 
ATOM      7  H   UNL     1     147.273 167.248 188.391  0.00  0.00    +0.027 HD
ATOM      8  H   UNL     1     148.022 166.875 189.922  0.00  0.00    +0.027 HD
BRANCH   6   9
ATOM      9  C   UNL     1     145.869 166.481 189.807  0.00  0.00    -0.017 C 
ATOM     10  H   UNL     1     145.226 167.126 190.426  0.00  0.00    +0.032 HD
BRANCH   9  11
ATOM     11  C   UNL     1     146.184 165.274 190.698  0.00  0.00    -0.060 C 
ATOM     12  H   UNL     1     146.037 165.513 191.757  0.00  0.00    +0.023 HD
ATOM     13  H   UNL     1     147.231 164.973 190.590  0.00  0.00    +0.023 HD
ATOM     14  H   UNL     1     145.550 164.415 190.454  0.00  0.00    +0.023 HD
ENDBRANCH   9  11
BRANCH   9  15
ATOM     15  C   UNL     1     145.012 166.103 188.556  0.00  0.00    +0.064 C 
ATOM     16  H   UNL     1     145.565 166.330 187.635  0.00  0.00    +0.060 HD
BRANCH  15  17
ATOM     17  C   UNL     1     143.668 166.873 188.561  0.00  0.00    +0.011 C 
ATOM     18  H   UNL     1     143.734 167.661 187.803  0.00  0.00    +0.033 HD
ATOM     19  H   UNL     1     142.865 166.192 188.259  0.00  0.00    +0.033 HD
BRANCH  17  20
ATOM     20  C   UNL     1     143.271 167.524 189.903  0.00  0.00    +0.108 C 
ATOM     21  H   UNL     1     144.127 167.476 190.587  0.00  0.00    +0.074 HD
BRANCH  20  22
ATOM     22  C   UNL     1     142.854 169.013 189.709  0.00  0.00    -0.009 C 
ATOM     23  H   UNL     1     143.028 169.286 188.660  0.00  0.00    +0.033 HD
BRANCH  22  24
ATOM     24  C   UNL     1     143.663 169.971 190.592  0.00  0.00    -0.059 C 
ATOM     25  H   UNL     1     143.078 170.861 190.844  0.00  0.00    +0.023 HD
ATOM     26  H   UNL     1     143.963 169.487 191.527  0.00  0.00    +0.023 HD
ATOM     27  H   UNL     1     144.564 170.324 190.082  0.00  0.00    +0.023 HD
ENDBRANCH  22  24
BRANCH  22  28
ATOM     28  C   UNL     1     141.362 169.242 189.978  0.00  0.00    -0.059 C 
ATOM     29  H   UNL     1     140.893 168.344 190.396  0.00  0.00    +0.023 HD
ATOM     30  H   UNL     1     140.830 169.523 189.064  0.00  0.00    +0.023 HD
ATOM     31  H   UNL     1     141.216 170.060 190.692  0.00  0.00    +0.023 HD
ENDBRANCH  22  28
ENDBRANCH  20  22
BRANCH  20  32
ATOM     32  O   UNL     1     142.141 166.790 190.423  0.00  0.00    -0.461 OA
BRANCH  32  33
ATOM     33  C   UNL     1     142.384 165.930 191.455  0.00  0.00    +0.307 C 
ATOM     34  O   UNL     1     142.815 164.791 191.345  0.00  0.00    -0.251 OA
BRANCH  33  35
ATOM     35  C   UNL     1     142.023 166.590 192.761  0.00  0.00    +0.042 C 
ATOM     36  H   UNL     1     141.469 167.509 192.547  0.00  0.00    +0.037 HD
ATOM     37  H   UNL     1     141.387 165.902 193.324  0.00  0.00    +0.037 HD
BRANCH  35  38
ATOM     38  C   UNL     1     143.253 166.937 193.582  0.00  0.00    -0.055 C 
ATOM     39  H   UNL     1     143.201 166.458 194.565  0.00  0.00    +0.023 HD
ATOM     40  H   UNL     1     143.334 168.020 193.725  0.00  0.00    +0.023 HD
ATOM     41  H   UNL     1     144.167 166.596 193.081  0.00  0.00    +0.023 HD
ENDBRANCH  35  38
ENDBRANCH  33  35
ENDBRANCH  32  33
ENDBRANCH  20  32
ENDBRANCH  17  20
ENDBRANCH  15  17
BRANCH  15  42
ATOM     42  O   UNL     1     144.697 164.706 188.639  0.00  0.00    -0.379 OA
BRANCH  42  43
ATOM     43  C   UNL     1     144.686 164.051 187.380  0.00  0.00    +0.037 C 
ATOM     44  H   UNL     1     145.512 163.334 187.356  0.00  0.00    +0.052 HD
ATOM     45  H   UNL     1     143.749 163.509 187.229  0.00  0.00    +0.052 HD
ATOM     46  H   UNL     1     144.827 164.768 186.567  0.00  0.00    +0.052 HD
ENDBRANCH  42  43
ENDBRANCH  15  42
ENDBRANCH   9  15
ENDBRANCH   6   9
ENDBRANCH   3   6
ENDBRANCH   1   3
BRANCH   1  47
ATOM     47  C   UNL     1     148.607 168.092 191.789  0.00  0.00    +0.020 C 
ATOM     48  H   UNL     1     148.440 167.167 191.219  0.00  0.00    +0.036 HD
BRANCH  47  49
ATOM     49  C   UNL     1     147.642 167.949 192.978  0.00  0.00    -0.057 C 
ATOM     50  H   UNL     1     147.956 167.159 193.668  0.00  0.00    +0.023 HD
ATOM     51  H   UNL     1     147.539 168.886 193.533  0.00  0.00    +0.023 HD
ATOM     52  H   UNL     1     146.641 167.675 192.627  0.00  0.00    +0.023 HD
ENDBRANCH  47  49
BRANCH  47  53
ATOM     53  C   UNL     1     150.108 168.079 192.196  0.00  0.00    +0.070 C 
ATOM     54  H   UNL     1     150.175 168.363 193.255  0.00  0.00    +0.061 HD
BRANCH  53  55
ATOM     55  C   UNL     1     150.964 166.787 192.038  0.00  0.00    +0.002 C 
ATOM     56  H   UNL     1     151.975 167.151 191.794  0.00  0.00    +0.037 HD
BRANCH  55  58
ATOM     57  C   UNL     1     150.145 165.979 194.260  0.00  0.00    -0.005 C 
ATOM     58  C   UNL     1     151.078 165.952 193.297  0.00  0.00    -0.065 C 
ATOM     59  H   UNL     1     149.266 166.607 194.112  0.00  0.00    +0.078 HD
ATOM     60  H   UNL     1     151.985 165.366 193.394  0.00  0.00    +0.059 HD
BRANCH  57  62
ATOM     61  C   UNL     1     150.874 164.133 195.722  0.00  0.00    +0.206 C 
ATOM     62  N   UNL     1     150.164 165.301 195.470  0.00  0.00    -0.281 N 
ATOM     63  O   UNL     1     150.942 163.558 196.804  0.00  0.00    -0.279 OA
ATOM     64  H   UNL     1     151.407 163.732 194.848  0.00  0.00    +0.126 HD
BRANCH  62  65
ATOM     65  C   UNL     1     149.428 165.894 196.593  0.00  0.00    +0.016 C 
ATOM     66  H   UNL     1     149.594 165.289 197.493  0.00  0.00    +0.047 HD
ATOM     67  H   UNL     1     149.831 166.892 196.807  0.00  0.00    +0.047 HD
BRANCH  65  68
ATOM     68  C   UNL     1     147.939 166.014 196.299  0.00  0.00    -0.049 C 
ATOM     69  H   UNL     1     147.538 166.934 196.738  0.00  0.00    +0.024 HD
ATOM     70  H   UNL     1     147.383 165.166 196.717  0.00  0.00    +0.024 HD
ATOM     71  H   UNL     1     147.751 166.039 195.222  0.00  0.00    +0.024 HD
ENDBRANCH  65  68
ENDBRANCH  62  65
ENDBRANCH  57  62
ENDBRANCH  55  58
BRANCH  55  72
ATOM     72  C   UNL     1     150.606 165.888 190.851  0.00  0.00    -0.057 C 
ATOM     73  H   UNL     1     151.131 164.928 190.930  0.00  0.00    +0.024 HD
ATOM     74  H   UNL     1     150.901 166.338 189.898  0.00  0.00    +0.024 HD
ATOM     75  H   UNL     1     149.538 165.654 190.813  0.00  0.00    +0.024 HD
ENDBRANCH  55  72
ENDBRANCH  53  55
BRANCH  53  76
ATOM     76  O   UNL     1     150.800 169.098 191.435  0.00  0.00    -0.379 OA
BRANCH  76  77
ATOM     77  C   UNL     1     151.723 169.861 192.204  0.00  0.00    +0.037 C 
ATOM     78  H   UNL     1     152.497 169.215 192.627  0.00  0.00    +0.052 HD
ATOM     79  H   UNL     1     152.203 170.585 191.541  0.00  0.00    +0.052 HD
ATOM     80  H   UNL     1     151.214 170.410 193.000  0.00  0.00    +0.052 HD
ENDBRANCH  76  77
ENDBRANCH  53  76
ENDBRANCH  47  53
ENDBRANCH   1  47
BRANCH   1  81
ATOM     81  O   UNL     1     147.622 170.293 191.690  0.00  0.00    -0.461 OA
BRANCH  81  82
ATOM     82  C   UNL     1     148.275 171.489 191.694  0.00  0.00    +0.310 C 
ATOM     83  O   UNL     1     148.875 171.968 190.740  0.00  0.00    -0.251 OA
BRANCH  82  84
ATOM     84  C   UNL     1     148.160 172.175 193.040  0.00  0.00    +0.051 C 
ATOM     85  H   UNL     1     147.683 171.457 193.720  0.00  0.00    +0.041 HD
BRANCH  84  86
ATOM     86  C   UNL     1     149.538 172.515 193.596  0.00  0.00    -0.053 C 
ATOM     87  H   UNL     1     150.050 173.238 192.952  0.00  0.00    +0.024 HD
ATOM     88  H   UNL     1     150.160 171.616 193.663  0.00  0.00    +0.024 HD
ATOM     89  H   UNL     1     149.470 172.955 194.597  0.00  0.00    +0.024 HD
ENDBRANCH  84  86
BRANCH  84  90
ATOM     90  C   UNL     1     147.262 173.402 192.948  0.00  0.00    -0.053 C 
ATOM     91  H   UNL     1     147.849 174.298 192.718  0.00  0.00    +0.024 HD
ATOM     92  H   UNL     1     146.732 173.588 193.888  0.00  0.00    +0.024 HD
ATOM     93  H   UNL     1     146.513 173.276 192.159  0.00  0.00    +0.024 HD
ENDBRANCH  84  90
ENDBRANCH  82  84
ENDBRANCH  81  82
ENDBRANCH   1  81
TORSDOF 32
ENDMDL
