MODEL 1
REMARK VINA RESULT:      -5.1      0.000      0.000
REMARK  Name = 2c_conf1
REMARK  32 active torsions:
REMARK  status: ('A' for Active; 'I' for Inactive)
REMARK    1  A    between atoms: N_2  and  C_3
REMARK    2  A    between atoms: N_2  and  C_5
REMARK    3  A    between atoms: C_3  and  C_4
REMARK    4  A    between atoms: C_6  and  C_7
REMARK    5  A    between atoms: C_7  and  C_8
REMARK    6  A    between atoms: C_7  and  C_9
REMARK    7  A    between atoms: C_9  and  O_10
REMARK    8  A    between atoms: C_9  and  C_12
REMARK    9  A    between atoms: O_10  and  C_11
REMARK   10  A    between atoms: C_12  and  C_13
REMARK   11  A    between atoms: C_12  and  C_14
REMARK   12  A    between atoms: C_14  and  O_15
REMARK   13  A    between atoms: C_14  and  C_21
REMARK   14  A    between atoms: O_15  and  C_16
REMARK   15  A    between atoms: C_16  and  C_17
REMARK   16  A    between atoms: C_17  and  C_18
REMARK   17  A    between atoms: C_17  and  C_19
REMARK   18  A    between atoms: C_21  and  C_22
REMARK   19  A    between atoms: C_22  and  C_23
REMARK   20  A    between atoms: C_23  and  C_24
REMARK   21  A    between atoms: C_23  and  C_25
REMARK   22  A    between atoms: C_25  and  O_26
REMARK   23  A    between atoms: C_25  and  C_28
REMARK   24  A    between atoms: O_26  and  C_27
REMARK   25  A    between atoms: C_28  and  C_29
REMARK   26  A    between atoms: C_29  and  O_30
REMARK   27  A    between atoms: C_29  and  C_35
REMARK   28  A    between atoms: O_30  and  C_31
REMARK   29  A    between atoms: C_31  and  C_32
REMARK   30  A    between atoms: C_32  and  C_33
REMARK   31  A    between atoms: C_35  and  C_36
REMARK   32  A    between atoms: C_35  and  C_37
REMARK                            x       y       z     vdW  Elec       q    Type
REMARK                         _______ _______ _______ _____ _____    ______ ____
ROOT
ATOM      1  C   UNL     1     148.279 169.214 190.809  0.00  0.00    +0.108 C 
ATOM      2  H   UNL     1     149.130 169.578 190.234  0.00  0.00    +0.074 HD
ENDROOT
BRANCH   1   3
ATOM      3  C   UNL     1     147.186 168.741 189.824  0.00  0.00    -0.015 C 
ATOM      4  H   UNL     1     146.305 168.428 190.398  0.00  0.00    +0.030 HD
ATOM      5  H   UNL     1     147.538 167.859 189.280  0.00  0.00    +0.030 HD
BRANCH   3   6
ATOM      6  C   UNL     1     146.686 169.788 188.818  0.00  0.00    -0.045 C 
ATOM      7  H   UNL     1     147.428 170.595 188.775  0.00  0.00    +0.027 HD
ATOM      8  H   UNL     1     146.685 169.338 187.817  0.00  0.00    +0.027 HD
BRANCH   6   9
ATOM      9  C   UNL     1     145.299 170.405 189.102  0.00  0.00    -0.017 C 
ATOM     10  H   UNL     1     144.661 170.232 188.230  0.00  0.00    +0.032 HD
BRANCH   9  11
ATOM     11  C   UNL     1     145.473 171.929 189.222  0.00  0.00    -0.060 C 
ATOM     12  H   UNL     1     144.974 172.305 190.122  0.00  0.00    +0.023 HD
ATOM     13  H   UNL     1     145.043 172.446 188.354  0.00  0.00    +0.023 HD
ATOM     14  H   UNL     1     146.528 172.211 189.304  0.00  0.00    +0.023 HD
ENDBRANCH   9  11
BRANCH   9  15
ATOM     15  C   UNL     1     144.580 169.784 190.336  0.00  0.00    +0.064 C 
ATOM     16  H   UNL     1     145.318 169.223 190.922  0.00  0.00    +0.060 HD
BRANCH  15  17
ATOM     17  C   UNL     1     143.482 168.793 189.902  0.00  0.00    +0.011 C 
ATOM     18  H   UNL     1     143.501 168.711 188.807  0.00  0.00    +0.033 HD
ATOM     19  H   UNL     1     142.493 169.190 190.157  0.00  0.00    +0.033 HD
BRANCH  17  20
ATOM     20  C   UNL     1     143.661 167.390 190.530  0.00  0.00    +0.108 C 
ATOM     21  H   UNL     1     142.676 166.941 190.721  0.00  0.00    +0.074 HD
BRANCH  20  22
ATOM     22  C   UNL     1     144.473 166.401 189.650  0.00  0.00    -0.009 C 
ATOM     23  H   UNL     1     145.540 166.498 189.893  0.00  0.00    +0.033 HD
BRANCH  22  24
ATOM     24  C   UNL     1     144.079 164.929 189.845  0.00  0.00    -0.059 C 
ATOM     25  H   UNL     1     143.241 164.814 190.536  0.00  0.00    +0.023 HD
ATOM     26  H   UNL     1     143.808 164.447 188.901  0.00  0.00    +0.023 HD
ATOM     27  H   UNL     1     144.918 164.368 190.270  0.00  0.00    +0.023 HD
ENDBRANCH  22  24
BRANCH  22  28
ATOM     28  C   UNL     1     144.310 166.757 188.165  0.00  0.00    -0.059 C 
ATOM     29  H   UNL     1     145.273 166.988 187.694  0.00  0.00    +0.023 HD
ATOM     30  H   UNL     1     143.657 167.634 188.049  0.00  0.00    +0.023 HD
ATOM     31  H   UNL     1     143.853 165.927 187.610  0.00  0.00    +0.023 HD
ENDBRANCH  22  28
ENDBRANCH  20  22
BRANCH  20  32
ATOM     32  O   UNL     1     144.339 167.526 191.803  0.00  0.00    -0.461 OA
BRANCH  32  33
ATOM     33  C   UNL     1     143.567 167.321 192.915  0.00  0.00    +0.307 C 
ATOM     34  O   UNL     1     142.930 168.188 193.503  0.00  0.00    -0.251 OA
BRANCH  33  35
ATOM     35  C   UNL     1     143.672 165.880 193.349  0.00  0.00    +0.042 C 
ATOM     36  H   UNL     1     143.517 165.247 192.466  0.00  0.00    +0.037 HD
ATOM     37  H   UNL     1     142.878 165.669 194.078  0.00  0.00    +0.037 HD
BRANCH  35  38
ATOM     38  C   UNL     1     145.017 165.583 193.999  0.00  0.00    -0.055 C 
ATOM     39  H   UNL     1     144.888 165.220 195.027  0.00  0.00    +0.023 HD
ATOM     40  H   UNL     1     145.640 166.488 194.043  0.00  0.00    +0.023 HD
ATOM     41  H   UNL     1     145.559 164.815 193.431  0.00  0.00    +0.023 HD
ENDBRANCH  35  38
ENDBRANCH  33  35
ENDBRANCH  32  33
ENDBRANCH  20  32
ENDBRANCH  17  20
ENDBRANCH  15  17
BRANCH  15  42
ATOM     42  O   UNL     1     143.970 170.811 191.120  0.00  0.00    -0.379 OA
BRANCH  42  43
ATOM     43  C   UNL     1     142.551 170.763 191.106  0.00  0.00    +0.037 C 
ATOM     44  H   UNL     1     142.174 169.978 191.769  0.00  0.00    +0.052 HD
ATOM     45  H   UNL     1     142.224 170.539 190.089  0.00  0.00    +0.052 HD
ATOM     46  H   UNL     1     142.125 171.728 191.387  0.00  0.00    +0.052 HD
ENDBRANCH  42  43
ENDBRANCH  15  42
ENDBRANCH   9  15
ENDBRANCH   6   9
ENDBRANCH   3   6
ENDBRANCH   1   3
BRANCH   1  47
ATOM     47  C   UNL     1     148.770 168.037 191.707  0.00  0.00    +0.020 C 
ATOM     48  H   UNL     1     148.638 167.111 191.128  0.00  0.00    +0.036 HD
BRANCH  47  49
ATOM     49  C   UNL     1     147.887 167.896 192.967  0.00  0.00    -0.057 C 
ATOM     50  H   UNL     1     148.341 167.215 193.696  0.00  0.00    +0.023 HD
ATOM     51  H   UNL     1     146.888 167.517 192.723  0.00  0.00    +0.023 HD
ATOM     52  H   UNL     1     147.764 168.861 193.476  0.00  0.00    +0.023 HD
ENDBRANCH  47  49
BRANCH  47  53
ATOM     53  C   UNL     1     150.270 168.076 192.142  0.00  0.00    +0.070 C 
ATOM     54  H   UNL     1     150.269 168.357 193.208  0.00  0.00    +0.061 HD
BRANCH  53  55
ATOM     55  C   UNL     1     151.011 166.702 192.084  0.00  0.00    +0.002 C 
ATOM     56  H   UNL     1     152.084 166.914 191.967  0.00  0.00    +0.037 HD
BRANCH  55  58
ATOM     57  C   UNL     1     150.372 166.206 194.491  0.00  0.00    -0.005 C 
ATOM     58  C   UNL     1     150.889 165.819 193.312  0.00  0.00    -0.065 C 
ATOM     59  H   UNL     1     150.039 167.239 194.605  0.00  0.00    +0.078 HD
ATOM     60  H   UNL     1     151.227 164.799 193.163  0.00  0.00    +0.059 HD
BRANCH  57  62
ATOM     61  C   UNL     1     150.931 164.234 195.768  0.00  0.00    +0.206 C 
ATOM     62  N   UNL     1     150.214 165.421 195.628  0.00  0.00    -0.281 N 
ATOM     63  O   UNL     1     150.922 163.478 196.734  0.00  0.00    -0.279 OA
ATOM     64  H   UNL     1     151.562 164.016 194.891  0.00  0.00    +0.126 HD
BRANCH  62  65
ATOM     65  C   UNL     1     149.332 165.804 196.732  0.00  0.00    +0.016 C 
ATOM     66  H   UNL     1     149.725 166.720 197.195  0.00  0.00    +0.047 HD
ATOM     67  H   UNL     1     149.343 165.036 197.513  0.00  0.00    +0.047 HD
BRANCH  65  68
ATOM     68  C   UNL     1     147.911 166.073 196.254  0.00  0.00    -0.049 C 
ATOM     69  H   UNL     1     147.392 166.730 196.961  0.00  0.00    +0.024 HD
ATOM     70  H   UNL     1     147.330 165.146 196.164  0.00  0.00    +0.024 HD
ATOM     71  H   UNL     1     147.909 166.564 195.274  0.00  0.00    +0.024 HD
ENDBRANCH  65  68
ENDBRANCH  62  65
ENDBRANCH  57  62
ENDBRANCH  55  58
BRANCH  55  72
ATOM     72  C   UNL     1     150.606 165.930 190.813  0.00  0.00    -0.057 C 
ATOM     73  H   UNL     1     151.017 164.912 190.831  0.00  0.00    +0.024 HD
ATOM     74  H   UNL     1     150.962 166.416 189.901  0.00  0.00    +0.024 HD
ATOM     75  H   UNL     1     149.516 165.837 190.744  0.00  0.00    +0.024 HD
ENDBRANCH  55  72
ENDBRANCH  53  55
BRANCH  53  76
ATOM     76  O   UNL     1     151.004 169.061 191.407  0.00  0.00    -0.379 OA
BRANCH  76  77
ATOM     77  C   UNL     1     151.738 169.955 192.227  0.00  0.00    +0.037 C 
ATOM     78  H   UNL     1     152.165 170.771 191.638  0.00  0.00    +0.052 HD
ATOM     79  H   UNL     1     152.557 169.405 192.698  0.00  0.00    +0.052 HD
ATOM     80  H   UNL     1     151.095 170.363 193.015  0.00  0.00    +0.052 HD
ENDBRANCH  76  77
ENDBRANCH  53  76
ENDBRANCH  47  53
ENDBRANCH   1  47
BRANCH   1  81
ATOM     81  O   UNL     1     147.716 170.247 191.636  0.00  0.00    -0.461 OA
BRANCH  81  82
ATOM     82  C   UNL     1     148.358 171.447 191.660  0.00  0.00    +0.310 C 
ATOM     83  O   UNL     1     148.965 171.952 190.726  0.00  0.00    -0.251 OA
BRANCH  82  84
ATOM     84  C   UNL     1     148.149 172.111 193.007  0.00  0.00    +0.051 C 
ATOM     85  H   UNL     1     147.655 171.391 193.672  0.00  0.00    +0.041 HD
BRANCH  84  86
ATOM     86  C   UNL     1     149.491 172.492 193.629  0.00  0.00    -0.053 C 
ATOM     87  H   UNL     1     150.226 171.692 193.491  0.00  0.00    +0.024 HD
ATOM     88  H   UNL     1     149.890 173.401 193.163  0.00  0.00    +0.024 HD
ATOM     89  H   UNL     1     149.395 172.688 194.703  0.00  0.00    +0.024 HD
ENDBRANCH  84  86
BRANCH  84  90
ATOM     90  C   UNL     1     147.250 173.329 192.822  0.00  0.00    -0.053 C 
ATOM     91  H   UNL     1     146.571 173.452 193.680  0.00  0.00    +0.024 HD
ATOM     92  H   UNL     1     147.845 174.244 192.729  0.00  0.00    +0.024 HD
ATOM     93  H   UNL     1     146.627 173.237 191.925  0.00  0.00    +0.024 HD
ENDBRANCH  84  90
ENDBRANCH  82  84
ENDBRANCH  81  82
ENDBRANCH   1  81
TORSDOF 32
ENDMDL
MODEL 2
REMARK VINA RESULT:      -5.0      2.782      4.730
REMARK  Name = 2c_conf1
REMARK  32 active torsions:
REMARK  status: ('A' for Active; 'I' for Inactive)
REMARK    1  A    between atoms: N_2  and  C_3
REMARK    2  A    between atoms: N_2  and  C_5
REMARK    3  A    between atoms: C_3  and  C_4
REMARK    4  A    between atoms: C_6  and  C_7
REMARK    5  A    between atoms: C_7  and  C_8
REMARK    6  A    between atoms: C_7  and  C_9
REMARK    7  A    between atoms: C_9  and  O_10
REMARK    8  A    between atoms: C_9  and  C_12
REMARK    9  A    between atoms: O_10  and  C_11
REMARK   10  A    between atoms: C_12  and  C_13
REMARK   11  A    between atoms: C_12  and  C_14
REMARK   12  A    between atoms: C_14  and  O_15
REMARK   13  A    between atoms: C_14  and  C_21
REMARK   14  A    between atoms: O_15  and  C_16
REMARK   15  A    between atoms: C_16  and  C_17
REMARK   16  A    between atoms: C_17  and  C_18
REMARK   17  A    between atoms: C_17  and  C_19
REMARK   18  A    between atoms: C_21  and  C_22
REMARK   19  A    between atoms: C_22  and  C_23
REMARK   20  A    between atoms: C_23  and  C_24
REMARK   21  A    between atoms: C_23  and  C_25
REMARK   22  A    between atoms: C_25  and  O_26
REMARK   23  A    between atoms: C_25  and  C_28
REMARK   24  A    between atoms: O_26  and  C_27
REMARK   25  A    between atoms: C_28  and  C_29
REMARK   26  A    between atoms: C_29  and  O_30
REMARK   27  A    between atoms: C_29  and  C_35
REMARK   28  A    between atoms: O_30  and  C_31
REMARK   29  A    between atoms: C_31  and  C_32
REMARK   30  A    between atoms: C_32  and  C_33
REMARK   31  A    between atoms: C_35  and  C_36
REMARK   32  A    between atoms: C_35  and  C_37
REMARK                            x       y       z     vdW  Elec       q    Type
REMARK                         _______ _______ _______ _____ _____    ______ ____
ROOT
ATOM      1  C   UNL     1     149.041 169.420 191.645  0.00  0.00    +0.108 C 
ATOM      2  H   UNL     1     149.339 169.686 190.633  0.00  0.00    +0.074 HD
ENDROOT
BRANCH   1   3
ATOM      3  C   UNL     1     147.924 168.354 191.566  0.00  0.00    -0.015 C 
ATOM      4  H   UNL     1     147.079 168.682 192.185  0.00  0.00    +0.030 HD
ATOM      5  H   UNL     1     148.282 167.413 191.993  0.00  0.00    +0.030 HD
BRANCH   3   6
ATOM      6  C   UNL     1     147.346 168.087 190.168  0.00  0.00    -0.045 C 
ATOM      7  H   UNL     1     146.641 168.894 189.936  0.00  0.00    +0.027 HD
ATOM      8  H   UNL     1     148.154 168.185 189.432  0.00  0.00    +0.027 HD
BRANCH   6   9
ATOM      9  C   UNL     1     146.633 166.732 189.967  0.00  0.00    -0.017 C 
ATOM     10  H   UNL     1     147.235 165.953 190.445  0.00  0.00    +0.032 HD
BRANCH   9  11
ATOM     11  C   UNL     1     146.627 166.418 188.461  0.00  0.00    -0.060 C 
ATOM     12  H   UNL     1     145.603 166.265 188.102  0.00  0.00    +0.023 HD
ATOM     13  H   UNL     1     147.202 165.508 188.244  0.00  0.00    +0.023 HD
ATOM     14  H   UNL     1     147.049 167.241 187.874  0.00  0.00    +0.023 HD
ENDBRANCH   9  11
BRANCH   9  15
ATOM     15  C   UNL     1     145.211 166.675 190.598  0.00  0.00    +0.064 C 
ATOM     16  H   UNL     1     145.016 167.630 191.102  0.00  0.00    +0.060 HD
BRANCH  15  17
ATOM     17  C   UNL     1     145.115 165.563 191.661  0.00  0.00    +0.011 C 
ATOM     18  H   UNL     1     146.021 164.946 191.601  0.00  0.00    +0.033 HD
ATOM     19  H   UNL     1     144.279 164.893 191.431  0.00  0.00    +0.033 HD
BRANCH  17  20
ATOM     20  C   UNL     1     144.960 166.119 193.096  0.00  0.00    +0.108 C 
ATOM     21  H   UNL     1     145.414 167.118 193.158  0.00  0.00    +0.074 HD
BRANCH  20  22
ATOM     22  C   UNL     1     143.486 166.236 193.574  0.00  0.00    -0.009 C 
ATOM     23  H   UNL     1     143.411 165.852 194.600  0.00  0.00    +0.033 HD
BRANCH  22  24
ATOM     24  C   UNL     1     142.945 167.673 193.570  0.00  0.00    -0.059 C 
ATOM     25  H   UNL     1     142.588 167.984 194.554  0.00  0.00    +0.023 HD
ATOM     26  H   UNL     1     143.698 168.396 193.240  0.00  0.00    +0.023 HD
ATOM     27  H   UNL     1     142.094 167.753 192.886  0.00  0.00    +0.023 HD
ENDBRANCH  22  24
BRANCH  22  28
ATOM     28  C   UNL     1     142.574 165.368 192.695  0.00  0.00    -0.059 C 
ATOM     29  H   UNL     1     143.151 164.728 192.017  0.00  0.00    +0.023 HD
ATOM     30  H   UNL     1     141.913 166.000 192.085  0.00  0.00    +0.023 HD
ATOM     31  H   UNL     1     141.936 164.720 193.311  0.00  0.00    +0.023 HD
ENDBRANCH  22  28
ENDBRANCH  20  22
BRANCH  20  32
ATOM     32  O   UNL     1     145.667 165.253 194.017  0.00  0.00    -0.461 OA
BRANCH  32  33
ATOM     33  C   UNL     1     147.021 165.446 194.096  0.00  0.00    +0.307 C 
ATOM     34  O   UNL     1     147.871 164.686 193.645  0.00  0.00    -0.251 OA
BRANCH  33  35
ATOM     35  C   UNL     1     147.311 166.701 194.882  0.00  0.00    +0.042 C 
ATOM     36  H   UNL     1     146.381 167.277 194.958  0.00  0.00    +0.037 HD
ATOM     37  H   UNL     1     148.053 167.298 194.337  0.00  0.00    +0.037 HD
BRANCH  35  38
ATOM     38  C   UNL     1     147.866 166.384 196.264  0.00  0.00    -0.055 C 
ATOM     39  H   UNL     1     148.918 166.689 196.348  0.00  0.00    +0.023 HD
ATOM     40  H   UNL     1     147.817 165.305 196.471  0.00  0.00    +0.023 HD
ATOM     41  H   UNL     1     147.296 166.912 197.040  0.00  0.00    +0.023 HD
ENDBRANCH  35  38
ENDBRANCH  33  35
ENDBRANCH  32  33
ENDBRANCH  20  32
ENDBRANCH  17  20
ENDBRANCH  15  17
BRANCH  15  42
ATOM     42  O   UNL     1     144.233 166.414 189.589  0.00  0.00    -0.379 OA
BRANCH  42  43
ATOM     43  C   UNL     1     143.164 167.348 189.585  0.00  0.00    +0.037 C 
ATOM     44  H   UNL     1     143.424 168.251 190.148  0.00  0.00    +0.052 HD
ATOM     45  H   UNL     1     142.300 166.884 190.062  0.00  0.00    +0.052 HD
ATOM     46  H   UNL     1     142.880 167.612 188.564  0.00  0.00    +0.052 HD
ENDBRANCH  42  43
ENDBRANCH  15  42
ENDBRANCH   9  15
ENDBRANCH   6   9
ENDBRANCH   3   6
ENDBRANCH   1   3
BRANCH   1  47
ATOM     47  C   UNL     1     150.294 168.861 192.389  0.00  0.00    +0.020 C 
ATOM     48  H   UNL     1     150.055 168.852 193.463  0.00  0.00    +0.036 HD
BRANCH  47  49
ATOM     49  C   UNL     1     151.506 169.803 192.216  0.00  0.00    -0.057 C 
ATOM     50  H   UNL     1     151.194 170.853 192.208  0.00  0.00    +0.023 HD
ATOM     51  H   UNL     1     152.048 169.601 191.286  0.00  0.00    +0.023 HD
ATOM     52  H   UNL     1     152.215 169.694 193.047  0.00  0.00    +0.023 HD
ENDBRANCH  47  49
BRANCH  47  53
ATOM     53  C   UNL     1     150.726 167.406 192.020  0.00  0.00    +0.070 C 
ATOM     54  H   UNL     1     149.816 166.789 192.102  0.00  0.00    +0.061 HD
BRANCH  53  55
ATOM     55  C   UNL     1     151.219 167.213 190.551  0.00  0.00    +0.002 C 
ATOM     56  H   UNL     1     150.928 168.112 189.988  0.00  0.00    +0.037 HD
BRANCH  55  58
ATOM     57  C   UNL     1     153.299 166.311 189.408  0.00  0.00    -0.005 C 
ATOM     58  C   UNL     1     152.716 167.064 190.357  0.00  0.00    -0.065 C 
ATOM     59  H   UNL     1     152.666 165.728 188.737  0.00  0.00    +0.078 HD
ATOM     60  H   UNL     1     153.316 167.657 191.038  0.00  0.00    +0.059 HD
BRANCH  57  62
ATOM     61  C   UNL     1     155.532 165.912 190.236  0.00  0.00    +0.206 C 
ATOM     62  N   UNL     1     154.663 166.171 189.177  0.00  0.00    -0.281 N 
ATOM     63  O   UNL     1     156.741 165.720 190.165  0.00  0.00    -0.279 OA
ATOM     64  H   UNL     1     155.014 165.875 191.208  0.00  0.00    +0.126 HD
BRANCH  62  65
ATOM     65  C   UNL     1     155.246 166.252 187.837  0.00  0.00    +0.016 C 
ATOM     66  H   UNL     1     155.354 165.235 187.437  0.00  0.00    +0.047 HD
ATOM     67  H   UNL     1     156.258 166.672 187.886  0.00  0.00    +0.047 HD
BRANCH  65  68
ATOM     68  C   UNL     1     154.370 167.058 186.887  0.00  0.00    -0.049 C 
ATOM     69  H   UNL     1     154.392 168.118 187.160  0.00  0.00    +0.024 HD
ATOM     70  H   UNL     1     153.325 166.722 186.914  0.00  0.00    +0.024 HD
ATOM     71  H   UNL     1     154.722 166.969 185.853  0.00  0.00    +0.024 HD
ENDBRANCH  65  68
ENDBRANCH  62  65
ENDBRANCH  57  62
ENDBRANCH  55  58
BRANCH  55  72
ATOM     72  C   UNL     1     150.463 166.048 189.882  0.00  0.00    -0.057 C 
ATOM     73  H   UNL     1     150.347 166.229 188.806  0.00  0.00    +0.024 HD
ATOM     74  H   UNL     1     149.464 165.905 190.304  0.00  0.00    +0.024 HD
ATOM     75  H   UNL     1     151.016 165.109 189.995  0.00  0.00    +0.024 HD
ENDBRANCH  55  72
ENDBRANCH  53  55
BRANCH  53  76
ATOM     76  O   UNL     1     151.705 166.902 192.936  0.00  0.00    -0.379 OA
BRANCH  76  77
ATOM     77  C   UNL     1     151.193 165.944 193.849  0.00  0.00    +0.037 C 
ATOM     78  H   UNL     1     152.000 165.452 194.397  0.00  0.00    +0.052 HD
ATOM     79  H   UNL     1     150.645 165.184 193.286  0.00  0.00    +0.052 HD
ATOM     80  H   UNL     1     150.503 166.422 194.552  0.00  0.00    +0.052 HD
ENDBRANCH  76  77
ENDBRANCH  53  76
ENDBRANCH  47  53
ENDBRANCH   1  47
BRANCH   1  81
ATOM     81  O   UNL     1     148.524 170.554 192.363  0.00  0.00    -0.461 OA
BRANCH  81  82
ATOM     82  C   UNL     1     148.239 171.673 191.641  0.00  0.00    +0.310 C 
ATOM     83  O   UNL     1     147.798 171.694 190.500  0.00  0.00    -0.251 OA
BRANCH  82  84
ATOM     84  C   UNL     1     148.482 172.904 192.491  0.00  0.00    +0.051 C 
ATOM     85  H   UNL     1     148.959 173.667 191.863  0.00  0.00    +0.041 HD
BRANCH  84  86
ATOM     86  C   UNL     1     147.159 173.469 193.003  0.00  0.00    -0.053 C 
ATOM     87  H   UNL     1     146.864 174.355 192.430  0.00  0.00    +0.024 HD
ATOM     88  H   UNL     1     146.357 172.725 192.911  0.00  0.00    +0.024 HD
ATOM     89  H   UNL     1     147.224 173.752 194.060  0.00  0.00    +0.024 HD
ENDBRANCH  84  86
BRANCH  84  90
ATOM     90  C   UNL     1     149.416 172.535 193.638  0.00  0.00    -0.053 C 
ATOM     91  H   UNL     1     150.469 172.587 193.322  0.00  0.00    +0.024 HD
ATOM     92  H   UNL     1     149.284 173.217 194.485  0.00  0.00    +0.024 HD
ATOM     93  H   UNL     1     149.234 171.514 193.993  0.00  0.00    +0.024 HD
ENDBRANCH  84  90
ENDBRANCH  82  84
ENDBRANCH  81  82
ENDBRANCH   1  81
TORSDOF 32
ENDMDL
MODEL 3
REMARK VINA RESULT:      -5.0      2.170      6.373
REMARK  Name = 2c_conf1
REMARK  32 active torsions:
REMARK  status: ('A' for Active; 'I' for Inactive)
REMARK    1  A    between atoms: N_2  and  C_3
REMARK    2  A    between atoms: N_2  and  C_5
REMARK    3  A    between atoms: C_3  and  C_4
REMARK    4  A    between atoms: C_6  and  C_7
REMARK    5  A    between atoms: C_7  and  C_8
REMARK    6  A    between atoms: C_7  and  C_9
REMARK    7  A    between atoms: C_9  and  O_10
REMARK    8  A    between atoms: C_9  and  C_12
REMARK    9  A    between atoms: O_10  and  C_11
REMARK   10  A    between atoms: C_12  and  C_13
REMARK   11  A    between atoms: C_12  and  C_14
REMARK   12  A    between atoms: C_14  and  O_15
REMARK   13  A    between atoms: C_14  and  C_21
REMARK   14  A    between atoms: O_15  and  C_16
REMARK   15  A    between atoms: C_16  and  C_17
REMARK   16  A    between atoms: C_17  and  C_18
REMARK   17  A    between atoms: C_17  and  C_19
REMARK   18  A    between atoms: C_21  and  C_22
REMARK   19  A    between atoms: C_22  and  C_23
REMARK   20  A    between atoms: C_23  and  C_24
REMARK   21  A    between atoms: C_23  and  C_25
REMARK   22  A    between atoms: C_25  and  O_26
REMARK   23  A    between atoms: C_25  and  C_28
REMARK   24  A    between atoms: O_26  and  C_27
REMARK   25  A    between atoms: C_28  and  C_29
REMARK   26  A    between atoms: C_29  and  O_30
REMARK   27  A    between atoms: C_29  and  C_35
REMARK   28  A    between atoms: O_30  and  C_31
REMARK   29  A    between atoms: C_31  and  C_32
REMARK   30  A    between atoms: C_32  and  C_33
REMARK   31  A    between atoms: C_35  and  C_36
REMARK   32  A    between atoms: C_35  and  C_37
REMARK                            x       y       z     vdW  Elec       q    Type
REMARK                         _______ _______ _______ _____ _____    ______ ____
ROOT
ATOM      1  C   UNL     1     146.666 170.953 190.476  0.00  0.00    +0.108 C 
ATOM      2  H   UNL     1     146.249 170.980 191.481  0.00  0.00    +0.074 HD
ENDROOT
BRANCH   1   3
ATOM      3  C   UNL     1     147.738 169.841 190.417  0.00  0.00    -0.015 C 
ATOM      4  H   UNL     1     148.725 170.293 190.574  0.00  0.00    +0.030 HD
ATOM      5  H   UNL     1     147.750 169.394 189.419  0.00  0.00    +0.030 HD
BRANCH   3   6
ATOM      6  C   UNL     1     147.611 168.728 191.468  0.00  0.00    -0.045 C 
ATOM      7  H   UNL     1     146.781 168.989 192.136  0.00  0.00    +0.027 HD
ATOM      8  H   UNL     1     147.300 167.805 190.963  0.00  0.00    +0.027 HD
BRANCH   6   9
ATOM      9  C   UNL     1     148.865 168.444 192.323  0.00  0.00    -0.017 C 
ATOM     10  H   UNL     1     148.687 168.831 193.332  0.00  0.00    +0.032 HD
BRANCH   9  11
ATOM     11  C   UNL     1     150.032 169.261 191.741  0.00  0.00    -0.060 C 
ATOM     12  H   UNL     1     150.230 168.965 190.704  0.00  0.00    +0.023 HD
ATOM     13  H   UNL     1     150.951 169.106 192.320  0.00  0.00    +0.023 HD
ATOM     14  H   UNL     1     149.809 170.333 191.727  0.00  0.00    +0.023 HD
ENDBRANCH   9  11
BRANCH   9  15
ATOM     15  C   UNL     1     149.200 166.930 192.457  0.00  0.00    +0.064 C 
ATOM     16  H   UNL     1     148.287 166.353 192.259  0.00  0.00    +0.060 HD
BRANCH  15  17
ATOM     17  C   UNL     1     149.664 166.584 193.886  0.00  0.00    +0.011 C 
ATOM     18  H   UNL     1     149.881 167.520 194.417  0.00  0.00    +0.033 HD
ATOM     19  H   UNL     1     150.610 166.031 193.852  0.00  0.00    +0.033 HD
BRANCH  17  20
ATOM     20  C   UNL     1     148.612 165.771 194.676  0.00  0.00    +0.108 C 
ATOM     21  H   UNL     1     148.508 164.770 194.235  0.00  0.00    +0.074 HD
BRANCH  20  22
ATOM     22  C   UNL     1     148.950 165.593 196.182  0.00  0.00    -0.009 C 
ATOM     23  H   UNL     1     148.568 164.621 196.522  0.00  0.00    +0.033 HD
BRANCH  22  24
ATOM     24  C   UNL     1     150.453 165.642 196.491  0.00  0.00    -0.059 C 
ATOM     25  H   UNL     1     150.868 164.651 196.685  0.00  0.00    +0.023 HD
ATOM     26  H   UNL     1     151.026 166.095 195.676  0.00  0.00    +0.023 HD
ATOM     27  H   UNL     1     150.634 166.241 197.390  0.00  0.00    +0.023 HD
ENDBRANCH  22  24
BRANCH  22  28
ATOM     28  C   UNL     1     148.244 166.675 197.014  0.00  0.00    -0.059 C 
ATOM     29  H   UNL     1     148.282 167.655 196.524  0.00  0.00    +0.023 HD
ATOM     30  H   UNL     1     148.719 166.771 198.001  0.00  0.00    +0.023 HD
ATOM     31  H   UNL     1     147.189 166.418 197.177  0.00  0.00    +0.023 HD
ENDBRANCH  22  28
ENDBRANCH  20  22
BRANCH  20  32
ATOM     32  O   UNL     1     147.329 166.435 194.576  0.00  0.00    -0.461 OA
BRANCH  32  33
ATOM     33  C   UNL     1     146.256 165.622 194.322  0.00  0.00    +0.307 C 
ATOM     34  O   UNL     1     146.032 164.552 194.876  0.00  0.00    -0.251 OA
BRANCH  33  35
ATOM     35  C   UNL     1     145.425 166.210 193.208  0.00  0.00    +0.042 C 
ATOM     36  H   UNL     1     145.649 165.656 192.289  0.00  0.00    +0.037 HD
ATOM     37  H   UNL     1     145.712 167.260 193.066  0.00  0.00    +0.037 HD
BRANCH  35  38
ATOM     38  C   UNL     1     143.936 166.155 193.525  0.00  0.00    -0.055 C 
ATOM     39  H   UNL     1     143.359 166.774 192.826  0.00  0.00    +0.023 HD
ATOM     40  H   UNL     1     143.736 166.528 194.540  0.00  0.00    +0.023 HD
ATOM     41  H   UNL     1     143.565 165.124 193.455  0.00  0.00    +0.023 HD
ENDBRANCH  35  38
ENDBRANCH  33  35
ENDBRANCH  32  33
ENDBRANCH  20  32
ENDBRANCH  17  20
ENDBRANCH  15  17
BRANCH  15  42
ATOM     42  O   UNL     1     150.244 166.573 191.549  0.00  0.00    -0.379 OA
BRANCH  42  43
ATOM     43  C   UNL     1     151.296 165.842 192.160  0.00  0.00    +0.037 C 
ATOM     44  H   UNL     1     152.270 166.293 191.946  0.00  0.00    +0.052 HD
ATOM     45  H   UNL     1     151.291 164.828 191.756  0.00  0.00    +0.052 HD
ATOM     46  H   UNL     1     151.145 165.770 193.240  0.00  0.00    +0.052 HD
ENDBRANCH  42  43
ENDBRANCH  15  42
ENDBRANCH   9  15
ENDBRANCH   6   9
ENDBRANCH   3   6
ENDBRANCH   1   3
BRANCH   1  47
ATOM     47  C   UNL     1     145.504 170.663 189.476  0.00  0.00    +0.020 C 
ATOM     48  H   UNL     1     145.649 169.639 189.100  0.00  0.00    +0.036 HD
BRANCH  47  49
ATOM     49  C   UNL     1     145.583 171.596 188.248  0.00  0.00    -0.057 C 
ATOM     50  H   UNL     1     144.984 171.209 187.416  0.00  0.00    +0.023 HD
ATOM     51  H   UNL     1     146.614 171.721 187.897  0.00  0.00    +0.023 HD
ATOM     52  H   UNL     1     145.186 172.593 188.480  0.00  0.00    +0.023 HD
ENDBRANCH  47  49
BRANCH  47  53
ATOM     53  C   UNL     1     144.056 170.717 190.061  0.00  0.00    +0.070 C 
ATOM     54  H   UNL     1     143.439 171.216 189.296  0.00  0.00    +0.061 HD
BRANCH  53  55
ATOM     55  C   UNL     1     143.381 169.328 190.287  0.00  0.00    +0.002 C 
ATOM     56  H   UNL     1     142.680 169.166 189.456  0.00  0.00    +0.037 HD
BRANCH  55  58
ATOM     57  C   UNL     1     144.102 166.991 189.603  0.00  0.00    -0.005 C 
ATOM     58  C   UNL     1     144.305 168.124 190.297  0.00  0.00    -0.065 C 
ATOM     59  H   UNL     1     143.193 166.895 189.007  0.00  0.00    +0.078 HD
ATOM     60  H   UNL     1     145.199 168.253 190.897  0.00  0.00    +0.059 HD
BRANCH  57  62
ATOM     61  C   UNL     1     146.305 166.036 189.344  0.00  0.00    +0.206 C 
ATOM     62  N   UNL     1     144.937 165.880 189.560  0.00  0.00    -0.281 N 
ATOM     63  O   UNL     1     147.154 165.152 189.332  0.00  0.00    -0.279 OA
ATOM     64  H   UNL     1     146.590 167.090 189.190  0.00  0.00    +0.126 HD
BRANCH  62  65
ATOM     65  C   UNL     1     144.444 164.517 189.768  0.00  0.00    +0.016 C 
ATOM     66  H   UNL     1     145.024 164.052 190.576  0.00  0.00    +0.047 HD
ATOM     67  H   UNL     1     144.619 163.908 188.874  0.00  0.00    +0.047 HD
BRANCH  65  68
ATOM     68  C   UNL     1     142.971 164.502 190.156  0.00  0.00    -0.049 C 
ATOM     69  H   UNL     1     142.853 164.800 191.204  0.00  0.00    +0.024 HD
ATOM     70  H   UNL     1     142.529 163.504 190.036  0.00  0.00    +0.024 HD
ATOM     71  H   UNL     1     142.392 165.199 189.540  0.00  0.00    +0.024 HD
ENDBRANCH  65  68
ENDBRANCH  62  65
ENDBRANCH  57  62
ENDBRANCH  55  58
BRANCH  55  72
ATOM     72  C   UNL     1     142.510 169.357 191.559  0.00  0.00    -0.057 C 
ATOM     73  H   UNL     1     141.791 168.528 191.554  0.00  0.00    +0.024 HD
ATOM     74  H   UNL     1     141.942 170.288 191.651  0.00  0.00    +0.024 HD
ATOM     75  H   UNL     1     143.127 169.247 192.457  0.00  0.00    +0.024 HD
ENDBRANCH  55  72
ENDBRANCH  53  55
BRANCH  53  76
ATOM     76  O   UNL     1     144.007 171.489 191.266  0.00  0.00    -0.379 OA
BRANCH  76  77
ATOM     77  C   UNL     1     143.485 172.796 191.086  0.00  0.00    +0.037 C 
ATOM     78  H   UNL     1     144.263 173.552 191.216  0.00  0.00    +0.052 HD
ATOM     79  H   UNL     1     142.708 172.968 191.836  0.00  0.00    +0.052 HD
ATOM     80  H   UNL     1     143.036 172.891 190.092  0.00  0.00    +0.052 HD
ENDBRANCH  76  77
ENDBRANCH  53  76
ENDBRANCH  47  53
ENDBRANCH   1  47
BRANCH   1  81
ATOM     81  O   UNL     1     147.297 172.198 190.128  0.00  0.00    -0.461 OA
BRANCH  81  82
ATOM     82  C   UNL     1     148.136 172.751 191.048  0.00  0.00    +0.310 C 
ATOM     83  O   UNL     1     149.123 173.429 190.798  0.00  0.00    -0.251 OA
BRANCH  82  84
ATOM     84  C   UNL     1     147.624 172.462 192.444  0.00  0.00    +0.051 C 
ATOM     85  H   UNL     1     147.098 171.499 192.426  0.00  0.00    +0.041 HD
BRANCH  84  86
ATOM     86  C   UNL     1     148.787 172.349 193.428  0.00  0.00    -0.053 C 
ATOM     87  H   UNL     1     148.677 171.465 194.064  0.00  0.00    +0.024 HD
ATOM     88  H   UNL     1     149.741 172.262 192.892  0.00  0.00    +0.024 HD
ATOM     89  H   UNL     1     148.853 173.231 194.076  0.00  0.00    +0.024 HD
ENDBRANCH  84  86
BRANCH  84  90
ATOM     90  C   UNL     1     146.651 173.563 192.851  0.00  0.00    -0.053 C 
ATOM     91  H   UNL     1     145.659 173.146 193.086  0.00  0.00    +0.024 HD
ATOM     92  H   UNL     1     147.011 174.098 193.736  0.00  0.00    +0.024 HD
ATOM     93  H   UNL     1     146.512 174.294 192.046  0.00  0.00    +0.024 HD
ENDBRANCH  84  90
ENDBRANCH  82  84
ENDBRANCH  81  82
ENDBRANCH   1  81
TORSDOF 32
ENDMDL
MODEL 4
REMARK VINA RESULT:      -4.8      2.053      6.742
REMARK  Name = 2c_conf1
REMARK  32 active torsions:
REMARK  status: ('A' for Active; 'I' for Inactive)
REMARK    1  A    between atoms: N_2  and  C_3
REMARK    2  A    between atoms: N_2  and  C_5
REMARK    3  A    between atoms: C_3  and  C_4
REMARK    4  A    between atoms: C_6  and  C_7
REMARK    5  A    between atoms: C_7  and  C_8
REMARK    6  A    between atoms: C_7  and  C_9
REMARK    7  A    between atoms: C_9  and  O_10
REMARK    8  A    between atoms: C_9  and  C_12
REMARK    9  A    between atoms: O_10  and  C_11
REMARK   10  A    between atoms: C_12  and  C_13
REMARK   11  A    between atoms: C_12  and  C_14
REMARK   12  A    between atoms: C_14  and  O_15
REMARK   13  A    between atoms: C_14  and  C_21
REMARK   14  A    between atoms: O_15  and  C_16
REMARK   15  A    between atoms: C_16  and  C_17
REMARK   16  A    between atoms: C_17  and  C_18
REMARK   17  A    between atoms: C_17  and  C_19
REMARK   18  A    between atoms: C_21  and  C_22
REMARK   19  A    between atoms: C_22  and  C_23
REMARK   20  A    between atoms: C_23  and  C_24
REMARK   21  A    between atoms: C_23  and  C_25
REMARK   22  A    between atoms: C_25  and  O_26
REMARK   23  A    between atoms: C_25  and  C_28
REMARK   24  A    between atoms: O_26  and  C_27
REMARK   25  A    between atoms: C_28  and  C_29
REMARK   26  A    between atoms: C_29  and  O_30
REMARK   27  A    between atoms: C_29  and  C_35
REMARK   28  A    between atoms: O_30  and  C_31
REMARK   29  A    between atoms: C_31  and  C_32
REMARK   30  A    between atoms: C_32  and  C_33
REMARK   31  A    between atoms: C_35  and  C_36
REMARK   32  A    between atoms: C_35  and  C_37
REMARK                            x       y       z     vdW  Elec       q    Type
REMARK                         _______ _______ _______ _____ _____    ______ ____
ROOT
ATOM      1  C   UNL     1     146.482 171.055 190.358  0.00  0.00    +0.108 C 
ATOM      2  H   UNL     1     146.106 170.935 191.373  0.00  0.00    +0.074 HD
ENDROOT
BRANCH   1   3
ATOM      3  C   UNL     1     147.568 169.984 190.105  0.00  0.00    -0.015 C 
ATOM      4  H   UNL     1     148.551 170.471 190.109  0.00  0.00    +0.030 HD
ATOM      5  H   UNL     1     147.433 169.552 189.109  0.00  0.00    +0.030 HD
BRANCH   3   6
ATOM      6  C   UNL     1     147.651 168.852 191.140  0.00  0.00    -0.045 C 
ATOM      7  H   UNL     1     147.394 169.272 192.120  0.00  0.00    +0.027 HD
ATOM      8  H   UNL     1     146.864 168.120 190.920  0.00  0.00    +0.027 HD
BRANCH   6   9
ATOM      9  C   UNL     1     149.008 168.124 191.254  0.00  0.00    -0.017 C 
ATOM     10  H   UNL     1     149.804 168.875 191.217  0.00  0.00    +0.032 HD
BRANCH   9  11
ATOM     11  C   UNL     1     149.181 167.242 190.006  0.00  0.00    -0.060 C 
ATOM     12  H   UNL     1     150.243 167.105 189.774  0.00  0.00    +0.023 HD
ATOM     13  H   UNL     1     148.698 167.695 189.131  0.00  0.00    +0.023 HD
ATOM     14  H   UNL     1     148.758 166.243 190.155  0.00  0.00    +0.023 HD
ENDBRANCH   9  11
BRANCH   9  15
ATOM     15  C   UNL     1     149.180 167.328 192.581  0.00  0.00    +0.064 C 
ATOM     16  H   UNL     1     148.493 167.745 193.328  0.00  0.00    +0.060 HD
BRANCH  15  17
ATOM     17  C   UNL     1     150.611 167.470 193.137  0.00  0.00    +0.011 C 
ATOM     18  H   UNL     1     150.562 168.025 194.083  0.00  0.00    +0.033 HD
ATOM     19  H   UNL     1     151.220 168.079 192.460  0.00  0.00    +0.033 HD
BRANCH  17  20
ATOM     20  C   UNL     1     151.299 166.104 193.372  0.00  0.00    +0.108 C 
ATOM     21  H   UNL     1     150.645 165.294 193.022  0.00  0.00    +0.074 HD
BRANCH  20  22
ATOM     22  C   UNL     1     152.669 165.953 192.655  0.00  0.00    -0.009 C 
ATOM     23  H   UNL     1     153.072 164.953 192.861  0.00  0.00    +0.033 HD
BRANCH  22  24
ATOM     24  C   UNL     1     152.593 166.124 191.131  0.00  0.00    -0.059 C 
ATOM     25  H   UNL     1     152.123 167.067 190.843  0.00  0.00    +0.023 HD
ATOM     26  H   UNL     1     153.582 166.082 190.663  0.00  0.00    +0.023 HD
ATOM     27  H   UNL     1     151.989 165.324 190.691  0.00  0.00    +0.023 HD
ENDBRANCH  22  24
BRANCH  22  28
ATOM     28  C   UNL     1     153.673 166.973 193.212  0.00  0.00    -0.059 C 
ATOM     29  H   UNL     1     154.160 167.544 192.412  0.00  0.00    +0.023 HD
ATOM     30  H   UNL     1     154.457 166.464 193.791  0.00  0.00    +0.023 HD
ATOM     31  H   UNL     1     153.176 167.686 193.883  0.00  0.00    +0.023 HD
ENDBRANCH  22  28
ENDBRANCH  20  22
BRANCH  20  32
ATOM     32  O   UNL     1     151.509 165.919 194.793  0.00  0.00    -0.461 OA
BRANCH  32  33
ATOM     33  C   UNL     1     150.571 165.161 195.441  0.00  0.00    +0.307 C 
ATOM     34  O   UNL     1     150.240 164.024 195.127  0.00  0.00    -0.251 OA
BRANCH  33  35
ATOM     35  C   UNL     1     149.954 165.963 196.561  0.00  0.00    +0.042 C 
ATOM     36  H   UNL     1     150.416 166.958 196.561  0.00  0.00    +0.037 HD
ATOM     37  H   UNL     1     150.178 165.470 197.516  0.00  0.00    +0.037 HD
BRANCH  35  38
ATOM     38  C   UNL     1     148.442 166.068 196.413  0.00  0.00    -0.055 C 
ATOM     39  H   UNL     1     147.927 165.552 197.234  0.00  0.00    +0.023 HD
ATOM     40  H   UNL     1     148.106 165.610 195.472  0.00  0.00    +0.023 HD
ATOM     41  H   UNL     1     148.127 167.120 196.420  0.00  0.00    +0.023 HD
ENDBRANCH  35  38
ENDBRANCH  33  35
ENDBRANCH  32  33
ENDBRANCH  20  32
ENDBRANCH  17  20
ENDBRANCH  15  17
BRANCH  15  42
ATOM     42  O   UNL     1     148.922 165.940 192.360  0.00  0.00    -0.379 OA
BRANCH  42  43
ATOM     43  C   UNL     1     147.731 165.483 192.982  0.00  0.00    +0.037 C 
ATOM     44  H   UNL     1     147.170 164.813 192.322  0.00  0.00    +0.052 HD
ATOM     45  H   UNL     1     147.105 166.348 193.205  0.00  0.00    +0.052 HD
ATOM     46  H   UNL     1     147.952 164.980 193.927  0.00  0.00    +0.052 HD
ENDBRANCH  42  43
ENDBRANCH  15  42
ENDBRANCH   9  15
ENDBRANCH   6   9
ENDBRANCH   3   6
ENDBRANCH   1   3
BRANCH   1  47
ATOM     47  C   UNL     1     145.285 170.881 189.374  0.00  0.00    +0.020 C 
ATOM     48  H   UNL     1     145.279 169.828 189.054  0.00  0.00    +0.036 HD
BRANCH  47  49
ATOM     49  C   UNL     1     145.488 171.726 188.098  0.00  0.00    -0.057 C 
ATOM     50  H   UNL     1     146.360 172.384 188.192  0.00  0.00    +0.023 HD
ATOM     51  H   UNL     1     144.614 172.349 187.879  0.00  0.00    +0.023 HD
ATOM     52  H   UNL     1     145.672 171.088 187.223  0.00  0.00    +0.023 HD
ENDBRANCH  47  49
BRANCH  47  53
ATOM     53  C   UNL     1     143.863 171.172 189.954  0.00  0.00    +0.070 C 
ATOM     54  H   UNL     1     143.421 171.941 189.299  0.00  0.00    +0.061 HD
BRANCH  53  55
ATOM     55  C   UNL     1     142.867 169.971 189.900  0.00  0.00    +0.002 C 
ATOM     56  H   UNL     1     142.430 169.952 188.891  0.00  0.00    +0.037 HD
BRANCH  55  58
ATOM     57  C   UNL     1     143.644 168.018 191.326  0.00  0.00    -0.005 C 
ATOM     58  C   UNL     1     143.462 168.593 190.124  0.00  0.00    -0.065 C 
ATOM     59  H   UNL     1     143.381 168.581 192.223  0.00  0.00    +0.078 HD
ATOM     60  H   UNL     1     143.710 168.060 189.213  0.00  0.00    +0.059 HD
BRANCH  57  62
ATOM     61  C   UNL     1     144.750 166.019 190.546  0.00  0.00    +0.206 C 
ATOM     62  N   UNL     1     144.155 166.749 191.573  0.00  0.00    -0.281 N 
ATOM     63  O   UNL     1     145.280 164.917 190.638  0.00  0.00    -0.279 OA
ATOM     64  H   UNL     1     144.719 166.548 189.579  0.00  0.00    +0.126 HD
BRANCH  62  65
ATOM     65  C   UNL     1     144.130 166.136 192.902  0.00  0.00    +0.016 C 
ATOM     66  H   UNL     1     144.980 166.520 193.484  0.00  0.00    +0.047 HD
ATOM     67  H   UNL     1     144.276 165.052 192.825  0.00  0.00    +0.047 HD
BRANCH  65  68
ATOM     68  C   UNL     1     142.843 166.460 193.650  0.00  0.00    -0.049 C 
ATOM     69  H   UNL     1     142.834 167.514 193.948  0.00  0.00    +0.024 HD
ATOM     70  H   UNL     1     142.736 165.851 194.557  0.00  0.00    +0.024 HD
ATOM     71  H   UNL     1     141.964 166.280 193.022  0.00  0.00    +0.024 HD
ENDBRANCH  65  68
ENDBRANCH  62  65
ENDBRANCH  57  62
ENDBRANCH  55  58
BRANCH  55  72
ATOM     72  C   UNL     1     141.682 170.216 190.856  0.00  0.00    -0.057 C 
ATOM     73  H   UNL     1     140.860 169.522 190.637  0.00  0.00    +0.024 HD
ATOM     74  H   UNL     1     141.289 171.233 190.776  0.00  0.00    +0.024 HD
ATOM     75  H   UNL     1     141.980 170.048 191.897  0.00  0.00    +0.024 HD
ENDBRANCH  55  72
ENDBRANCH  53  55
BRANCH  53  76
ATOM     76  O   UNL     1     143.936 171.690 191.286  0.00  0.00    -0.379 OA
BRANCH  76  77
ATOM     77  C   UNL     1     143.604 173.066 191.383  0.00  0.00    +0.037 C 
ATOM     78  H   UNL     1     142.523 173.206 191.459  0.00  0.00    +0.052 HD
ATOM     79  H   UNL     1     143.955 173.574 190.482  0.00  0.00    +0.052 HD
ATOM     80  H   UNL     1     144.099 173.515 192.251  0.00  0.00    +0.052 HD
ENDBRANCH  76  77
ENDBRANCH  53  76
ENDBRANCH  47  53
ENDBRANCH   1  47
BRANCH   1  81
ATOM     81  O   UNL     1     147.079 172.349 190.162  0.00  0.00    -0.461 OA
BRANCH  81  82
ATOM     82  C   UNL     1     148.142 172.672 190.950  0.00  0.00    +0.310 C 
ATOM     83  O   UNL     1     149.195 173.162 190.564  0.00  0.00    -0.251 OA
BRANCH  82  84
ATOM     84  C   UNL     1     147.802 172.401 192.402  0.00  0.00    +0.051 C 
ATOM     85  H   UNL     1     147.262 171.448 192.457  0.00  0.00    +0.041 HD
BRANCH  84  86
ATOM     86  C   UNL     1     149.077 172.274 193.234  0.00  0.00    -0.053 C 
ATOM     87  H   UNL     1     149.861 172.937 192.851  0.00  0.00    +0.024 HD
ATOM     88  H   UNL     1     148.886 172.546 194.280  0.00  0.00    +0.024 HD
ATOM     89  H   UNL     1     149.462 171.248 193.226  0.00  0.00    +0.024 HD
ENDBRANCH  84  86
BRANCH  84  90
ATOM     90  C   UNL     1     146.907 173.523 192.916  0.00  0.00    -0.053 C 
ATOM     91  H   UNL     1     146.730 174.277 192.134  0.00  0.00    +0.024 HD
ATOM     92  H   UNL     1     145.934 173.133 193.234  0.00  0.00    +0.024 HD
ATOM     93  H   UNL     1     147.360 174.041 193.769  0.00  0.00    +0.024 HD
ENDBRANCH  84  90
ENDBRANCH  82  84
ENDBRANCH  81  82
ENDBRANCH   1  81
TORSDOF 32
ENDMDL
MODEL 5
REMARK VINA RESULT:      -4.8      1.362      2.540
REMARK  Name = 2c_conf1
REMARK  32 active torsions:
REMARK  status: ('A' for Active; 'I' for Inactive)
REMARK    1  A    between atoms: N_2  and  C_3
REMARK    2  A    between atoms: N_2  and  C_5
REMARK    3  A    between atoms: C_3  and  C_4
REMARK    4  A    between atoms: C_6  and  C_7
REMARK    5  A    between atoms: C_7  and  C_8
REMARK    6  A    between atoms: C_7  and  C_9
REMARK    7  A    between atoms: C_9  and  O_10
REMARK    8  A    between atoms: C_9  and  C_12
REMARK    9  A    between atoms: O_10  and  C_11
REMARK   10  A    between atoms: C_12  and  C_13
REMARK   11  A    between atoms: C_12  and  C_14
REMARK   12  A    between atoms: C_14  and  O_15
REMARK   13  A    between atoms: C_14  and  C_21
REMARK   14  A    between atoms: O_15  and  C_16
REMARK   15  A    between atoms: C_16  and  C_17
REMARK   16  A    between atoms: C_17  and  C_18
REMARK   17  A    between atoms: C_17  and  C_19
REMARK   18  A    between atoms: C_21  and  C_22
REMARK   19  A    between atoms: C_22  and  C_23
REMARK   20  A    between atoms: C_23  and  C_24
REMARK   21  A    between atoms: C_23  and  C_25
REMARK   22  A    between atoms: C_25  and  O_26
REMARK   23  A    between atoms: C_25  and  C_28
REMARK   24  A    between atoms: O_26  and  C_27
REMARK   25  A    between atoms: C_28  and  C_29
REMARK   26  A    between atoms: C_29  and  O_30
REMARK   27  A    between atoms: C_29  and  C_35
REMARK   28  A    between atoms: O_30  and  C_31
REMARK   29  A    between atoms: C_31  and  C_32
REMARK   30  A    between atoms: C_32  and  C_33
REMARK   31  A    between atoms: C_35  and  C_36
REMARK   32  A    between atoms: C_35  and  C_37
REMARK                            x       y       z     vdW  Elec       q    Type
REMARK                         _______ _______ _______ _____ _____    ______ ____
ROOT
ATOM      1  C   UNL     1     148.160 169.231 190.812  0.00  0.00    +0.108 C 
ATOM      2  H   UNL     1     148.993 169.566 190.194  0.00  0.00    +0.074 HD
ENDROOT
BRANCH   1   3
ATOM      3  C   UNL     1     147.015 168.767 189.884  0.00  0.00    -0.015 C 
ATOM      4  H   UNL     1     146.893 167.681 189.989  0.00  0.00    +0.030 HD
ATOM      5  H   UNL     1     147.287 168.954 188.841  0.00  0.00    +0.030 HD
BRANCH   3   6
ATOM      6  C   UNL     1     145.633 169.377 190.163  0.00  0.00    -0.045 C 
ATOM      7  H   UNL     1     145.598 169.660 191.222  0.00  0.00    +0.027 HD
ATOM      8  H   UNL     1     145.548 170.318 189.606  0.00  0.00    +0.027 HD
BRANCH   6   9
ATOM      9  C   UNL     1     144.412 168.485 189.848  0.00  0.00    -0.017 C 
ATOM     10  H   UNL     1     144.575 167.506 190.307  0.00  0.00    +0.032 HD
BRANCH   9  11
ATOM     11  C   UNL     1     144.373 168.254 188.327  0.00  0.00    -0.060 C 
ATOM     12  H   UNL     1     144.573 169.188 187.790  0.00  0.00    +0.023 HD
ATOM     13  H   UNL     1     143.390 167.883 188.009  0.00  0.00    +0.023 HD
ATOM     14  H   UNL     1     145.134 167.535 188.007  0.00  0.00    +0.023 HD
ENDBRANCH   9  11
BRANCH   9  15
ATOM     15  C   UNL     1     143.070 169.045 190.405  0.00  0.00    +0.064 C 
ATOM     16  H   UNL     1     143.245 170.063 190.775  0.00  0.00    +0.060 HD
BRANCH  15  17
ATOM     17  C   UNL     1     142.564 168.202 191.593  0.00  0.00    +0.011 C 
ATOM     18  H   UNL     1     141.467 168.253 191.612  0.00  0.00    +0.033 HD
ATOM     19  H   UNL     1     142.903 168.640 192.538  0.00  0.00    +0.033 HD
BRANCH  17  20
ATOM     20  C   UNL     1     143.013 166.724 191.511  0.00  0.00    +0.108 C 
ATOM     21  H   UNL     1     143.963 166.654 190.964  0.00  0.00    +0.074 HD
BRANCH  20  22
ATOM     22  C   UNL     1     143.209 166.044 192.894  0.00  0.00    -0.009 C 
ATOM     23  H   UNL     1     142.828 165.015 192.844  0.00  0.00    +0.033 HD
BRANCH  22  24
ATOM     24  C   UNL     1     144.674 165.981 193.352  0.00  0.00    -0.059 C 
ATOM     25  H   UNL     1     144.850 165.171 194.064  0.00  0.00    +0.023 HD
ATOM     26  H   UNL     1     145.362 165.848 192.511  0.00  0.00    +0.023 HD
ATOM     27  H   UNL     1     144.951 166.912 193.858  0.00  0.00    +0.023 HD
ENDBRANCH  22  24
BRANCH  22  28
ATOM     28  C   UNL     1     142.393 166.780 193.966  0.00  0.00    -0.059 C 
ATOM     29  H   UNL     1     141.962 167.712 193.582  0.00  0.00    +0.023 HD
ATOM     30  H   UNL     1     143.028 167.031 194.828  0.00  0.00    +0.023 HD
ATOM     31  H   UNL     1     141.570 166.153 194.333  0.00  0.00    +0.023 HD
ENDBRANCH  22  28
ENDBRANCH  20  22
BRANCH  20  32
ATOM     32  O   UNL     1     142.021 165.969 190.773  0.00  0.00    -0.461 OA
BRANCH  32  33
ATOM     33  C   UNL     1     142.492 165.247 189.708  0.00  0.00    +0.307 C 
ATOM     34  O   UNL     1     143.416 164.443 189.752  0.00  0.00    -0.251 OA
BRANCH  33  35
ATOM     35  C   UNL     1     141.747 165.642 188.457  0.00  0.00    +0.042 C 
ATOM     36  H   UNL     1     141.595 166.728 188.480  0.00  0.00    +0.037 HD
ATOM     37  H   UNL     1     140.767 165.148 188.456  0.00  0.00    +0.037 HD
BRANCH  35  38
ATOM     38  C   UNL     1     142.499 165.227 187.199  0.00  0.00    -0.055 C 
ATOM     39  H   UNL     1     142.570 166.060 186.487  0.00  0.00    +0.023 HD
ATOM     40  H   UNL     1     141.986 164.399 186.689  0.00  0.00    +0.023 HD
ATOM     41  H   UNL     1     143.518 164.903 187.448  0.00  0.00    +0.023 HD
ENDBRANCH  35  38
ENDBRANCH  33  35
ENDBRANCH  32  33
ENDBRANCH  20  32
ENDBRANCH  17  20
ENDBRANCH  15  17
BRANCH  15  42
ATOM     42  O   UNL     1     142.068 169.029 189.387  0.00  0.00    -0.379 OA
BRANCH  42  43
ATOM     43  C   UNL     1     140.840 169.612 189.796  0.00  0.00    +0.037 C 
ATOM     44  H   UNL     1     140.509 169.207 190.758  0.00  0.00    +0.052 HD
ATOM     45  H   UNL     1     140.082 169.381 189.046  0.00  0.00    +0.052 HD
ATOM     46  H   UNL     1     140.926 170.700 189.858  0.00  0.00    +0.052 HD
ENDBRANCH  42  43
ENDBRANCH  15  42
ENDBRANCH   9  15
ENDBRANCH   6   9
ENDBRANCH   3   6
ENDBRANCH   1   3
BRANCH   1  47
ATOM     47  C   UNL     1     148.664 168.057 191.708  0.00  0.00    +0.020 C 
ATOM     48  H   UNL     1     148.519 167.128 191.136  0.00  0.00    +0.036 HD
BRANCH  47  49
ATOM     49  C   UNL     1     147.803 167.925 192.983  0.00  0.00    -0.057 C 
ATOM     50  H   UNL     1     147.905 168.809 193.624  0.00  0.00    +0.023 HD
ATOM     51  H   UNL     1     148.081 167.044 193.572  0.00  0.00    +0.023 HD
ATOM     52  H   UNL     1     146.737 167.841 192.737  0.00  0.00    +0.023 HD
ENDBRANCH  47  49
BRANCH  47  53
ATOM     53  C   UNL     1     150.172 168.094 192.116  0.00  0.00    +0.070 C 
ATOM     54  H   UNL     1     150.193 168.423 193.167  0.00  0.00    +0.061 HD
BRANCH  53  55
ATOM     55  C   UNL     1     150.893 166.709 192.107  0.00  0.00    +0.002 C 
ATOM     56  H   UNL     1     151.975 166.904 192.143  0.00  0.00    +0.037 HD
BRANCH  55  58
ATOM     57  C   UNL     1     150.571 166.162 194.566  0.00  0.00    -0.005 C 
ATOM     58  C   UNL     1     150.595 165.788 193.275  0.00  0.00    -0.065 C 
ATOM     59  H   UNL     1     150.815 167.196 194.818  0.00  0.00    +0.078 HD
ATOM     60  H   UNL     1     150.354 164.769 192.990  0.00  0.00    +0.059 HD
BRANCH  57  62
ATOM     61  C   UNL     1     150.961 164.164 195.864  0.00  0.00    +0.206 C 
ATOM     62  N   UNL     1     150.273 165.359 195.661  0.00  0.00    -0.281 N 
ATOM     63  O   UNL     1     150.832 163.391 196.808  0.00  0.00    -0.279 OA
ATOM     64  H   UNL     1     151.693 163.957 195.067  0.00  0.00    +0.126 HD
BRANCH  62  65
ATOM     65  C   UNL     1     149.266 165.729 196.657  0.00  0.00    +0.016 C 
ATOM     66  H   UNL     1     149.550 166.690 197.106  0.00  0.00    +0.047 HD
ATOM     67  H   UNL     1     149.253 164.999 197.476  0.00  0.00    +0.047 HD
BRANCH  65  68
ATOM     68  C   UNL     1     147.882 165.873 196.036  0.00  0.00    -0.049 C 
ATOM     69  H   UNL     1     147.969 166.070 194.962  0.00  0.00    +0.024 HD
ATOM     70  H   UNL     1     147.318 166.698 196.488  0.00  0.00    +0.024 HD
ATOM     71  H   UNL     1     147.294 164.958 196.164  0.00  0.00    +0.024 HD
ENDBRANCH  65  68
ENDBRANCH  62  65
ENDBRANCH  57  62
ENDBRANCH  55  58
BRANCH  55  72
ATOM     72  C   UNL     1     150.650 165.988 190.767  0.00  0.00    -0.057 C 
ATOM     73  H   UNL     1     150.548 164.906 190.923  0.00  0.00    +0.024 HD
ATOM     74  H   UNL     1     151.467 166.145 190.057  0.00  0.00    +0.024 HD
ATOM     75  H   UNL     1     149.723 166.337 190.299  0.00  0.00    +0.024 HD
ENDBRANCH  55  72
ENDBRANCH  53  55
BRANCH  53  76
ATOM     76  O   UNL     1     150.906 169.035 191.325  0.00  0.00    -0.379 OA
BRANCH  76  77
ATOM     77  C   UNL     1     151.752 169.882 192.085  0.00  0.00    +0.037 C 
ATOM     78  H   UNL     1     151.478 170.932 191.956  0.00  0.00    +0.052 HD
ATOM     79  H   UNL     1     152.781 169.749 191.739  0.00  0.00    +0.052 HD
ATOM     80  H   UNL     1     151.704 169.613 193.146  0.00  0.00    +0.052 HD
ENDBRANCH  76  77
ENDBRANCH  53  76
ENDBRANCH  47  53
ENDBRANCH   1  47
BRANCH   1  81
ATOM     81  O   UNL     1     147.658 170.289 191.646  0.00  0.00    -0.461 OA
BRANCH  81  82
ATOM     82  C   UNL     1     148.380 171.442 191.694  0.00  0.00    +0.310 C 
ATOM     83  O   UNL     1     149.037 171.913 190.777  0.00  0.00    -0.251 OA
BRANCH  82  84
ATOM     84  C   UNL     1     148.192 172.106 193.044  0.00  0.00    +0.051 C 
ATOM     85  H   UNL     1     147.699 171.390 193.714  0.00  0.00    +0.041 HD
BRANCH  84  86
ATOM     86  C   UNL     1     149.544 172.473 193.652  0.00  0.00    -0.053 C 
ATOM     87  H   UNL     1     149.932 171.652 194.266  0.00  0.00    +0.024 HD
ATOM     88  H   UNL     1     150.280 172.682 192.865  0.00  0.00    +0.024 HD
ATOM     89  H   UNL     1     149.473 173.367 194.282  0.00  0.00    +0.024 HD
ENDBRANCH  84  86
BRANCH  84  90
ATOM     90  C   UNL     1     147.304 173.333 192.871  0.00  0.00    -0.053 C 
ATOM     91  H   UNL     1     146.268 173.117 193.175  0.00  0.00    +0.024 HD
ATOM     92  H   UNL     1     147.666 174.168 193.479  0.00  0.00    +0.024 HD
ATOM     93  H   UNL     1     147.272 173.663 191.826  0.00  0.00    +0.024 HD
ENDBRANCH  84  90
ENDBRANCH  82  84
ENDBRANCH  81  82
ENDBRANCH   1  81
TORSDOF 32
ENDMDL
MODEL 6
REMARK VINA RESULT:      -4.8      1.571      3.357
REMARK  Name = 2c_conf1
REMARK  32 active torsions:
REMARK  status: ('A' for Active; 'I' for Inactive)
REMARK    1  A    between atoms: N_2  and  C_3
REMARK    2  A    between atoms: N_2  and  C_5
REMARK    3  A    between atoms: C_3  and  C_4
REMARK    4  A    between atoms: C_6  and  C_7
REMARK    5  A    between atoms: C_7  and  C_8
REMARK    6  A    between atoms: C_7  and  C_9
REMARK    7  A    between atoms: C_9  and  O_10
REMARK    8  A    between atoms: C_9  and  C_12
REMARK    9  A    between atoms: O_10  and  C_11
REMARK   10  A    between atoms: C_12  and  C_13
REMARK   11  A    between atoms: C_12  and  C_14
REMARK   12  A    between atoms: C_14  and  O_15
REMARK   13  A    between atoms: C_14  and  C_21
REMARK   14  A    between atoms: O_15  and  C_16
REMARK   15  A    between atoms: C_16  and  C_17
REMARK   16  A    between atoms: C_17  and  C_18
REMARK   17  A    between atoms: C_17  and  C_19
REMARK   18  A    between atoms: C_21  and  C_22
REMARK   19  A    between atoms: C_22  and  C_23
REMARK   20  A    between atoms: C_23  and  C_24
REMARK   21  A    between atoms: C_23  and  C_25
REMARK   22  A    between atoms: C_25  and  O_26
REMARK   23  A    between atoms: C_25  and  C_28
REMARK   24  A    between atoms: O_26  and  C_27
REMARK   25  A    between atoms: C_28  and  C_29
REMARK   26  A    between atoms: C_29  and  O_30
REMARK   27  A    between atoms: C_29  and  C_35
REMARK   28  A    between atoms: O_30  and  C_31
REMARK   29  A    between atoms: C_31  and  C_32
REMARK   30  A    between atoms: C_32  and  C_33
REMARK   31  A    between atoms: C_35  and  C_36
REMARK   32  A    between atoms: C_35  and  C_37
REMARK                            x       y       z     vdW  Elec       q    Type
REMARK                         _______ _______ _______ _____ _____    ______ ____
ROOT
ATOM      1  C   UNL     1     149.490 169.232 191.437  0.00  0.00    +0.108 C 
ATOM      2  H   UNL     1     149.347 168.888 190.413  0.00  0.00    +0.074 HD
ENDROOT
BRANCH   1   3
ATOM      3  C   UNL     1     148.425 168.562 192.334  0.00  0.00    -0.015 C 
ATOM      4  H   UNL     1     147.603 169.271 192.495  0.00  0.00    +0.030 HD
ATOM      5  H   UNL     1     148.854 168.348 193.318  0.00  0.00    +0.030 HD
BRANCH   3   6
ATOM      6  C   UNL     1     147.780 167.286 191.776  0.00  0.00    -0.045 C 
ATOM      7  H   UNL     1     147.976 167.253 190.697  0.00  0.00    +0.027 HD
ATOM      8  H   UNL     1     148.304 166.417 192.194  0.00  0.00    +0.027 HD
BRANCH   6   9
ATOM      9  C   UNL     1     146.261 167.126 192.007  0.00  0.00    -0.017 C 
ATOM     10  H   UNL     1     146.006 167.608 192.956  0.00  0.00    +0.032 HD
BRANCH   9  11
ATOM     11  C   UNL     1     145.963 165.627 192.185  0.00  0.00    -0.060 C 
ATOM     12  H   UNL     1     144.884 165.455 192.264  0.00  0.00    +0.023 HD
ATOM     13  H   UNL     1     146.438 165.234 193.092  0.00  0.00    +0.023 HD
ATOM     14  H   UNL     1     146.315 165.040 191.329  0.00  0.00    +0.023 HD
ENDBRANCH   9  11
BRANCH   9  15
ATOM     15  C   UNL     1     145.388 167.785 190.900  0.00  0.00    +0.064 C 
ATOM     16  H   UNL     1     145.097 168.788 191.237  0.00  0.00    +0.060 HD
BRANCH  15  17
ATOM     17  C   UNL     1     144.093 166.984 190.659  0.00  0.00    +0.011 C 
ATOM     18  H   UNL     1     144.224 165.977 191.075  0.00  0.00    +0.033 HD
ATOM     19  H   UNL     1     143.929 166.847 189.583  0.00  0.00    +0.033 HD
BRANCH  17  20
ATOM     20  C   UNL     1     142.850 167.651 191.295  0.00  0.00    +0.108 C 
ATOM     21  H   UNL     1     142.068 167.780 190.535  0.00  0.00    +0.074 HD
BRANCH  20  22
ATOM     22  C   UNL     1     142.237 166.850 192.477  0.00  0.00    -0.009 C 
ATOM     23  H   UNL     1     141.172 167.103 192.566  0.00  0.00    +0.033 HD
BRANCH  22  24
ATOM     24  C   UNL     1     142.347 165.326 192.317  0.00  0.00    -0.059 C 
ATOM     25  H   UNL     1     141.441 164.810 192.643  0.00  0.00    +0.023 HD
ATOM     26  H   UNL     1     142.549 165.035 191.282  0.00  0.00    +0.023 HD
ATOM     27  H   UNL     1     143.168 164.941 192.931  0.00  0.00    +0.023 HD
ENDBRANCH  22  24
BRANCH  22  28
ATOM     28  C   UNL     1     142.913 167.253 193.796  0.00  0.00    -0.059 C 
ATOM     29  H   UNL     1     142.963 168.342 193.912  0.00  0.00    +0.023 HD
ATOM     30  H   UNL     1     143.939 166.860 193.838  0.00  0.00    +0.023 HD
ATOM     31  H   UNL     1     142.367 166.845 194.657  0.00  0.00    +0.023 HD
ENDBRANCH  22  28
ENDBRANCH  20  22
BRANCH  20  32
ATOM     32  O   UNL     1     143.216 168.965 191.781  0.00  0.00    -0.461 OA
BRANCH  32  33
ATOM     33  C   UNL     1     142.489 170.011 191.277  0.00  0.00    +0.307 C 
ATOM     34  O   UNL     1     141.274 170.014 191.113  0.00  0.00    -0.251 OA
BRANCH  33  35
ATOM     35  C   UNL     1     143.418 171.135 190.889  0.00  0.00    +0.042 C 
ATOM     36  H   UNL     1     144.239 171.164 191.615  0.00  0.00    +0.037 HD
ATOM     37  H   UNL     1     142.868 172.084 190.939  0.00  0.00    +0.037 HD
BRANCH  35  38
ATOM     38  C   UNL     1     143.953 170.961 189.474  0.00  0.00    -0.055 C 
ATOM     39  H   UNL     1     143.154 170.662 188.782  0.00  0.00    +0.023 HD
ATOM     40  H   UNL     1     144.729 170.182 189.439  0.00  0.00    +0.023 HD
ATOM     41  H   UNL     1     144.388 171.900 189.107  0.00  0.00    +0.023 HD
ENDBRANCH  35  38
ENDBRANCH  33  35
ENDBRANCH  32  33
ENDBRANCH  20  32
ENDBRANCH  17  20
ENDBRANCH  15  17
BRANCH  15  42
ATOM     42  O   UNL     1     146.112 167.843 189.670  0.00  0.00    -0.379 OA
BRANCH  42  43
ATOM     43  C   UNL     1     145.477 167.147 188.608  0.00  0.00    +0.037 C 
ATOM     44  H   UNL     1     144.754 166.418 188.988  0.00  0.00    +0.052 HD
ATOM     45  H   UNL     1     146.241 166.609 188.044  0.00  0.00    +0.052 HD
ATOM     46  H   UNL     1     144.986 167.842 187.924  0.00  0.00    +0.052 HD
ENDBRANCH  42  43
ENDBRANCH  15  42
ENDBRANCH   9  15
ENDBRANCH   6   9
ENDBRANCH   3   6
ENDBRANCH   1   3
BRANCH   1  47
ATOM     47  C   UNL     1     150.930 168.831 191.885  0.00  0.00    +0.020 C 
ATOM     48  H   UNL     1     150.883 168.603 192.960  0.00  0.00    +0.036 HD
BRANCH  47  49
ATOM     49  C   UNL     1     151.908 170.017 191.731  0.00  0.00    -0.057 C 
ATOM     50  H   UNL     1     152.033 170.554 192.678  0.00  0.00    +0.023 HD
ATOM     51  H   UNL     1     151.565 170.732 190.975  0.00  0.00    +0.023 HD
ATOM     52  H   UNL     1     152.908 169.672 191.435  0.00  0.00    +0.023 HD
ENDBRANCH  47  49
BRANCH  47  53
ATOM     53  C   UNL     1     151.547 167.573 191.194  0.00  0.00    +0.070 C 
ATOM     54  H   UNL     1     152.454 167.925 190.676  0.00  0.00    +0.061 HD
BRANCH  53  55
ATOM     55  C   UNL     1     152.041 166.458 192.169  0.00  0.00    +0.002 C 
ATOM     56  H   UNL     1     152.802 166.909 192.823  0.00  0.00    +0.037 HD
BRANCH  55  58
ATOM     57  C   UNL     1     150.831 166.188 194.386  0.00  0.00    -0.005 C 
ATOM     58  C   UNL     1     150.996 165.859 193.092  0.00  0.00    -0.065 C 
ATOM     59  H   UNL     1     151.512 166.914 194.834  0.00  0.00    +0.078 HD
ATOM     60  H   UNL     1     150.336 165.143 192.615  0.00  0.00    +0.059 HD
BRANCH  57  62
ATOM     61  C   UNL     1     148.517 165.763 194.928  0.00  0.00    +0.206 C 
ATOM     62  N   UNL     1     149.869 165.686 195.256  0.00  0.00    -0.281 N 
ATOM     63  O   UNL     1     147.576 165.320 195.577  0.00  0.00    -0.279 OA
ATOM     64  H   UNL     1     148.344 166.274 193.966  0.00  0.00    +0.126 HD
BRANCH  62  65
ATOM     65  C   UNL     1     150.216 165.035 196.520  0.00  0.00    +0.016 C 
ATOM     66  H   UNL     1     149.288 164.775 197.049  0.00  0.00    +0.047 HD
ATOM     67  H   UNL     1     150.756 165.731 197.172  0.00  0.00    +0.047 HD
BRANCH  65  68
ATOM     68  C   UNL     1     151.021 163.762 196.299  0.00  0.00    -0.049 C 
ATOM     69  H   UNL     1     152.025 164.008 195.933  0.00  0.00    +0.024 HD
ATOM     70  H   UNL     1     150.545 163.102 195.563  0.00  0.00    +0.024 HD
ATOM     71  H   UNL     1     151.132 163.197 197.231  0.00  0.00    +0.024 HD
ENDBRANCH  65  68
ENDBRANCH  62  65
ENDBRANCH  57  62
ENDBRANCH  55  58
BRANCH  55  72
ATOM     72  C   UNL     1     152.777 165.352 191.387  0.00  0.00    -0.057 C 
ATOM     73  H   UNL     1     153.689 165.046 191.916  0.00  0.00    +0.024 HD
ATOM     74  H   UNL     1     153.067 165.676 190.384  0.00  0.00    +0.024 HD
ATOM     75  H   UNL     1     152.147 164.461 191.286  0.00  0.00    +0.024 HD
ENDBRANCH  55  72
ENDBRANCH  53  55
BRANCH  53  76
ATOM     76  O   UNL     1     150.652 167.016 190.225  0.00  0.00    -0.379 OA
BRANCH  76  77
ATOM     77  C   UNL     1     151.176 166.997 188.908  0.00  0.00    +0.037 C 
ATOM     78  H   UNL     1     151.906 167.798 188.763  0.00  0.00    +0.052 HD
ATOM     79  H   UNL     1     150.355 167.148 188.202  0.00  0.00    +0.052 HD
ATOM     80  H   UNL     1     151.641 166.028 188.698  0.00  0.00    +0.052 HD
ENDBRANCH  76  77
ENDBRANCH  53  76
ENDBRANCH  47  53
ENDBRANCH   1  47
BRANCH   1  81
ATOM     81  O   UNL     1     149.333 170.657 191.547  0.00  0.00    -0.461 OA
BRANCH  81  82
ATOM     82  C   UNL     1     148.081 171.130 191.798  0.00  0.00    +0.310 C 
ATOM     83  O   UNL     1     147.067 170.827 191.186  0.00  0.00    -0.251 OA
BRANCH  82  84
ATOM     84  C   UNL     1     148.114 172.042 193.008  0.00  0.00    +0.051 C 
ATOM     85  H   UNL     1     147.696 171.496 193.862  0.00  0.00    +0.041 HD
BRANCH  84  86
ATOM     86  C   UNL     1     149.552 172.428 193.348  0.00  0.00    -0.053 C 
ATOM     87  H   UNL     1     149.588 173.403 193.846  0.00  0.00    +0.024 HD
ATOM     88  H   UNL     1     150.003 171.688 194.021  0.00  0.00    +0.024 HD
ATOM     89  H   UNL     1     150.178 172.479 192.450  0.00  0.00    +0.024 HD
ENDBRANCH  84  86
BRANCH  84  90
ATOM     90  C   UNL     1     147.257 173.271 192.722  0.00  0.00    -0.053 C 
ATOM     91  H   UNL     1     146.202 172.991 192.578  0.00  0.00    +0.024 HD
ATOM     92  H   UNL     1     147.306 173.984 193.551  0.00  0.00    +0.024 HD
ATOM     93  H   UNL     1     147.583 173.786 191.811  0.00  0.00    +0.024 HD
ENDBRANCH  84  90
ENDBRANCH  82  84
ENDBRANCH  81  82
ENDBRANCH   1  81
TORSDOF 32
ENDMDL
MODEL 7
REMARK VINA RESULT:      -4.8      1.172      2.403
REMARK  Name = 2c_conf1
REMARK  32 active torsions:
REMARK  status: ('A' for Active; 'I' for Inactive)
REMARK    1  A    between atoms: N_2  and  C_3
REMARK    2  A    between atoms: N_2  and  C_5
REMARK    3  A    between atoms: C_3  and  C_4
REMARK    4  A    between atoms: C_6  and  C_7
REMARK    5  A    between atoms: C_7  and  C_8
REMARK    6  A    between atoms: C_7  and  C_9
REMARK    7  A    between atoms: C_9  and  O_10
REMARK    8  A    between atoms: C_9  and  C_12
REMARK    9  A    between atoms: O_10  and  C_11
REMARK   10  A    between atoms: C_12  and  C_13
REMARK   11  A    between atoms: C_12  and  C_14
REMARK   12  A    between atoms: C_14  and  O_15
REMARK   13  A    between atoms: C_14  and  C_21
REMARK   14  A    between atoms: O_15  and  C_16
REMARK   15  A    between atoms: C_16  and  C_17
REMARK   16  A    between atoms: C_17  and  C_18
REMARK   17  A    between atoms: C_17  and  C_19
REMARK   18  A    between atoms: C_21  and  C_22
REMARK   19  A    between atoms: C_22  and  C_23
REMARK   20  A    between atoms: C_23  and  C_24
REMARK   21  A    between atoms: C_23  and  C_25
REMARK   22  A    between atoms: C_25  and  O_26
REMARK   23  A    between atoms: C_25  and  C_28
REMARK   24  A    between atoms: O_26  and  C_27
REMARK   25  A    between atoms: C_28  and  C_29
REMARK   26  A    between atoms: C_29  and  O_30
REMARK   27  A    between atoms: C_29  and  C_35
REMARK   28  A    between atoms: O_30  and  C_31
REMARK   29  A    between atoms: C_31  and  C_32
REMARK   30  A    between atoms: C_32  and  C_33
REMARK   31  A    between atoms: C_35  and  C_36
REMARK   32  A    between atoms: C_35  and  C_37
REMARK                            x       y       z     vdW  Elec       q    Type
REMARK                         _______ _______ _______ _____ _____    ______ ____
ROOT
ATOM      1  C   UNL     1     148.085 169.409 190.662  0.00  0.00    +0.108 C 
ATOM      2  H   UNL     1     148.959 169.854 190.187  0.00  0.00    +0.074 HD
ENDROOT
BRANCH   1   3
ATOM      3  C   UNL     1     147.173 168.822 189.561  0.00  0.00    -0.015 C 
ATOM      4  H   UNL     1     147.288 167.731 189.553  0.00  0.00    +0.030 HD
ATOM      5  H   UNL     1     147.500 169.182 188.581  0.00  0.00    +0.030 HD
BRANCH   3   6
ATOM      6  C   UNL     1     145.669 169.088 189.721  0.00  0.00    -0.045 C 
ATOM      7  H   UNL     1     145.535 169.772 190.568  0.00  0.00    +0.027 HD
ATOM      8  H   UNL     1     145.317 169.641 188.841  0.00  0.00    +0.027 HD
BRANCH   6   9
ATOM      9  C   UNL     1     144.771 167.850 189.937  0.00  0.00    -0.017 C 
ATOM     10  H   UNL     1     144.325 167.920 190.934  0.00  0.00    +0.032 HD
BRANCH   9  11
ATOM     11  C   UNL     1     145.674 166.605 189.948  0.00  0.00    -0.060 C 
ATOM     12  H   UNL     1     145.620 166.097 190.917  0.00  0.00    +0.023 HD
ATOM     13  H   UNL     1     146.722 166.874 189.764  0.00  0.00    +0.023 HD
ATOM     14  H   UNL     1     145.367 165.875 189.191  0.00  0.00    +0.023 HD
ENDBRANCH   9  11
BRANCH   9  15
ATOM     15  C   UNL     1     143.605 167.738 188.912  0.00  0.00    +0.064 C 
ATOM     16  H   UNL     1     143.739 168.511 188.146  0.00  0.00    +0.060 HD
BRANCH  15  17
ATOM     17  C   UNL     1     142.241 167.987 189.587  0.00  0.00    +0.011 C 
ATOM     18  H   UNL     1     141.686 167.040 189.607  0.00  0.00    +0.033 HD
ATOM     19  H   UNL     1     141.641 168.676 188.982  0.00  0.00    +0.033 HD
BRANCH  17  20
ATOM     20  C   UNL     1     142.378 168.539 191.025  0.00  0.00    +0.108 C 
ATOM     21  H   UNL     1     143.439 168.697 191.263  0.00  0.00    +0.074 HD
BRANCH  20  22
ATOM     22  C   UNL     1     141.632 169.880 191.263  0.00  0.00    -0.009 C 
ATOM     23  H   UNL     1     141.293 169.921 192.307  0.00  0.00    +0.033 HD
BRANCH  22  24
ATOM     24  C   UNL     1     142.494 171.124 191.000  0.00  0.00    -0.059 C 
ATOM     25  H   UNL     1     142.420 171.857 191.807  0.00  0.00    +0.023 HD
ATOM     26  H   UNL     1     143.550 170.872 190.868  0.00  0.00    +0.023 HD
ATOM     27  H   UNL     1     142.160 171.627 190.086  0.00  0.00    +0.023 HD
ENDBRANCH  22  24
BRANCH  22  28
ATOM     28  C   UNL     1     140.382 169.955 190.375  0.00  0.00    -0.059 C 
ATOM     29  H   UNL     1     140.632 170.226 189.342  0.00  0.00    +0.023 HD
ATOM     30  H   UNL     1     139.679 170.707 190.761  0.00  0.00    +0.023 HD
ATOM     31  H   UNL     1     139.857 168.991 190.354  0.00  0.00    +0.023 HD
ENDBRANCH  22  28
ENDBRANCH  20  22
BRANCH  20  32
ATOM     32  O   UNL     1     141.858 167.560 191.958  0.00  0.00    -0.461 OA
BRANCH  32  33
ATOM     33  C   UNL     1     142.643 167.301 193.050  0.00  0.00    +0.307 C 
ATOM     34  O   UNL     1     142.901 168.101 193.942  0.00  0.00    -0.251 OA
BRANCH  33  35
ATOM     35  C   UNL     1     143.201 165.902 192.955  0.00  0.00    +0.042 C 
ATOM     36  H   UNL     1     143.287 165.642 191.893  0.00  0.00    +0.037 HD
ATOM     37  H   UNL     1     142.498 165.207 193.433  0.00  0.00    +0.037 HD
BRANCH  35  38
ATOM     38  C   UNL     1     144.549 165.784 193.653  0.00  0.00    -0.055 C 
ATOM     39  H   UNL     1     144.847 164.733 193.764  0.00  0.00    +0.023 HD
ATOM     40  H   UNL     1     144.511 166.225 194.660  0.00  0.00    +0.023 HD
ATOM     41  H   UNL     1     145.328 166.300 193.077  0.00  0.00    +0.023 HD
ENDBRANCH  35  38
ENDBRANCH  33  35
ENDBRANCH  32  33
ENDBRANCH  20  32
ENDBRANCH  17  20
ENDBRANCH  15  17
BRANCH  15  42
ATOM     42  O   UNL     1     143.583 166.433 188.330  0.00  0.00    -0.379 OA
BRANCH  42  43
ATOM     43  C   UNL     1     142.310 165.809 188.393  0.00  0.00    +0.037 C 
ATOM     44  H   UNL     1     141.689 166.253 189.178  0.00  0.00    +0.052 HD
ATOM     45  H   UNL     1     142.455 164.753 188.627  0.00  0.00    +0.052 HD
ATOM     46  H   UNL     1     141.798 165.869 187.430  0.00  0.00    +0.052 HD
ENDBRANCH  42  43
ENDBRANCH  15  42
ENDBRANCH   9  15
ENDBRANCH   6   9
ENDBRANCH   3   6
ENDBRANCH   1   3
BRANCH   1  47
ATOM     47  C   UNL     1     148.578 168.293 191.634  0.00  0.00    +0.020 C 
ATOM     48  H   UNL     1     148.633 167.360 191.053  0.00  0.00    +0.036 HD
BRANCH  47  49
ATOM     49  C   UNL     1     147.552 168.048 192.762  0.00  0.00    -0.057 C 
ATOM     50  H   UNL     1     146.531 168.255 192.422  0.00  0.00    +0.023 HD
ATOM     51  H   UNL     1     147.753 168.674 193.638  0.00  0.00    +0.023 HD
ATOM     52  H   UNL     1     147.564 167.000 193.090  0.00  0.00    +0.023 HD
ENDBRANCH  47  49
BRANCH  47  53
ATOM     53  C   UNL     1     149.990 168.500 192.269  0.00  0.00    +0.070 C 
ATOM     54  H   UNL     1     149.811 168.767 193.324  0.00  0.00    +0.061 HD
BRANCH  53  55
ATOM     55  C   UNL     1     150.888 167.224 192.319  0.00  0.00    +0.002 C 
ATOM     56  H   UNL     1     151.915 167.537 192.080  0.00  0.00    +0.037 HD
BRANCH  55  58
ATOM     57  C   UNL     1     149.920 165.971 194.304  0.00  0.00    -0.005 C 
ATOM     58  C   UNL     1     150.967 166.508 193.654  0.00  0.00    -0.065 C 
ATOM     59  H   UNL     1     148.924 166.075 193.872  0.00  0.00    +0.078 HD
ATOM     60  H   UNL     1     151.971 166.420 194.054  0.00  0.00    +0.059 HD
BRANCH  57  62
ATOM     61  C   UNL     1     150.829 164.211 195.685  0.00  0.00    +0.206 C 
ATOM     62  N   UNL     1     149.954 165.282 195.511  0.00  0.00    -0.281 N 
ATOM     63  O   UNL     1     150.994 163.553 196.707  0.00  0.00    -0.279 OA
ATOM     64  H   UNL     1     151.415 163.993 194.777  0.00  0.00    +0.126 HD
BRANCH  62  65
ATOM     65  C   UNL     1     149.117 165.653 196.653  0.00  0.00    +0.016 C 
ATOM     66  H   UNL     1     149.560 166.531 197.144  0.00  0.00    +0.047 HD
ATOM     67  H   UNL     1     149.115 164.852 197.401  0.00  0.00    +0.047 HD
BRANCH  65  68
ATOM     68  C   UNL     1     147.697 166.001 196.224  0.00  0.00    -0.049 C 
ATOM     69  H   UNL     1     147.643 166.090 195.134  0.00  0.00    +0.024 HD
ATOM     70  H   UNL     1     147.362 166.951 196.659  0.00  0.00    +0.024 HD
ATOM     71  H   UNL     1     146.989 165.224 196.534  0.00  0.00    +0.024 HD
ENDBRANCH  65  68
ENDBRANCH  62  65
ENDBRANCH  57  62
ENDBRANCH  55  58
BRANCH  55  72
ATOM     72  C   UNL     1     150.486 166.245 191.198  0.00  0.00    -0.057 C 
ATOM     73  H   UNL     1     151.315 166.105 190.491  0.00  0.00    +0.024 HD
ATOM     74  H   UNL     1     149.621 166.597 190.629  0.00  0.00    +0.024 HD
ATOM     75  H   UNL     1     150.243 165.259 191.610  0.00  0.00    +0.024 HD
ENDBRANCH  55  72
ENDBRANCH  53  55
BRANCH  53  76
ATOM     76  O   UNL     1     150.696 169.574 191.638  0.00  0.00    -0.379 OA
BRANCH  76  77
ATOM     77  C   UNL     1     152.039 169.709 192.075  0.00  0.00    +0.037 C 
ATOM     78  H   UNL     1     152.396 170.734 191.940  0.00  0.00    +0.052 HD
ATOM     79  H   UNL     1     152.669 169.044 191.479  0.00  0.00    +0.052 HD
ATOM     80  H   UNL     1     152.126 169.421 193.128  0.00  0.00    +0.052 HD
ENDBRANCH  76  77
ENDBRANCH  53  76
ENDBRANCH  47  53
ENDBRANCH   1  47
BRANCH   1  81
ATOM     81  O   UNL     1     147.326 170.384 191.398  0.00  0.00    -0.461 OA
BRANCH  81  82
ATOM     82  C   UNL     1     147.787 171.665 191.397  0.00  0.00    +0.310 C 
ATOM     83  O   UNL     1     147.994 172.350 190.404  0.00  0.00    -0.251 OA
BRANCH  82  84
ATOM     84  C   UNL     1     147.940 172.154 192.823  0.00  0.00    +0.051 C 
ATOM     85  H   UNL     1     147.552 171.378 193.496  0.00  0.00    +0.041 HD
BRANCH  84  86
ATOM     86  C   UNL     1     149.413 172.379 193.156  0.00  0.00    -0.053 C 
ATOM     87  H   UNL     1     149.858 173.118 192.480  0.00  0.00    +0.024 HD
ATOM     88  H   UNL     1     149.527 172.749 194.182  0.00  0.00    +0.024 HD
ATOM     89  H   UNL     1     149.991 171.451 193.075  0.00  0.00    +0.024 HD
ENDBRANCH  84  86
BRANCH  84  90
ATOM     90  C   UNL     1     147.124 173.430 192.998  0.00  0.00    -0.053 C 
ATOM     91  H   UNL     1     147.753 174.252 193.374  0.00  0.00    +0.024 HD
ATOM     92  H   UNL     1     146.686 173.749 192.046  0.00  0.00    +0.024 HD
ATOM     93  H   UNL     1     146.308 173.291 193.717  0.00  0.00    +0.024 HD
ENDBRANCH  84  90
ENDBRANCH  82  84
ENDBRANCH  81  82
ENDBRANCH   1  81
TORSDOF 32
ENDMDL
MODEL 8
REMARK VINA RESULT:      -4.7      2.301      7.005
REMARK  Name = 2c_conf1
REMARK  32 active torsions:
REMARK  status: ('A' for Active; 'I' for Inactive)
REMARK    1  A    between atoms: N_2  and  C_3
REMARK    2  A    between atoms: N_2  and  C_5
REMARK    3  A    between atoms: C_3  and  C_4
REMARK    4  A    between atoms: C_6  and  C_7
REMARK    5  A    between atoms: C_7  and  C_8
REMARK    6  A    between atoms: C_7  and  C_9
REMARK    7  A    between atoms: C_9  and  O_10
REMARK    8  A    between atoms: C_9  and  C_12
REMARK    9  A    between atoms: O_10  and  C_11
REMARK   10  A    between atoms: C_12  and  C_13
REMARK   11  A    between atoms: C_12  and  C_14
REMARK   12  A    between atoms: C_14  and  O_15
REMARK   13  A    between atoms: C_14  and  C_21
REMARK   14  A    between atoms: O_15  and  C_16
REMARK   15  A    between atoms: C_16  and  C_17
REMARK   16  A    between atoms: C_17  and  C_18
REMARK   17  A    between atoms: C_17  and  C_19
REMARK   18  A    between atoms: C_21  and  C_22
REMARK   19  A    between atoms: C_22  and  C_23
REMARK   20  A    between atoms: C_23  and  C_24
REMARK   21  A    between atoms: C_23  and  C_25
REMARK   22  A    between atoms: C_25  and  O_26
REMARK   23  A    between atoms: C_25  and  C_28
REMARK   24  A    between atoms: O_26  and  C_27
REMARK   25  A    between atoms: C_28  and  C_29
REMARK   26  A    between atoms: C_29  and  O_30
REMARK   27  A    between atoms: C_29  and  C_35
REMARK   28  A    between atoms: O_30  and  C_31
REMARK   29  A    between atoms: C_31  and  C_32
REMARK   30  A    between atoms: C_32  and  C_33
REMARK   31  A    between atoms: C_35  and  C_36
REMARK   32  A    between atoms: C_35  and  C_37
REMARK                            x       y       z     vdW  Elec       q    Type
REMARK                         _______ _______ _______ _____ _____    ______ ____
ROOT
ATOM      1  C   UNL     1     147.366 169.983 191.081  0.00  0.00    +0.108 C 
ATOM      2  H   UNL     1     146.728 170.468 191.819  0.00  0.00    +0.074 HD
ENDROOT
BRANCH   1   3
ATOM      3  C   UNL     1     148.052 168.768 191.745  0.00  0.00    -0.015 C 
ATOM      4  H   UNL     1     147.480 167.863 191.501  0.00  0.00    +0.030 HD
ATOM      5  H   UNL     1     148.021 168.877 192.833  0.00  0.00    +0.030 HD
BRANCH   3   6
ATOM      6  C   UNL     1     149.496 168.486 191.307  0.00  0.00    -0.045 C 
ATOM      7  H   UNL     1     149.518 167.497 190.834  0.00  0.00    +0.027 HD
ATOM      8  H   UNL     1     149.765 169.195 190.514  0.00  0.00    +0.027 HD
BRANCH   6   9
ATOM      9  C   UNL     1     150.571 168.529 192.415  0.00  0.00    -0.017 C 
ATOM     10  H   UNL     1     150.104 168.898 193.332  0.00  0.00    +0.032 HD
BRANCH   9  11
ATOM     11  C   UNL     1     151.628 169.572 192.011  0.00  0.00    -0.060 C 
ATOM     12  H   UNL     1     151.152 170.448 191.556  0.00  0.00    +0.023 HD
ATOM     13  H   UNL     1     152.338 169.155 191.285  0.00  0.00    +0.023 HD
ATOM     14  H   UNL     1     152.192 169.933 192.878  0.00  0.00    +0.023 HD
ENDBRANCH   9  11
BRANCH   9  15
ATOM     15  C   UNL     1     151.193 167.138 192.736  0.00  0.00    +0.064 C 
ATOM     16  H   UNL     1     152.271 167.266 192.894  0.00  0.00    +0.060 HD
BRANCH  15  17
ATOM     17  C   UNL     1     151.012 166.160 191.558  0.00  0.00    +0.011 C 
ATOM     18  H   UNL     1     150.087 166.422 191.028  0.00  0.00    +0.033 HD
ATOM     19  H   UNL     1     150.867 165.140 191.933  0.00  0.00    +0.033 HD
BRANCH  17  20
ATOM     20  C   UNL     1     152.202 166.188 190.569  0.00  0.00    +0.108 C 
ATOM     21  H   UNL     1     152.632 167.199 190.536  0.00  0.00    +0.074 HD
BRANCH  20  22
ATOM     22  C   UNL     1     153.343 165.196 190.923  0.00  0.00    -0.009 C 
ATOM     23  H   UNL     1     153.241 164.893 191.974  0.00  0.00    +0.033 HD
BRANCH  22  24
ATOM     24  C   UNL     1     153.346 163.922 190.065  0.00  0.00    -0.059 C 
ATOM     25  H   UNL     1     153.495 163.021 190.663  0.00  0.00    +0.023 HD
ATOM     26  H   UNL     1     152.416 163.804 189.501  0.00  0.00    +0.023 HD
ATOM     27  H   UNL     1     154.166 163.958 189.340  0.00  0.00    +0.023 HD
ENDBRANCH  22  24
BRANCH  22  28
ATOM     28  C   UNL     1     154.708 165.886 190.779  0.00  0.00    -0.059 C 
ATOM     29  H   UNL     1     155.532 165.163 190.787  0.00  0.00    +0.023 HD
ATOM     30  H   UNL     1     154.870 166.594 191.603  0.00  0.00    +0.023 HD
ATOM     31  H   UNL     1     154.764 166.452 189.839  0.00  0.00    +0.023 HD
ENDBRANCH  22  28
ENDBRANCH  20  22
BRANCH  20  32
ATOM     32  O   UNL     1     151.720 165.869 189.241  0.00  0.00    -0.461 OA
BRANCH  32  33
ATOM     33  C   UNL     1     151.949 166.817 188.280  0.00  0.00    +0.307 C 
ATOM     34  O   UNL     1     152.892 167.600 188.269  0.00  0.00    -0.251 OA
BRANCH  33  35
ATOM     35  C   UNL     1     150.827 166.799 187.270  0.00  0.00    +0.042 C 
ATOM     36  H   UNL     1     150.906 165.871 186.692  0.00  0.00    +0.037 HD
ATOM     37  H   UNL     1     150.949 167.651 186.589  0.00  0.00    +0.037 HD
BRANCH  35  38
ATOM     38  C   UNL     1     149.464 166.906 187.941  0.00  0.00    -0.055 C 
ATOM     39  H   UNL     1     149.291 167.920 188.327  0.00  0.00    +0.023 HD
ATOM     40  H   UNL     1     149.387 166.211 188.790  0.00  0.00    +0.023 HD
ATOM     41  H   UNL     1     148.664 166.672 187.227  0.00  0.00    +0.023 HD
ENDBRANCH  35  38
ENDBRANCH  33  35
ENDBRANCH  32  33
ENDBRANCH  20  32
ENDBRANCH  17  20
ENDBRANCH  15  17
BRANCH  15  42
ATOM     42  O   UNL     1     150.565 166.571 193.887  0.00  0.00    -0.379 OA
BRANCH  42  43
ATOM     43  C   UNL     1     151.370 165.610 194.552  0.00  0.00    +0.037 C 
ATOM     44  H   UNL     1     151.435 165.820 195.624  0.00  0.00    +0.052 HD
ATOM     45  H   UNL     1     152.377 165.654 194.132  0.00  0.00    +0.052 HD
ATOM     46  H   UNL     1     150.987 164.600 194.390  0.00  0.00    +0.052 HD
ENDBRANCH  42  43
ENDBRANCH  15  42
ENDBRANCH   9  15
ENDBRANCH   6   9
ENDBRANCH   3   6
ENDBRANCH   1   3
BRANCH   1  47
ATOM     47  C   UNL     1     146.470 169.535 189.885  0.00  0.00    +0.020 C 
ATOM     48  H   UNL     1     146.438 168.436 189.899  0.00  0.00    +0.036 HD
BRANCH  47  49
ATOM     49  C   UNL     1     147.104 169.938 188.536  0.00  0.00    -0.057 C 
ATOM     50  H   UNL     1     148.194 169.827 188.561  0.00  0.00    +0.023 HD
ATOM     51  H   UNL     1     146.873 170.977 188.272  0.00  0.00    +0.023 HD
ATOM     52  H   UNL     1     146.744 169.298 187.720  0.00  0.00    +0.023 HD
ENDBRANCH  47  49
BRANCH  47  53
ATOM     53  C   UNL     1     144.985 170.020 189.912  0.00  0.00    +0.070 C 
ATOM     54  H   UNL     1     144.828 170.567 188.969  0.00  0.00    +0.061 HD
BRANCH  53  55
ATOM     55  C   UNL     1     143.917 168.881 189.906  0.00  0.00    +0.002 C 
ATOM     56  H   UNL     1     144.283 168.093 189.232  0.00  0.00    +0.037 HD
BRANCH  55  58
ATOM     57  C   UNL     1     144.359 167.177 191.737  0.00  0.00    -0.005 C 
ATOM     58  C   UNL     1     143.647 168.203 191.236  0.00  0.00    -0.065 C 
ATOM     59  H   UNL     1     145.175 166.764 191.141  0.00  0.00    +0.078 HD
ATOM     60  H   UNL     1     142.832 168.639 191.803  0.00  0.00    +0.059 HD
BRANCH  57  62
ATOM     61  C   UNL     1     145.194 165.812 193.544  0.00  0.00    +0.206 C 
ATOM     62  N   UNL     1     144.165 166.549 192.962  0.00  0.00    -0.281 N 
ATOM     63  O   UNL     1     145.173 165.252 194.635  0.00  0.00    -0.279 OA
ATOM     64  H   UNL     1     146.098 165.778 192.914  0.00  0.00    +0.126 HD
BRANCH  62  65
ATOM     65  C   UNL     1     142.910 166.653 193.709  0.00  0.00    +0.016 C 
ATOM     66  H   UNL     1     142.717 167.712 193.929  0.00  0.00    +0.047 HD
ATOM     67  H   UNL     1     143.001 166.149 194.678  0.00  0.00    +0.047 HD
BRANCH  65  68
ATOM     68  C   UNL     1     141.733 166.099 192.916  0.00  0.00    -0.049 C 
ATOM     69  H   UNL     1     140.791 166.335 193.425  0.00  0.00    +0.024 HD
ATOM     70  H   UNL     1     141.794 165.009 192.805  0.00  0.00    +0.024 HD
ATOM     71  H   UNL     1     141.691 166.535 191.912  0.00  0.00    +0.024 HD
ENDBRANCH  65  68
ENDBRANCH  62  65
ENDBRANCH  57  62
ENDBRANCH  55  58
BRANCH  55  72
ATOM     72  C   UNL     1     142.603 169.384 189.274  0.00  0.00    -0.057 C 
ATOM     73  H   UNL     1     141.740 168.865 189.711  0.00  0.00    +0.024 HD
ATOM     74  H   UNL     1     142.575 169.223 188.193  0.00  0.00    +0.024 HD
ATOM     75  H   UNL     1     142.466 170.455 189.460  0.00  0.00    +0.024 HD
ENDBRANCH  55  72
ENDBRANCH  53  55
BRANCH  53  76
ATOM     76  O   UNL     1     144.745 170.913 191.006  0.00  0.00    -0.379 OA
BRANCH  76  77
ATOM     77  C   UNL     1     144.460 172.243 190.605  0.00  0.00    +0.037 C 
ATOM     78  H   UNL     1     143.394 172.374 190.401  0.00  0.00    +0.052 HD
ATOM     79  H   UNL     1     145.016 172.458 189.689  0.00  0.00    +0.052 HD
ATOM     80  H   UNL     1     144.780 172.949 191.379  0.00  0.00    +0.052 HD
ENDBRANCH  76  77
ENDBRANCH  53  76
ENDBRANCH  47  53
ENDBRANCH   1  47
BRANCH   1  81
ATOM     81  O   UNL     1     148.394 170.869 190.604  0.00  0.00    -0.461 OA
BRANCH  81  82
ATOM     82  C   UNL     1     148.369 172.154 191.054  0.00  0.00    +0.310 C 
ATOM     83  O   UNL     1     148.472 173.156 190.360  0.00  0.00    -0.251 OA
BRANCH  82  84
ATOM     84  C   UNL     1     148.120 172.166 192.549  0.00  0.00    +0.051 C 
ATOM     85  H   UNL     1     147.653 171.213 192.828  0.00  0.00    +0.041 HD
BRANCH  84  86
ATOM     86  C   UNL     1     149.438 172.292 193.310  0.00  0.00    -0.053 C 
ATOM     87  H   UNL     1     150.218 171.680 192.844  0.00  0.00    +0.024 HD
ATOM     88  H   UNL     1     149.784 173.333 193.316  0.00  0.00    +0.024 HD
ATOM     89  H   UNL     1     149.332 171.974 194.353  0.00  0.00    +0.024 HD
ENDBRANCH  84  86
BRANCH  84  90
ATOM     90  C   UNL     1     147.169 173.312 192.881  0.00  0.00    -0.053 C 
ATOM     91  H   UNL     1     147.726 174.237 193.096  0.00  0.00    +0.024 HD
ATOM     92  H   UNL     1     146.492 173.514 192.045  0.00  0.00    +0.024 HD
ATOM     93  H   UNL     1     146.560 173.087 193.764  0.00  0.00    +0.024 HD
ENDBRANCH  84  90
ENDBRANCH  82  84
ENDBRANCH  81  82
ENDBRANCH   1  81
TORSDOF 32
ENDMDL
MODEL 9
REMARK VINA RESULT:      -4.7      1.758      3.335
REMARK  Name = 2c_conf1
REMARK  32 active torsions:
REMARK  status: ('A' for Active; 'I' for Inactive)
REMARK    1  A    between atoms: N_2  and  C_3
REMARK    2  A    between atoms: N_2  and  C_5
REMARK    3  A    between atoms: C_3  and  C_4
REMARK    4  A    between atoms: C_6  and  C_7
REMARK    5  A    between atoms: C_7  and  C_8
REMARK    6  A    between atoms: C_7  and  C_9
REMARK    7  A    between atoms: C_9  and  O_10
REMARK    8  A    between atoms: C_9  and  C_12
REMARK    9  A    between atoms: O_10  and  C_11
REMARK   10  A    between atoms: C_12  and  C_13
REMARK   11  A    between atoms: C_12  and  C_14
REMARK   12  A    between atoms: C_14  and  O_15
REMARK   13  A    between atoms: C_14  and  C_21
REMARK   14  A    between atoms: O_15  and  C_16
REMARK   15  A    between atoms: C_16  and  C_17
REMARK   16  A    between atoms: C_17  and  C_18
REMARK   17  A    between atoms: C_17  and  C_19
REMARK   18  A    between atoms: C_21  and  C_22
REMARK   19  A    between atoms: C_22  and  C_23
REMARK   20  A    between atoms: C_23  and  C_24
REMARK   21  A    between atoms: C_23  and  C_25
REMARK   22  A    between atoms: C_25  and  O_26
REMARK   23  A    between atoms: C_25  and  C_28
REMARK   24  A    between atoms: O_26  and  C_27
REMARK   25  A    between atoms: C_28  and  C_29
REMARK   26  A    between atoms: C_29  and  O_30
REMARK   27  A    between atoms: C_29  and  C_35
REMARK   28  A    between atoms: O_30  and  C_31
REMARK   29  A    between atoms: C_31  and  C_32
REMARK   30  A    between atoms: C_32  and  C_33
REMARK   31  A    between atoms: C_35  and  C_36
REMARK   32  A    between atoms: C_35  and  C_37
REMARK                            x       y       z     vdW  Elec       q    Type
REMARK                         _______ _______ _______ _____ _____    ______ ____
ROOT
ATOM      1  C   UNL     1     148.908 168.807 192.321  0.00  0.00    +0.108 C 
ATOM      2  H   UNL     1     148.655 168.509 191.304  0.00  0.00    +0.074 HD
ENDROOT
BRANCH   1   3
ATOM      3  C   UNL     1     148.296 167.780 193.301  0.00  0.00    -0.015 C 
ATOM      4  H   UNL     1     147.747 168.321 194.081  0.00  0.00    +0.030 HD
ATOM      5  H   UNL     1     149.096 167.228 193.803  0.00  0.00    +0.030 HD
BRANCH   3   6
ATOM      6  C   UNL     1     147.298 166.783 192.695  0.00  0.00    -0.045 C 
ATOM      7  H   UNL     1     147.071 167.112 191.674  0.00  0.00    +0.027 HD
ATOM      8  H   UNL     1     147.797 165.812 192.585  0.00  0.00    +0.027 HD
BRANCH   6   9
ATOM      9  C   UNL     1     145.970 166.590 193.459  0.00  0.00    -0.017 C 
ATOM     10  H   UNL     1     145.890 167.379 194.213  0.00  0.00    +0.032 HD
BRANCH   9  11
ATOM     11  C   UNL     1     146.052 165.258 194.226  0.00  0.00    -0.060 C 
ATOM     12  H   UNL     1     145.154 164.656 194.049  0.00  0.00    +0.023 HD
ATOM     13  H   UNL     1     146.140 165.429 195.306  0.00  0.00    +0.023 HD
ATOM     14  H   UNL     1     146.906 164.656 193.900  0.00  0.00    +0.023 HD
ENDBRANCH   9  11
BRANCH   9  15
ATOM     15  C   UNL     1     144.708 166.684 192.552  0.00  0.00    +0.064 C 
ATOM     16  H   UNL     1     144.380 165.666 192.305  0.00  0.00    +0.060 HD
BRANCH  15  17
ATOM     17  C   UNL     1     145.025 167.401 191.225  0.00  0.00    +0.011 C 
ATOM     18  H   UNL     1     146.095 167.647 191.211  0.00  0.00    +0.033 HD
ATOM     19  H   UNL     1     144.495 168.360 191.178  0.00  0.00    +0.033 HD
BRANCH  17  20
ATOM     20  C   UNL     1     144.673 166.548 189.984  0.00  0.00    +0.108 C 
ATOM     21  H   UNL     1     143.929 167.075 189.371  0.00  0.00    +0.074 HD
BRANCH  20  22
ATOM     22  C   UNL     1     145.889 166.217 189.077  0.00  0.00    -0.009 C 
ATOM     23  H   UNL     1     145.533 166.029 188.055  0.00  0.00    +0.033 HD
BRANCH  22  24
ATOM     24  C   UNL     1     146.937 167.337 189.010  0.00  0.00    -0.059 C 
ATOM     25  H   UNL     1     146.840 168.044 189.837  0.00  0.00    +0.023 HD
ATOM     26  H   UNL     1     147.959 166.945 189.018  0.00  0.00    +0.023 HD
ATOM     27  H   UNL     1     146.815 167.913 188.087  0.00  0.00    +0.023 HD
ENDBRANCH  22  24
BRANCH  22  28
ATOM     28  C   UNL     1     146.577 164.932 189.562  0.00  0.00    -0.059 C 
ATOM     29  H   UNL     1     146.188 164.603 190.533  0.00  0.00    +0.023 HD
ATOM     30  H   UNL     1     147.659 165.091 189.667  0.00  0.00    +0.023 HD
ATOM     31  H   UNL     1     146.431 164.114 188.844  0.00  0.00    +0.023 HD
ENDBRANCH  22  28
ENDBRANCH  20  22
BRANCH  20  32
ATOM     32  O   UNL     1     144.081 165.300 190.421  0.00  0.00    -0.461 OA
BRANCH  32  33
ATOM     33  C   UNL     1     142.842 165.016 189.911  0.00  0.00    +0.307 C 
ATOM     34  O   UNL     1     141.878 165.772 189.933  0.00  0.00    -0.251 OA
BRANCH  33  35
ATOM     35  C   UNL     1     142.823 163.605 189.377  0.00  0.00    +0.042 C 
ATOM     36  H   UNL     1     141.780 163.268 189.346  0.00  0.00    +0.037 HD
ATOM     37  H   UNL     1     143.384 162.958 190.064  0.00  0.00    +0.037 HD
BRANCH  35  38
ATOM     38  C   UNL     1     143.463 163.515 187.998  0.00  0.00    -0.055 C 
ATOM     39  H   UNL     1     142.802 163.933 187.227  0.00  0.00    +0.023 HD
ATOM     40  H   UNL     1     143.668 162.469 187.727  0.00  0.00    +0.023 HD
ATOM     41  H   UNL     1     144.409 164.072 187.975  0.00  0.00    +0.023 HD
ENDBRANCH  35  38
ENDBRANCH  33  35
ENDBRANCH  32  33
ENDBRANCH  20  32
ENDBRANCH  17  20
ENDBRANCH  15  17
BRANCH  15  42
ATOM     42  O   UNL     1     143.674 167.412 193.218  0.00  0.00    -0.379 OA
BRANCH  42  43
ATOM     43  C   UNL     1     142.503 166.644 193.447  0.00  0.00    +0.037 C 
ATOM     44  H   UNL     1     141.668 167.279 193.761  0.00  0.00    +0.052 HD
ATOM     45  H   UNL     1     142.710 165.930 194.246  0.00  0.00    +0.052 HD
ATOM     46  H   UNL     1     142.228 166.076 192.556  0.00  0.00    +0.052 HD
ENDBRANCH  42  43
ENDBRANCH  15  42
ENDBRANCH   9  15
ENDBRANCH   6   9
ENDBRANCH   3   6
ENDBRANCH   1   3
BRANCH   1  47
ATOM     47  C   UNL     1     150.463 168.839 192.444  0.00  0.00    +0.020 C 
ATOM     48  H   UNL     1     150.703 168.814 193.517  0.00  0.00    +0.036 HD
BRANCH  47  49
ATOM     49  C   UNL     1     151.035 170.165 191.897  0.00  0.00    -0.057 C 
ATOM     50  H   UNL     1     151.184 170.894 192.701  0.00  0.00    +0.023 HD
ATOM     51  H   UNL     1     150.374 170.615 191.148  0.00  0.00    +0.023 HD
ATOM     52  H   UNL     1     152.016 170.012 191.429  0.00  0.00    +0.023 HD
ENDBRANCH  47  49
BRANCH  47  53
ATOM     53  C   UNL     1     151.235 167.647 191.792  0.00  0.00    +0.070 C 
ATOM     54  H   UNL     1     151.909 168.096 191.044  0.00  0.00    +0.061 HD
BRANCH  53  55
ATOM     55  C   UNL     1     152.169 166.855 192.760  0.00  0.00    +0.002 C 
ATOM     56  H   UNL     1     152.606 167.581 193.460  0.00  0.00    +0.037 HD
BRANCH  55  58
ATOM     57  C   UNL     1     151.084 165.974 194.880  0.00  0.00    -0.005 C 
ATOM     58  C   UNL     1     151.506 165.792 193.616  0.00  0.00    -0.065 C 
ATOM     59  H   UNL     1     151.251 166.942 195.356  0.00  0.00    +0.078 HD
ATOM     60  H   UNL     1     151.354 164.844 193.113  0.00  0.00    +0.059 HD
BRANCH  57  62
ATOM     61  C   UNL     1     151.122 163.895 196.107  0.00  0.00    +0.206 C 
ATOM     62  N   UNL     1     150.445 165.039 195.687  0.00  0.00    -0.281 N 
ATOM     63  O   UNL     1     150.696 163.021 196.854  0.00  0.00    -0.279 OA
ATOM     64  H   UNL     1     152.145 163.837 195.701  0.00  0.00    +0.126 HD
BRANCH  62  65
ATOM     65  C   UNL     1     149.071 165.215 196.158  0.00  0.00    +0.016 C 
ATOM     66  H   UNL     1     148.820 164.384 196.832  0.00  0.00    +0.047 HD
ATOM     67  H   UNL     1     148.369 165.152 195.318  0.00  0.00    +0.047 HD
BRANCH  65  68
ATOM     68  C   UNL     1     148.895 166.524 196.915  0.00  0.00    -0.049 C 
ATOM     69  H   UNL     1     149.826 166.792 197.428  0.00  0.00    +0.024 HD
ATOM     70  H   UNL     1     148.101 166.455 197.669  0.00  0.00    +0.024 HD
ATOM     71  H   UNL     1     148.638 167.344 196.235  0.00  0.00    +0.024 HD
ENDBRANCH  65  68
ENDBRANCH  62  65
ENDBRANCH  57  62
ENDBRANCH  55  58
BRANCH  55  72
ATOM     72  C   UNL     1     153.364 166.264 191.984  0.00  0.00    -0.057 C 
ATOM     73  H   UNL     1     154.122 167.034 191.796  0.00  0.00    +0.024 HD
ATOM     74  H   UNL     1     153.066 165.847 191.018  0.00  0.00    +0.024 HD
ATOM     75  H   UNL     1     153.847 165.467 192.562  0.00  0.00    +0.024 HD
ENDBRANCH  55  72
ENDBRANCH  53  55
BRANCH  53  76
ATOM     76  O   UNL     1     150.343 166.747 191.124  0.00  0.00    -0.379 OA
BRANCH  76  77
ATOM     77  C   UNL     1     150.540 166.684 189.721  0.00  0.00    +0.037 C 
ATOM     78  H   UNL     1     149.694 166.200 189.226  0.00  0.00    +0.052 HD
ATOM     79  H   UNL     1     151.439 166.096 189.521  0.00  0.00    +0.052 HD
ATOM     80  H   UNL     1     150.684 167.690 189.313  0.00  0.00    +0.052 HD
ENDBRANCH  76  77
ENDBRANCH  53  76
ENDBRANCH  47  53
ENDBRANCH   1  47
BRANCH   1  81
ATOM     81  O   UNL     1     148.375 170.103 192.643  0.00  0.00    -0.461 OA
BRANCH  81  82
ATOM     82  C   UNL     1     147.934 170.871 191.609  0.00  0.00    +0.310 C 
ATOM     83  O   UNL     1     147.531 170.456 190.531  0.00  0.00    -0.251 OA
BRANCH  82  84
ATOM     84  C   UNL     1     147.944 172.331 192.017  0.00  0.00    +0.051 C 
ATOM     85  H   UNL     1     148.510 172.894 191.265  0.00  0.00    +0.041 HD
BRANCH  84  86
ATOM     86  C   UNL     1     146.522 172.885 192.057  0.00  0.00    -0.053 C 
ATOM     87  H   UNL     1     146.424 173.654 192.830  0.00  0.00    +0.024 HD
ATOM     88  H   UNL     1     146.256 173.339 191.094  0.00  0.00    +0.024 HD
ATOM     89  H   UNL     1     145.788 172.098 192.263  0.00  0.00    +0.024 HD
ENDBRANCH  84  86
BRANCH  84  90
ATOM     90  C   UNL     1     148.634 172.459 193.371  0.00  0.00    -0.053 C 
ATOM     91  H   UNL     1     149.562 173.045 193.287  0.00  0.00    +0.024 HD
ATOM     92  H   UNL     1     147.984 172.960 194.096  0.00  0.00    +0.024 HD
ATOM     93  H   UNL     1     148.905 171.479 193.779  0.00  0.00    +0.024 HD
ENDBRANCH  84  90
ENDBRANCH  82  84
ENDBRANCH  81  82
ENDBRANCH   1  81
TORSDOF 32
ENDMDL
MODEL 10
REMARK VINA RESULT:      -4.7      1.318      2.808
REMARK  Name = 2c_conf1
REMARK  32 active torsions:
REMARK  status: ('A' for Active; 'I' for Inactive)
REMARK    1  A    between atoms: N_2  and  C_3
REMARK    2  A    between atoms: N_2  and  C_5
REMARK    3  A    between atoms: C_3  and  C_4
REMARK    4  A    between atoms: C_6  and  C_7
REMARK    5  A    between atoms: C_7  and  C_8
REMARK    6  A    between atoms: C_7  and  C_9
REMARK    7  A    between atoms: C_9  and  O_10
REMARK    8  A    between atoms: C_9  and  C_12
REMARK    9  A    between atoms: O_10  and  C_11
REMARK   10  A    between atoms: C_12  and  C_13
REMARK   11  A    between atoms: C_12  and  C_14
REMARK   12  A    between atoms: C_14  and  O_15
REMARK   13  A    between atoms: C_14  and  C_21
REMARK   14  A    between atoms: O_15  and  C_16
REMARK   15  A    between atoms: C_16  and  C_17
REMARK   16  A    between atoms: C_17  and  C_18
REMARK   17  A    between atoms: C_17  and  C_19
REMARK   18  A    between atoms: C_21  and  C_22
REMARK   19  A    between atoms: C_22  and  C_23
REMARK   20  A    between atoms: C_23  and  C_24
REMARK   21  A    between atoms: C_23  and  C_25
REMARK   22  A    between atoms: C_25  and  O_26
REMARK   23  A    between atoms: C_25  and  C_28
REMARK   24  A    between atoms: O_26  and  C_27
REMARK   25  A    between atoms: C_28  and  C_29
REMARK   26  A    between atoms: C_29  and  O_30
REMARK   27  A    between atoms: C_29  and  C_35
REMARK   28  A    between atoms: O_30  and  C_31
REMARK   29  A    between atoms: C_31  and  C_32
REMARK   30  A    between atoms: C_32  and  C_33
REMARK   31  A    between atoms: C_35  and  C_36
REMARK   32  A    between atoms: C_35  and  C_37
REMARK                            x       y       z     vdW  Elec       q    Type
REMARK                         _______ _______ _______ _____ _____    ______ ____
ROOT
ATOM      1  C   UNL     1     148.444 169.750 191.121  0.00  0.00    +0.108 C 
ATOM      2  H   UNL     1     149.369 170.255 190.843  0.00  0.00    +0.074 HD
ENDROOT
BRANCH   1   3
ATOM      3  C   UNL     1     147.576 169.581 189.854  0.00  0.00    -0.015 C 
ATOM      4  H   UNL     1     147.958 168.729 189.276  0.00  0.00    +0.030 HD
ATOM      5  H   UNL     1     147.678 170.464 189.217  0.00  0.00    +0.030 HD
BRANCH   3   6
ATOM      6  C   UNL     1     146.086 169.297 190.091  0.00  0.00    -0.045 C 
ATOM      7  H   UNL     1     145.985 168.832 191.079  0.00  0.00    +0.027 HD
ATOM      8  H   UNL     1     145.555 170.254 190.163  0.00  0.00    +0.027 HD
BRANCH   6   9
ATOM      9  C   UNL     1     145.382 168.401 189.048  0.00  0.00    -0.017 C 
ATOM     10  H   UNL     1     146.107 168.149 188.268  0.00  0.00    +0.032 HD
BRANCH   9  11
ATOM     11  C   UNL     1     144.281 169.235 188.371  0.00  0.00    -0.060 C 
ATOM     12  H   UNL     1     144.268 170.255 188.772  0.00  0.00    +0.023 HD
ATOM     13  H   UNL     1     143.291 168.792 188.536  0.00  0.00    +0.023 HD
ATOM     14  H   UNL     1     144.445 169.321 187.292  0.00  0.00    +0.023 HD
ENDBRANCH   9  11
BRANCH   9  15
ATOM     15  C   UNL     1     144.846 167.062 189.636  0.00  0.00    +0.064 C 
ATOM     16  H   UNL     1     143.795 166.948 189.340  0.00  0.00    +0.060 HD
BRANCH  15  17
ATOM     17  C   UNL     1     144.894 167.069 191.177  0.00  0.00    +0.011 C 
ATOM     18  H   UNL     1     145.440 167.964 191.503  0.00  0.00    +0.033 HD
ATOM     19  H   UNL     1     145.475 166.213 191.540  0.00  0.00    +0.033 HD
BRANCH  17  20
ATOM     20  C   UNL     1     143.487 167.056 191.819  0.00  0.00    +0.108 C 
ATOM     21  H   UNL     1     142.744 166.731 191.078  0.00  0.00    +0.074 HD
BRANCH  20  22
ATOM     22  C   UNL     1     143.364 166.124 193.056  0.00  0.00    -0.009 C 
ATOM     23  H   UNL     1     142.957 165.156 192.736  0.00  0.00    +0.033 HD
BRANCH  22  24
ATOM     24  C   UNL     1     144.698 165.860 193.769  0.00  0.00    -0.059 C 
ATOM     25  H   UNL     1     145.199 164.965 193.393  0.00  0.00    +0.023 HD
ATOM     26  H   UNL     1     145.391 166.702 193.671  0.00  0.00    +0.023 HD
ATOM     27  H   UNL     1     144.528 165.699 194.839  0.00  0.00    +0.023 HD
ENDBRANCH  22  24
BRANCH  22  28
ATOM     28  C   UNL     1     142.377 166.720 194.071  0.00  0.00    -0.059 C 
ATOM     29  H   UNL     1     142.747 166.630 195.100  0.00  0.00    +0.023 HD
ATOM     30  H   UNL     1     141.408 166.205 194.014  0.00  0.00    +0.023 HD
ATOM     31  H   UNL     1     142.199 167.784 193.867  0.00  0.00    +0.023 HD
ENDBRANCH  22  28
ENDBRANCH  20  22
BRANCH  20  32
ATOM     32  O   UNL     1     143.143 168.402 192.230  0.00  0.00    -0.461 OA
BRANCH  32  33
ATOM     33  C   UNL     1     142.243 169.057 191.433  0.00  0.00    +0.307 C 
ATOM     34  O   UNL     1     141.339 168.523 190.799  0.00  0.00    -0.251 OA
BRANCH  33  35
ATOM     35  C   UNL     1     142.573 170.529 191.396  0.00  0.00    +0.042 C 
ATOM     36  H   UNL     1     143.139 170.727 190.477  0.00  0.00    +0.037 HD
ATOM     37  H   UNL     1     143.205 170.773 192.260  0.00  0.00    +0.037 HD
BRANCH  35  38
ATOM     38  C   UNL     1     141.318 171.390 191.455  0.00  0.00    -0.055 C 
ATOM     39  H   UNL     1     140.714 171.148 192.340  0.00  0.00    +0.023 HD
ATOM     40  H   UNL     1     140.688 171.229 190.569  0.00  0.00    +0.023 HD
ATOM     41  H   UNL     1     141.583 172.454 191.504  0.00  0.00    +0.023 HD
ENDBRANCH  35  38
ENDBRANCH  33  35
ENDBRANCH  32  33
ENDBRANCH  20  32
ENDBRANCH  17  20
ENDBRANCH  15  17
BRANCH  15  42
ATOM     42  O   UNL     1     145.636 165.967 189.169  0.00  0.00    -0.379 OA
BRANCH  42  43
ATOM     43  C   UNL     1     146.328 166.246 187.962  0.00  0.00    +0.037 C 
ATOM     44  H   UNL     1     145.659 166.187 187.098  0.00  0.00    +0.052 HD
ATOM     45  H   UNL     1     147.117 165.502 187.838  0.00  0.00    +0.052 HD
ATOM     46  H   UNL     1     146.802 167.230 188.003  0.00  0.00    +0.052 HD
ENDBRANCH  42  43
ENDBRANCH  15  42
ENDBRANCH   9  15
ENDBRANCH   6   9
ENDBRANCH   3   6
ENDBRANCH   1   3
BRANCH   1  47
ATOM     47  C   UNL     1     148.814 168.364 191.735  0.00  0.00    +0.020 C 
ATOM     48  H   UNL     1     148.576 167.601 190.978  0.00  0.00    +0.036 HD
BRANCH  47  49
ATOM     49  C   UNL     1     147.936 168.051 192.966  0.00  0.00    -0.057 C 
ATOM     50  H   UNL     1     147.368 167.125 192.823  0.00  0.00    +0.023 HD
ATOM     51  H   UNL     1     147.225 168.858 193.175  0.00  0.00    +0.023 HD
ATOM     52  H   UNL     1     148.550 167.904 193.865  0.00  0.00    +0.023 HD
ENDBRANCH  47  49
BRANCH  47  53
ATOM     53  C   UNL     1     150.315 168.153 192.115  0.00  0.00    +0.070 C 
ATOM     54  H   UNL     1     150.403 168.446 193.175  0.00  0.00    +0.061 HD
BRANCH  53  55
ATOM     55  C   UNL     1     150.810 166.673 192.059  0.00  0.00    +0.002 C 
ATOM     56  H   UNL     1     151.909 166.697 192.024  0.00  0.00    +0.037 HD
BRANCH  55  58
ATOM     57  C   UNL     1     150.713 166.090 194.529  0.00  0.00    -0.005 C 
ATOM     58  C   UNL     1     150.448 165.797 193.244  0.00  0.00    -0.065 C 
ATOM     59  H   UNL     1     151.259 167.007 194.757  0.00  0.00    +0.078 HD
ATOM     60  H   UNL     1     149.904 164.895 192.983  0.00  0.00    +0.059 HD
BRANCH  57  62
ATOM     61  C   UNL     1     150.978 164.096 195.865  0.00  0.00    +0.206 C 
ATOM     62  N   UNL     1     150.372 165.331 195.643  0.00  0.00    -0.281 N 
ATOM     63  O   UNL     1     150.806 163.353 196.826  0.00  0.00    -0.279 OA
ATOM     64  H   UNL     1     151.685 163.822 195.064  0.00  0.00    +0.126 HD
BRANCH  62  65
ATOM     65  C   UNL     1     149.405 165.791 196.641  0.00  0.00    +0.016 C 
ATOM     66  H   UNL     1     149.697 166.795 196.979  0.00  0.00    +0.047 HD
ATOM     67  H   UNL     1     149.437 165.147 197.528  0.00  0.00    +0.047 HD
BRANCH  65  68
ATOM     68  C   UNL     1     147.994 165.861 196.072  0.00  0.00    -0.049 C 
ATOM     69  H   UNL     1     147.757 166.889 195.777  0.00  0.00    +0.024 HD
ATOM     70  H   UNL     1     147.244 165.537 196.804  0.00  0.00    +0.024 HD
ATOM     71  H   UNL     1     147.893 165.225 195.186  0.00  0.00    +0.024 HD
ENDBRANCH  65  68
ENDBRANCH  62  65
ENDBRANCH  57  62
ENDBRANCH  55  58
BRANCH  55  72
ATOM     72  C   UNL     1     150.371 166.012 190.737  0.00  0.00    -0.057 C 
ATOM     73  H   UNL     1     149.321 166.244 190.519  0.00  0.00    +0.024 HD
ATOM     74  H   UNL     1     150.473 164.924 190.764  0.00  0.00    +0.024 HD
ATOM     75  H   UNL     1     150.967 166.388 189.897  0.00  0.00    +0.024 HD
ENDBRANCH  55  72
ENDBRANCH  53  55
BRANCH  53  76
ATOM     76  O   UNL     1     151.176 168.989 191.335  0.00  0.00    -0.379 OA
BRANCH  76  77
ATOM     77  C   UNL     1     151.934 169.907 192.107  0.00  0.00    +0.037 C 
ATOM     78  H   UNL     1     152.217 170.781 191.515  0.00  0.00    +0.052 HD
ATOM     79  H   UNL     1     152.846 169.409 192.445  0.00  0.00    +0.052 HD
ATOM     80  H   UNL     1     151.364 170.223 192.987  0.00  0.00    +0.052 HD
ENDBRANCH  76  77
ENDBRANCH  53  76
ENDBRANCH  47  53
ENDBRANCH   1  47
BRANCH   1  81
ATOM     81  O   UNL     1     147.690 170.512 192.080  0.00  0.00    -0.461 OA
BRANCH  81  82
ATOM     82  C   UNL     1     148.297 171.600 192.629  0.00  0.00    +0.310 C 
ATOM     83  O   UNL     1     149.201 171.574 193.453  0.00  0.00    -0.251 OA
BRANCH  82  84
ATOM     84  C   UNL     1     147.734 172.865 192.012  0.00  0.00    +0.051 C 
ATOM     85  H   UNL     1     147.811 173.672 192.751  0.00  0.00    +0.041 HD
BRANCH  84  86
ATOM     86  C   UNL     1     148.545 173.266 190.782  0.00  0.00    -0.053 C 
ATOM     87  H   UNL     1     148.857 174.315 190.845  0.00  0.00    +0.024 HD
ATOM     88  H   UNL     1     149.450 172.651 190.696  0.00  0.00    +0.024 HD
ATOM     89  H   UNL     1     147.969 173.136 189.859  0.00  0.00    +0.024 HD
ENDBRANCH  84  86
BRANCH  84  90
ATOM     90  C   UNL     1     146.267 172.633 191.665  0.00  0.00    -0.053 C 
ATOM     91  H   UNL     1     146.109 171.616 191.274  0.00  0.00    +0.024 HD
ATOM     92  H   UNL     1     145.631 172.758 192.547  0.00  0.00    +0.024 HD
ATOM     93  H   UNL     1     145.921 173.333 190.895  0.00  0.00    +0.024 HD
ENDBRANCH  84  90
ENDBRANCH  82  84
ENDBRANCH  81  82
ENDBRANCH   1  81
TORSDOF 32
ENDMDL
