MODEL 1
REMARK VINA RESULT:      -5.2      0.000      0.000
REMARK  Name = 2u_conf2
REMARK  31 active torsions:
REMARK  status: ('A' for Active; 'I' for Inactive)
REMARK    1  A    between atoms: C_2  and  C_3
REMARK    2  A    between atoms: C_2  and  O_8
REMARK    3  A    between atoms: O_8  and  C_9
REMARK    4  A    between atoms: C_9  and  C_10
REMARK    5  A    between atoms: C_9  and  C_29
REMARK    6  A    between atoms: C_10  and  C_11
REMARK    7  A    between atoms: C_11  and  C_12
REMARK    8  A    between atoms: C_12  and  C_13
REMARK    9  A    between atoms: C_12  and  C_14
REMARK   10  A    between atoms: C_14  and  O_15
REMARK   11  A    between atoms: C_14  and  C_17
REMARK   12  A    between atoms: O_15  and  C_16
REMARK   13  A    between atoms: C_17  and  C_18
REMARK   14  A    between atoms: C_18  and  O_19
REMARK   15  A    between atoms: C_18  and  C_26
REMARK   16  A    between atoms: O_19  and  C_20
REMARK   17  A    between atoms: C_20  and  C_21
REMARK   18  A    between atoms: C_21  and  C_22
REMARK   19  A    between atoms: C_22  and  C_23
REMARK   20  A    between atoms: C_23  and  N_24
REMARK   21  A    between atoms: C_26  and  C_27
REMARK   22  A    between atoms: C_26  and  C_28
REMARK   23  A    between atoms: C_29  and  C_30
REMARK   24  A    between atoms: C_29  and  C_31
REMARK   25  A    between atoms: C_31  and  O_32
REMARK   26  A    between atoms: C_31  and  C_34
REMARK   27  A    between atoms: O_32  and  C_33
REMARK   28  A    between atoms: C_34  and  C_35
REMARK   29  A    between atoms: C_34  and  C_36
REMARK   30  A    between atoms: C_37  and  N_38
REMARK   31  A    between atoms: N_38  and  C_39
REMARK                            x       y       z     vdW  Elec       q    Type
REMARK                         _______ _______ _______ _____ _____    ______ ____
ROOT
ATOM      1  C   UNL     1     147.340 169.139 191.249  0.00  0.00    -0.015 C 
ATOM      2  H   UNL     1     147.384 169.960 191.965  0.00  0.00    +0.030 HD
ATOM      3  H   UNL     1     146.782 168.342 191.751  0.00  0.00    +0.030 HD
ENDROOT
BRANCH   1   4
ATOM      4  C   UNL     1     148.773 168.654 190.968  0.00  0.00    -0.045 C 
ATOM      5  H   UNL     1     149.363 169.478 190.554  0.00  0.00    +0.027 HD
ATOM      6  H   UNL     1     148.748 167.890 190.183  0.00  0.00    +0.027 HD
BRANCH   4   7
ATOM      7  C   UNL     1     149.509 168.062 192.192  0.00  0.00    -0.017 C 
ATOM      8  H   UNL     1     148.864 168.236 193.066  0.00  0.00    +0.032 HD
BRANCH   7   9
ATOM      9  C   UNL     1     150.799 168.850 192.468  0.00  0.00    -0.060 C 
ATOM     10  H   UNL     1     150.588 169.764 193.033  0.00  0.00    +0.023 HD
ATOM     11  H   UNL     1     151.281 169.157 191.533  0.00  0.00    +0.023 HD
ATOM     12  H   UNL     1     151.520 168.259 193.042  0.00  0.00    +0.023 HD
ENDBRANCH   7   9
BRANCH   7  13
ATOM     13  C   UNL     1     149.786 166.535 192.110  0.00  0.00    +0.064 C 
ATOM     14  H   UNL     1     149.985 166.251 191.070  0.00  0.00    +0.060 HD
BRANCH  13  15
ATOM     15  C   UNL     1     148.606 165.707 192.661  0.00  0.00    +0.011 C 
ATOM     16  H   UNL     1     147.798 165.722 191.923  0.00  0.00    +0.033 HD
ATOM     17  H   UNL     1     148.932 164.671 192.792  0.00  0.00    +0.033 HD
BRANCH  15  18
ATOM     18  C   UNL     1     148.081 166.237 194.008  0.00  0.00    +0.108 C 
ATOM     19  H   UNL     1     148.466 167.251 194.170  0.00  0.00    +0.074 HD
BRANCH  18  20
ATOM     20  C   UNL     1     146.533 166.273 194.111  0.00  0.00    -0.009 C 
ATOM     21  H   UNL     1     146.266 167.170 194.686  0.00  0.00    +0.033 HD
BRANCH  20  22
ATOM     22  C   UNL     1     145.864 166.398 192.742  0.00  0.00    -0.059 C 
ATOM     23  H   UNL     1     144.776 166.325 192.841  0.00  0.00    +0.023 HD
ATOM     24  H   UNL     1     146.183 165.608 192.056  0.00  0.00    +0.023 HD
ATOM     25  H   UNL     1     146.090 167.365 192.281  0.00  0.00    +0.023 HD
ENDBRANCH  20  22
BRANCH  20  26
ATOM     26  C   UNL     1     145.950 165.084 194.880  0.00  0.00    -0.059 C 
ATOM     27  H   UNL     1     145.159 165.419 195.559  0.00  0.00    +0.023 HD
ATOM     28  H   UNL     1     145.514 164.339 194.208  0.00  0.00    +0.023 HD
ATOM     29  H   UNL     1     146.714 164.591 195.488  0.00  0.00    +0.023 HD
ENDBRANCH  20  26
ENDBRANCH  18  20
BRANCH  18  30
ATOM     30  O   UNL     1     148.588 165.346 195.032  0.00  0.00    -0.461 OA
BRANCH  30  31
ATOM     31  C   UNL     1     149.091 165.924 196.161  0.00  0.00    +0.307 C 
ATOM     32  O   UNL     1     148.435 166.518 197.005  0.00  0.00    -0.251 OA
BRANCH  31  33
ATOM     33  C   UNL     1     150.581 165.681 196.216  0.00  0.00    +0.046 C 
ATOM     34  H   UNL     1     150.907 165.826 197.252  0.00  0.00    +0.038 HD
ATOM     35  H   UNL     1     151.064 166.429 195.579  0.00  0.00    +0.038 HD
BRANCH  33  36
ATOM     36  C   UNL     1     150.952 164.277 195.745  0.00  0.00    -0.031 C 
ATOM     37  H   UNL     1     150.158 163.882 195.098  0.00  0.00    +0.028 HD
ATOM     38  H   UNL     1     151.859 164.326 195.125  0.00  0.00    +0.028 HD
BRANCH  36  39
ATOM     39  C   UNL     1     151.219 163.304 196.894  0.00  0.00    -0.006 C 
ATOM     40  H   UNL     1     152.261 163.413 197.214  0.00  0.00    +0.042 HD
ATOM     41  H   UNL     1     150.587 163.550 197.755  0.00  0.00    +0.042 HD
BRANCH  39  42
ATOM     42  N   UNL     1     150.995 161.915 196.508  0.00  0.00    -0.330 NA
ATOM     43  H   UNL     1     151.614 161.301 197.034  0.00  0.00    +0.118 HD
ATOM     44  H   UNL     1     151.258 161.798 195.529  0.00  0.00    +0.118 HD
ENDBRANCH  39  42
ENDBRANCH  36  39
ENDBRANCH  33  36
ENDBRANCH  31  33
ENDBRANCH  30  31
ENDBRANCH  18  30
ENDBRANCH  15  18
ENDBRANCH  13  15
BRANCH  13  45
ATOM     45  O   UNL     1     150.928 166.248 192.936  0.00  0.00    -0.379 OA
BRANCH  45  46
ATOM     46  C   UNL     1     151.956 165.549 192.246  0.00  0.00    +0.037 C 
ATOM     47  H   UNL     1     152.240 164.680 192.845  0.00  0.00    +0.052 HD
ATOM     48  H   UNL     1     152.836 166.185 192.112  0.00  0.00    +0.052 HD
ATOM     49  H   UNL     1     151.596 165.201 191.273  0.00  0.00    +0.052 HD
ENDBRANCH  45  46
ENDBRANCH  13  45
ENDBRANCH   7  13
ENDBRANCH   4   7
ENDBRANCH   1   4
BRANCH   1  50
ATOM     50  C   UNL     1     146.597 169.556 189.959  0.00  0.00    +0.108 C 
ATOM     51  H   UNL     1     145.519 169.398 190.101  0.00  0.00    +0.074 HD
BRANCH  50  52
ATOM     52  C   UNL     1     146.954 168.783 188.653  0.00  0.00    +0.020 C 
ATOM     53  H   UNL     1     148.026 168.556 188.725  0.00  0.00    +0.036 HD
BRANCH  52  54
ATOM     54  C   UNL     1     146.811 169.711 187.436  0.00  0.00    -0.057 C 
ATOM     55  H   UNL     1     145.757 169.905 187.217  0.00  0.00    +0.023 HD
ATOM     56  H   UNL     1     147.269 169.286 186.541  0.00  0.00    +0.023 HD
ATOM     57  H   UNL     1     147.285 170.678 187.631  0.00  0.00    +0.023 HD
ENDBRANCH  52  54
BRANCH  52  58
ATOM     58  C   UNL     1     146.245 167.420 188.370  0.00  0.00    +0.070 C 
ATOM     59  H   UNL     1     145.822 167.491 187.356  0.00  0.00    +0.061 HD
BRANCH  58  60
ATOM     60  C   UNL     1     147.156 166.150 188.378  0.00  0.00    +0.002 C 
ATOM     61  H   UNL     1     147.064 165.637 187.414  0.00  0.00    +0.037 HD
BRANCH  60  62
ATOM     62  C   UNL     1     146.754 165.161 189.481  0.00  0.00    -0.057 C 
ATOM     63  H   UNL     1     145.822 164.643 189.237  0.00  0.00    +0.024 HD
ATOM     64  H   UNL     1     147.516 164.386 189.612  0.00  0.00    +0.024 HD
ATOM     65  H   UNL     1     146.609 165.667 190.441  0.00  0.00    +0.024 HD
ENDBRANCH  60  62
BRANCH  60  66
ATOM     66  C   UNL     1     148.629 166.556 188.446  0.00  0.00    -0.065 C 
ATOM     67  C   UNL     1     149.652 166.032 187.756  0.00  0.00    -0.005 C 
ATOM     68  H   UNL     1     148.794 167.364 189.154  0.00  0.00    +0.059 HD
ATOM     69  H   UNL     1     149.461 165.225 187.052  0.00  0.00    +0.078 HD
BRANCH  67  70
ATOM     70  N   UNL     1     150.989 166.399 187.830  0.00  0.00    -0.284 N 
ATOM     71  C   UNL     1     151.568 167.128 188.861  0.00  0.00    +0.206 C 
ATOM     72  O   UNL     1     152.747 167.458 188.945  0.00  0.00    -0.279 OA
ATOM     73  H   UNL     1     150.868 167.413 189.657  0.00  0.00    +0.126 HD
BRANCH  70  74
ATOM     74  C   UNL     1     151.851 165.984 186.728  0.00  0.00    +0.007 C 
ATOM     75  H   UNL     1     152.018 164.904 186.795  0.00  0.00    +0.043 HD
ATOM     76  H   UNL     1     152.821 166.489 186.749  0.00  0.00    +0.043 HD
ATOM     77  H   UNL     1     151.352 166.221 185.783  0.00  0.00    +0.043 HD
ENDBRANCH  70  74
ENDBRANCH  67  70
ENDBRANCH  60  66
ENDBRANCH  58  60
BRANCH  58  78
ATOM     78  O   UNL     1     145.178 167.230 189.313  0.00  0.00    -0.379 OA
BRANCH  78  79
ATOM     79  C   UNL     1     143.887 167.362 188.732  0.00  0.00    +0.037 C 
ATOM     80  H   UNL     1     143.182 167.803 189.444  0.00  0.00    +0.052 HD
ATOM     81  H   UNL     1     143.513 166.393 188.388  0.00  0.00    +0.052 HD
ATOM     82  H   UNL     1     143.966 168.027 187.870  0.00  0.00    +0.052 HD
ENDBRANCH  78  79
ENDBRANCH  58  78
ENDBRANCH  52  58
ENDBRANCH  50  52
BRANCH  50  83
ATOM     83  O   UNL     1     146.805 170.972 189.748  0.00  0.00    -0.459 OA
BRANCH  83  85
ATOM     84  O   UNL     1     145.138 171.792 191.099  0.00  0.00    -0.248 OA
ATOM     85  C   UNL     1     146.299 171.804 190.711  0.00  0.00    +0.337 C 
BRANCH  85  86
ATOM     86  C   UNL     1     147.410 172.710 191.253  0.00  0.00    +0.155 C 
ATOM     87  O   UNL     1     148.690 172.448 190.652  0.00  0.00    -0.365 OA
ATOM     88  C   UNL     1     149.635 172.158 191.690  0.00  0.00    +0.049 C 
ATOM     89  C   UNL     1     149.071 172.780 192.945  0.00  0.00    -0.027 C 
ATOM     90  C   UNL     1     147.592 172.556 192.758  0.00  0.00    -0.014 C 
ATOM     91  H   UNL     1     147.154 173.744 190.990  0.00  0.00    +0.071 HD
ATOM     92  H   UNL     1     149.716 171.068 191.786  0.00  0.00    +0.056 HD
ATOM     93  H   UNL     1     150.614 172.563 191.420  0.00  0.00    +0.056 HD
ATOM     94  H   UNL     1     149.281 173.857 192.958  0.00  0.00    +0.029 HD
ATOM     95  H   UNL     1     149.470 172.336 193.862  0.00  0.00    +0.029 HD
ATOM     96  H   UNL     1     146.982 173.266 193.325  0.00  0.00    +0.030 HD
ATOM     97  H   UNL     1     147.322 171.543 193.087  0.00  0.00    +0.030 HD
ENDBRANCH  85  86
ENDBRANCH  83  85
ENDBRANCH  50  83
ENDBRANCH   1  50
TORSDOF 31
ENDMDL
MODEL 2
REMARK VINA RESULT:      -5.1      3.046      7.258
REMARK  Name = 2u_conf2
REMARK  31 active torsions:
REMARK  status: ('A' for Active; 'I' for Inactive)
REMARK    1  A    between atoms: C_2  and  C_3
REMARK    2  A    between atoms: C_2  and  O_8
REMARK    3  A    between atoms: O_8  and  C_9
REMARK    4  A    between atoms: C_9  and  C_10
REMARK    5  A    between atoms: C_9  and  C_29
REMARK    6  A    between atoms: C_10  and  C_11
REMARK    7  A    between atoms: C_11  and  C_12
REMARK    8  A    between atoms: C_12  and  C_13
REMARK    9  A    between atoms: C_12  and  C_14
REMARK   10  A    between atoms: C_14  and  O_15
REMARK   11  A    between atoms: C_14  and  C_17
REMARK   12  A    between atoms: O_15  and  C_16
REMARK   13  A    between atoms: C_17  and  C_18
REMARK   14  A    between atoms: C_18  and  O_19
REMARK   15  A    between atoms: C_18  and  C_26
REMARK   16  A    between atoms: O_19  and  C_20
REMARK   17  A    between atoms: C_20  and  C_21
REMARK   18  A    between atoms: C_21  and  C_22
REMARK   19  A    between atoms: C_22  and  C_23
REMARK   20  A    between atoms: C_23  and  N_24
REMARK   21  A    between atoms: C_26  and  C_27
REMARK   22  A    between atoms: C_26  and  C_28
REMARK   23  A    between atoms: C_29  and  C_30
REMARK   24  A    between atoms: C_29  and  C_31
REMARK   25  A    between atoms: C_31  and  O_32
REMARK   26  A    between atoms: C_31  and  C_34
REMARK   27  A    between atoms: O_32  and  C_33
REMARK   28  A    between atoms: C_34  and  C_35
REMARK   29  A    between atoms: C_34  and  C_36
REMARK   30  A    between atoms: C_37  and  N_38
REMARK   31  A    between atoms: N_38  and  C_39
REMARK                            x       y       z     vdW  Elec       q    Type
REMARK                         _______ _______ _______ _____ _____    ______ ____
ROOT
ATOM      1  C   UNL     1     150.598 167.313 192.918  0.00  0.00    -0.015 C 
ATOM      2  H   UNL     1     151.481 167.949 192.970  0.00  0.00    +0.030 HD
ATOM      3  H   UNL     1     150.217 167.256 193.943  0.00  0.00    +0.030 HD
ENDROOT
BRANCH   1   4
ATOM      4  C   UNL     1     151.028 165.910 192.459  0.00  0.00    -0.045 C 
ATOM      5  H   UNL     1     150.519 165.659 191.522  0.00  0.00    +0.027 HD
ATOM      6  H   UNL     1     150.677 165.168 193.187  0.00  0.00    +0.027 HD
BRANCH   4   7
ATOM      7  C   UNL     1     152.552 165.724 192.281  0.00  0.00    -0.017 C 
ATOM      8  H   UNL     1     152.860 164.929 192.977  0.00  0.00    +0.032 HD
BRANCH   7   9
ATOM      9  C   UNL     1     153.298 166.987 192.740  0.00  0.00    -0.060 C 
ATOM     10  H   UNL     1     152.915 167.341 193.703  0.00  0.00    +0.023 HD
ATOM     11  H   UNL     1     153.166 167.805 192.024  0.00  0.00    +0.023 HD
ATOM     12  H   UNL     1     154.372 166.805 192.853  0.00  0.00    +0.023 HD
ENDBRANCH   7   9
BRANCH   7  13
ATOM     13  C   UNL     1     152.994 165.295 190.854  0.00  0.00    +0.064 C 
ATOM     14  H   UNL     1     153.845 164.607 190.924  0.00  0.00    +0.060 HD
BRANCH  13  15
ATOM     15  C   UNL     1     153.374 166.508 189.981  0.00  0.00    +0.011 C 
ATOM     16  H   UNL     1     152.676 166.562 189.139  0.00  0.00    +0.033 HD
ATOM     17  H   UNL     1     153.266 167.420 190.575  0.00  0.00    +0.033 HD
BRANCH  15  18
ATOM     18  C   UNL     1     154.817 166.431 189.447  0.00  0.00    +0.108 C 
ATOM     19  H   UNL     1     155.207 167.448 189.319  0.00  0.00    +0.074 HD
BRANCH  18  20
ATOM     20  C   UNL     1     155.787 165.641 190.364  0.00  0.00    -0.009 C 
ATOM     21  H   UNL     1     155.187 165.200 191.171  0.00  0.00    +0.033 HD
BRANCH  20  22
ATOM     22  C   UNL     1     156.471 164.488 189.627  0.00  0.00    -0.059 C 
ATOM     23  H   UNL     1     156.679 163.665 190.317  0.00  0.00    +0.023 HD
ATOM     24  H   UNL     1     157.424 164.792 189.185  0.00  0.00    +0.023 HD
ATOM     25  H   UNL     1     155.831 164.097 188.830  0.00  0.00    +0.023 HD
ENDBRANCH  20  22
BRANCH  20  26
ATOM     26  C   UNL     1     156.832 166.528 191.046  0.00  0.00    -0.059 C 
ATOM     27  H   UNL     1     157.529 166.936 190.306  0.00  0.00    +0.023 HD
ATOM     28  H   UNL     1     156.373 167.373 191.567  0.00  0.00    +0.023 HD
ATOM     29  H   UNL     1     157.425 165.960 191.769  0.00  0.00    +0.023 HD
ENDBRANCH  20  26
ENDBRANCH  18  20
BRANCH  18  30
ATOM     30  O   UNL     1     154.751 165.762 188.163  0.00  0.00    -0.461 OA
BRANCH  30  31
ATOM     31  C   UNL     1     154.973 166.524 187.055  0.00  0.00    +0.307 C 
ATOM     32  O   UNL     1     154.465 167.614 186.831  0.00  0.00    -0.251 OA
BRANCH  31  33
ATOM     33  C   UNL     1     155.972 165.822 186.166  0.00  0.00    +0.046 C 
ATOM     34  H   UNL     1     155.731 166.070 185.127  0.00  0.00    +0.038 HD
ATOM     35  H   UNL     1     155.851 164.744 186.316  0.00  0.00    +0.038 HD
BRANCH  33  36
ATOM     36  C   UNL     1     157.409 166.232 186.481  0.00  0.00    -0.031 C 
ATOM     37  H   UNL     1     157.448 166.715 187.465  0.00  0.00    +0.028 HD
ATOM     38  H   UNL     1     158.039 165.335 186.552  0.00  0.00    +0.028 HD
BRANCH  36  39
ATOM     39  C   UNL     1     158.019 167.153 185.424  0.00  0.00    -0.006 C 
ATOM     40  H   UNL     1     158.991 166.748 185.120  0.00  0.00    +0.042 HD
ATOM     41  H   UNL     1     157.385 167.180 184.531  0.00  0.00    +0.042 HD
BRANCH  39  42
ATOM     42  N   UNL     1     158.217 168.511 185.920  0.00  0.00    -0.330 NA
ATOM     43  H   UNL     1     158.756 168.493 186.784  0.00  0.00    +0.118 HD
ATOM     44  H   UNL     1     157.310 168.907 186.170  0.00  0.00    +0.118 HD
ENDBRANCH  39  42
ENDBRANCH  36  39
ENDBRANCH  33  36
ENDBRANCH  31  33
ENDBRANCH  30  31
ENDBRANCH  18  30
ENDBRANCH  15  18
ENDBRANCH  13  15
BRANCH  13  45
ATOM     45  O   UNL     1     151.877 164.648 190.220  0.00  0.00    -0.379 OA
BRANCH  45  46
ATOM     46  C   UNL     1     152.265 163.652 189.282  0.00  0.00    +0.037 C 
ATOM     47  H   UNL     1     152.275 164.105 188.287  0.00  0.00    +0.052 HD
ATOM     48  H   UNL     1     151.553 162.821 189.281  0.00  0.00    +0.052 HD
ATOM     49  H   UNL     1     153.269 163.283 189.510  0.00  0.00    +0.052 HD
ENDBRANCH  45  46
ENDBRANCH  13  45
ENDBRANCH   7  13
ENDBRANCH   4   7
ENDBRANCH   1   4
BRANCH   1  50
ATOM     50  C   UNL     1     149.516 167.926 191.999  0.00  0.00    +0.108 C 
ATOM     51  H   UNL     1     148.796 168.482 192.616  0.00  0.00    +0.074 HD
BRANCH  50  52
ATOM     52  C   UNL     1     148.654 166.936 191.159  0.00  0.00    +0.020 C 
ATOM     53  H   UNL     1     148.927 165.932 191.510  0.00  0.00    +0.036 HD
BRANCH  52  54
ATOM     54  C   UNL     1     149.082 166.986 189.684  0.00  0.00    -0.057 C 
ATOM     55  H   UNL     1     148.524 167.757 189.143  0.00  0.00    +0.023 HD
ATOM     56  H   UNL     1     148.917 166.033 189.177  0.00  0.00    +0.023 HD
ATOM     57  H   UNL     1     150.143 167.235 189.598  0.00  0.00    +0.023 HD
ENDBRANCH  52  54
BRANCH  52  58
ATOM     58  C   UNL     1     147.097 167.019 191.266  0.00  0.00    +0.070 C 
ATOM     59  H   UNL     1     146.698 166.696 190.291  0.00  0.00    +0.061 HD
BRANCH  58  60
ATOM     60  C   UNL     1     146.426 166.105 192.341  0.00  0.00    +0.002 C 
ATOM     61  H   UNL     1     146.688 165.060 192.136  0.00  0.00    +0.037 HD
BRANCH  60  62
ATOM     62  C   UNL     1     144.896 166.221 192.320  0.00  0.00    -0.057 C 
ATOM     63  H   UNL     1     144.465 166.054 193.311  0.00  0.00    +0.024 HD
ATOM     64  H   UNL     1     144.581 167.223 192.008  0.00  0.00    +0.024 HD
ATOM     65  H   UNL     1     144.446 165.492 191.637  0.00  0.00    +0.024 HD
ENDBRANCH  60  62
BRANCH  60  66
ATOM     66  C   UNL     1     147.028 166.379 193.719  0.00  0.00    -0.065 C 
ATOM     67  C   UNL     1     147.821 165.571 194.438  0.00  0.00    -0.005 C 
ATOM     68  H   UNL     1     146.740 167.355 194.101  0.00  0.00    +0.059 HD
ATOM     69  H   UNL     1     148.098 164.599 194.034  0.00  0.00    +0.078 HD
BRANCH  67  70
ATOM     70  N   UNL     1     148.358 165.823 195.693  0.00  0.00    -0.284 N 
ATOM     71  C   UNL     1     149.712 165.845 196.001  0.00  0.00    +0.206 C 
ATOM     72  O   UNL     1     150.204 166.070 197.102  0.00  0.00    -0.279 OA
ATOM     73  H   UNL     1     150.369 165.640 195.146  0.00  0.00    +0.126 HD
BRANCH  70  74
ATOM     74  C   UNL     1     147.414 166.082 196.776  0.00  0.00    +0.007 C 
ATOM     75  H   UNL     1     146.813 165.182 196.946  0.00  0.00    +0.043 HD
ATOM     76  H   UNL     1     146.741 166.914 196.549  0.00  0.00    +0.043 HD
ATOM     77  H   UNL     1     147.978 166.323 197.684  0.00  0.00    +0.043 HD
ENDBRANCH  70  74
ENDBRANCH  67  70
ENDBRANCH  60  66
ENDBRANCH  58  60
BRANCH  58  78
ATOM     78  O   UNL     1     146.706 168.380 191.507  0.00  0.00    -0.379 OA
BRANCH  78  79
ATOM     79  C   UNL     1     146.280 169.057 190.330  0.00  0.00    +0.037 C 
ATOM     80  H   UNL     1     145.199 168.953 190.191  0.00  0.00    +0.052 HD
ATOM     81  H   UNL     1     146.808 168.680 189.450  0.00  0.00    +0.052 HD
ATOM     82  H   UNL     1     146.511 170.118 190.443  0.00  0.00    +0.052 HD
ENDBRANCH  78  79
ENDBRANCH  58  78
ENDBRANCH  52  58
ENDBRANCH  50  52
BRANCH  50  83
ATOM     83  O   UNL     1     150.153 168.876 191.113  0.00  0.00    -0.459 OA
BRANCH  83  85
ATOM     84  O   UNL     1     151.721 170.386 191.845  0.00  0.00    -0.248 OA
ATOM     85  C   UNL     1     150.554 170.055 191.683  0.00  0.00    +0.337 C 
BRANCH  85  86
ATOM     86  C   UNL     1     149.329 170.905 192.038  0.00  0.00    +0.155 C 
ATOM     87  O   UNL     1     148.771 171.587 190.901  0.00  0.00    -0.365 OA
ATOM     88  C   UNL     1     148.725 172.990 191.183  0.00  0.00    +0.049 C 
ATOM     89  C   UNL     1     148.739 173.108 192.688  0.00  0.00    -0.027 C 
ATOM     90  C   UNL     1     149.654 171.974 193.073  0.00  0.00    -0.014 C 
ATOM     91  H   UNL     1     148.548 170.226 192.402  0.00  0.00    +0.071 HD
ATOM     92  H   UNL     1     149.610 173.459 190.737  0.00  0.00    +0.056 HD
ATOM     93  H   UNL     1     147.829 173.428 190.732  0.00  0.00    +0.056 HD
ATOM     94  H   UNL     1     147.734 172.923 193.089  0.00  0.00    +0.029 HD
ATOM     95  H   UNL     1     149.080 174.087 193.040  0.00  0.00    +0.029 HD
ATOM     96  H   UNL     1     149.485 171.625 194.097  0.00  0.00    +0.030 HD
ATOM     97  H   UNL     1     150.702 172.295 192.996  0.00  0.00    +0.030 HD
ENDBRANCH  85  86
ENDBRANCH  83  85
ENDBRANCH  50  83
ENDBRANCH   1  50
TORSDOF 31
ENDMDL
MODEL 3
REMARK VINA RESULT:      -5.0      3.078      6.167
REMARK  Name = 2u_conf2
REMARK  31 active torsions:
REMARK  status: ('A' for Active; 'I' for Inactive)
REMARK    1  A    between atoms: C_2  and  C_3
REMARK    2  A    between atoms: C_2  and  O_8
REMARK    3  A    between atoms: O_8  and  C_9
REMARK    4  A    between atoms: C_9  and  C_10
REMARK    5  A    between atoms: C_9  and  C_29
REMARK    6  A    between atoms: C_10  and  C_11
REMARK    7  A    between atoms: C_11  and  C_12
REMARK    8  A    between atoms: C_12  and  C_13
REMARK    9  A    between atoms: C_12  and  C_14
REMARK   10  A    between atoms: C_14  and  O_15
REMARK   11  A    between atoms: C_14  and  C_17
REMARK   12  A    between atoms: O_15  and  C_16
REMARK   13  A    between atoms: C_17  and  C_18
REMARK   14  A    between atoms: C_18  and  O_19
REMARK   15  A    between atoms: C_18  and  C_26
REMARK   16  A    between atoms: O_19  and  C_20
REMARK   17  A    between atoms: C_20  and  C_21
REMARK   18  A    between atoms: C_21  and  C_22
REMARK   19  A    between atoms: C_22  and  C_23
REMARK   20  A    between atoms: C_23  and  N_24
REMARK   21  A    between atoms: C_26  and  C_27
REMARK   22  A    between atoms: C_26  and  C_28
REMARK   23  A    between atoms: C_29  and  C_30
REMARK   24  A    between atoms: C_29  and  C_31
REMARK   25  A    between atoms: C_31  and  O_32
REMARK   26  A    between atoms: C_31  and  C_34
REMARK   27  A    between atoms: O_32  and  C_33
REMARK   28  A    between atoms: C_34  and  C_35
REMARK   29  A    between atoms: C_34  and  C_36
REMARK   30  A    between atoms: C_37  and  N_38
REMARK   31  A    between atoms: N_38  and  C_39
REMARK                            x       y       z     vdW  Elec       q    Type
REMARK                         _______ _______ _______ _____ _____    ______ ____
ROOT
ATOM      1  C   UNL     1     149.398 168.031 192.824  0.00  0.00    -0.015 C 
ATOM      2  H   UNL     1     149.979 168.953 192.838  0.00  0.00    +0.030 HD
ATOM      3  H   UNL     1     149.143 167.829 193.869  0.00  0.00    +0.030 HD
ENDROOT
BRANCH   1   4
ATOM      4  C   UNL     1     150.288 166.896 192.291  0.00  0.00    -0.045 C 
ATOM      5  H   UNL     1     149.807 166.429 191.425  0.00  0.00    +0.027 HD
ATOM      6  H   UNL     1     150.357 166.106 193.048  0.00  0.00    +0.027 HD
BRANCH   4   7
ATOM      7  C   UNL     1     151.724 167.323 191.910  0.00  0.00    -0.017 C 
ATOM      8  H   UNL     1     152.355 167.142 192.794  0.00  0.00    +0.032 HD
BRANCH   7   9
ATOM      9  C   UNL     1     151.781 168.839 191.666  0.00  0.00    -0.060 C 
ATOM     10  H   UNL     1     151.074 169.368 192.315  0.00  0.00    +0.023 HD
ATOM     11  H   UNL     1     151.509 169.082 190.633  0.00  0.00    +0.023 HD
ATOM     12  H   UNL     1     152.780 169.244 191.859  0.00  0.00    +0.023 HD
ENDBRANCH   7   9
BRANCH   7  13
ATOM     13  C   UNL     1     152.345 166.536 190.723  0.00  0.00    +0.064 C 
ATOM     14  H   UNL     1     151.600 165.848 190.307  0.00  0.00    +0.060 HD
BRANCH  13  15
ATOM     15  C   UNL     1     153.602 165.750 191.149  0.00  0.00    +0.011 C 
ATOM     16  H   UNL     1     154.331 166.456 191.559  0.00  0.00    +0.033 HD
ATOM     17  H   UNL     1     153.327 165.043 191.938  0.00  0.00    +0.033 HD
BRANCH  15  18
ATOM     18  C   UNL     1     154.241 164.969 189.985  0.00  0.00    +0.108 C 
ATOM     19  H   UNL     1     153.875 165.376 189.036  0.00  0.00    +0.074 HD
BRANCH  18  20
ATOM     20  C   UNL     1     155.792 165.012 189.975  0.00  0.00    -0.009 C 
ATOM     21  H   UNL     1     156.145 164.195 190.618  0.00  0.00    +0.033 HD
BRANCH  20  22
ATOM     22  C   UNL     1     156.369 164.769 188.579  0.00  0.00    -0.059 C 
ATOM     23  H   UNL     1     155.569 164.774 187.831  0.00  0.00    +0.023 HD
ATOM     24  H   UNL     1     156.877 163.803 188.507  0.00  0.00    +0.023 HD
ATOM     25  H   UNL     1     157.081 165.554 188.306  0.00  0.00    +0.023 HD
ENDBRANCH  20  22
BRANCH  20  26
ATOM     26  C   UNL     1     156.367 166.301 190.568  0.00  0.00    -0.059 C 
ATOM     27  H   UNL     1     155.845 167.174 190.162  0.00  0.00    +0.023 HD
ATOM     28  H   UNL     1     156.261 166.332 191.657  0.00  0.00    +0.023 HD
ATOM     29  H   UNL     1     157.427 166.414 190.324  0.00  0.00    +0.023 HD
ENDBRANCH  20  26
ENDBRANCH  18  20
BRANCH  18  30
ATOM     30  O   UNL     1     153.822 163.590 190.128  0.00  0.00    -0.461 OA
BRANCH  30  31
ATOM     31  C   UNL     1     152.975 163.099 189.178  0.00  0.00    +0.307 C 
ATOM     32  O   UNL     1     152.059 163.719 188.657  0.00  0.00    -0.251 OA
BRANCH  31  33
ATOM     33  C   UNL     1     153.373 161.679 188.852  0.00  0.00    +0.046 C 
ATOM     34  H   UNL     1     153.166 161.507 187.790  0.00  0.00    +0.038 HD
ATOM     35  H   UNL     1     152.747 161.011 189.452  0.00  0.00    +0.038 HD
BRANCH  33  36
ATOM     36  C   UNL     1     154.848 161.414 189.144  0.00  0.00    -0.031 C 
ATOM     37  H   UNL     1     155.463 161.803 188.324  0.00  0.00    +0.028 HD
ATOM     38  H   UNL     1     155.148 161.969 190.044  0.00  0.00    +0.028 HD
BRANCH  36  39
ATOM     39  C   UNL     1     155.162 159.935 189.376  0.00  0.00    -0.006 C 
ATOM     40  H   UNL     1     155.395 159.468 188.413  0.00  0.00    +0.042 HD
ATOM     41  H   UNL     1     156.050 159.830 190.011  0.00  0.00    +0.042 HD
BRANCH  39  42
ATOM     42  N   UNL     1     154.044 159.220 189.982  0.00  0.00    -0.330 NA
ATOM     43  H   UNL     1     154.231 159.050 190.969  0.00  0.00    +0.118 HD
ATOM     44  H   UNL     1     153.972 158.296 189.554  0.00  0.00    +0.118 HD
ENDBRANCH  39  42
ENDBRANCH  36  39
ENDBRANCH  33  36
ENDBRANCH  31  33
ENDBRANCH  30  31
ENDBRANCH  18  30
ENDBRANCH  15  18
ENDBRANCH  13  15
BRANCH  13  45
ATOM     45  O   UNL     1     152.758 167.490 189.728  0.00  0.00    -0.379 OA
BRANCH  45  46
ATOM     46  C   UNL     1     152.212 167.227 188.441  0.00  0.00    +0.037 C 
ATOM     47  H   UNL     1     153.028 167.248 187.713  0.00  0.00    +0.052 HD
ATOM     48  H   UNL     1     151.479 167.992 188.167  0.00  0.00    +0.052 HD
ATOM     49  H   UNL     1     151.747 166.238 188.418  0.00  0.00    +0.052 HD
ENDBRANCH  45  46
ENDBRANCH  13  45
ENDBRANCH   7  13
ENDBRANCH   4   7
ENDBRANCH   1   4
BRANCH   1  50
ATOM     50  C   UNL     1     148.100 168.197 192.000  0.00  0.00    +0.108 C 
ATOM     51  H   UNL     1     147.325 168.642 192.639  0.00  0.00    +0.074 HD
BRANCH  50  52
ATOM     52  C   UNL     1     147.456 166.901 191.421  0.00  0.00    +0.020 C 
ATOM     53  H   UNL     1     148.033 166.067 191.844  0.00  0.00    +0.036 HD
BRANCH  52  54
ATOM     54  C   UNL     1     147.686 166.831 189.903  0.00  0.00    -0.057 C 
ATOM     55  H   UNL     1     148.680 167.208 189.642  0.00  0.00    +0.023 HD
ATOM     56  H   UNL     1     146.949 167.415 189.349  0.00  0.00    +0.023 HD
ATOM     57  H   UNL     1     147.630 165.796 189.551  0.00  0.00    +0.023 HD
ENDBRANCH  52  54
BRANCH  52  58
ATOM     58  C   UNL     1     145.959 166.595 191.748  0.00  0.00    +0.070 C 
ATOM     59  H   UNL     1     145.575 165.983 190.917  0.00  0.00    +0.061 HD
BRANCH  58  60
ATOM     60  C   UNL     1     145.687 165.783 193.055  0.00  0.00    +0.002 C 
ATOM     61  H   UNL     1     145.939 164.730 192.881  0.00  0.00    +0.037 HD
BRANCH  60  62
ATOM     62  C   UNL     1     144.214 165.853 193.479  0.00  0.00    -0.057 C 
ATOM     63  H   UNL     1     143.575 166.196 192.660  0.00  0.00    +0.024 HD
ATOM     64  H   UNL     1     143.841 164.867 193.774  0.00  0.00    +0.024 HD
ATOM     65  H   UNL     1     144.070 166.540 194.320  0.00  0.00    +0.024 HD
ENDBRANCH  60  62
BRANCH  60  66
ATOM     66  C   UNL     1     146.649 166.220 194.160  0.00  0.00    -0.065 C 
ATOM     67  C   UNL     1     147.513 165.453 194.840  0.00  0.00    -0.005 C 
ATOM     68  H   UNL     1     146.572 167.285 194.367  0.00  0.00    +0.059 HD
ATOM     69  H   UNL     1     147.574 164.390 194.613  0.00  0.00    +0.078 HD
BRANCH  67  70
ATOM     70  N   UNL     1     148.378 165.855 195.849  0.00  0.00    -0.284 N 
ATOM     71  C   UNL     1     149.748 165.625 195.875  0.00  0.00    +0.206 C 
ATOM     72  O   UNL     1     150.527 165.976 196.755  0.00  0.00    -0.279 OA
ATOM     73  H   UNL     1     150.126 165.076 195.003  0.00  0.00    +0.126 HD
BRANCH  70  74
ATOM     74  C   UNL     1     147.792 166.576 196.974  0.00  0.00    +0.007 C 
ATOM     75  H   UNL     1     148.598 166.990 197.589  0.00  0.00    +0.043 HD
ATOM     76  H   UNL     1     147.170 165.930 197.601  0.00  0.00    +0.043 HD
ATOM     77  H   UNL     1     147.172 167.391 196.585  0.00  0.00    +0.043 HD
ENDBRANCH  70  74
ENDBRANCH  67  70
ENDBRANCH  60  66
ENDBRANCH  58  60
BRANCH  58  78
ATOM     78  O   UNL     1     145.222 167.827 191.806  0.00  0.00    -0.379 OA
BRANCH  78  79
ATOM     79  C   UNL     1     144.352 168.011 190.696  0.00  0.00    +0.037 C 
ATOM     80  H   UNL     1     143.327 168.204 191.030  0.00  0.00    +0.052 HD
ATOM     81  H   UNL     1     144.372 167.140 190.035  0.00  0.00    +0.052 HD
ATOM     82  H   UNL     1     144.698 168.880 190.132  0.00  0.00    +0.052 HD
ENDBRANCH  78  79
ENDBRANCH  58  78
ENDBRANCH  52  58
ENDBRANCH  50  52
BRANCH  50  83
ATOM     83  O   UNL     1     148.359 169.125 190.921  0.00  0.00    -0.459 OA
BRANCH  83  85
ATOM     84  O   UNL     1     146.571 170.567 190.943  0.00  0.00    -0.248 OA
ATOM     85  C   UNL     1     147.773 170.358 191.034  0.00  0.00    +0.337 C 
BRANCH  85  86
ATOM     86  C   UNL     1     148.841 171.416 191.335  0.00  0.00    +0.155 C 
ATOM     87  O   UNL     1     149.329 171.350 192.687  0.00  0.00    -0.365 OA
ATOM     88  C   UNL     1     149.151 172.630 193.303  0.00  0.00    +0.049 C 
ATOM     89  C   UNL     1     149.065 173.624 192.169  0.00  0.00    -0.027 C 
ATOM     90  C   UNL     1     148.320 172.832 191.126  0.00  0.00    -0.014 C 
ATOM     91  H   UNL     1     149.703 171.211 190.688  0.00  0.00    +0.071 HD
ATOM     92  H   UNL     1     148.221 172.605 193.884  0.00  0.00    +0.056 HD
ATOM     93  H   UNL     1     149.985 172.833 193.981  0.00  0.00    +0.056 HD
ATOM     94  H   UNL     1     150.071 173.863 191.802  0.00  0.00    +0.029 HD
ATOM     95  H   UNL     1     148.567 174.557 192.451  0.00  0.00    +0.029 HD
ATOM     96  H   UNL     1     148.503 173.195 190.110  0.00  0.00    +0.030 HD
ATOM     97  H   UNL     1     147.239 172.888 191.313  0.00  0.00    +0.030 HD
ENDBRANCH  85  86
ENDBRANCH  83  85
ENDBRANCH  50  83
ENDBRANCH   1  50
TORSDOF 31
ENDMDL
MODEL 4
REMARK VINA RESULT:      -5.0      2.915      6.456
REMARK  Name = 2u_conf2
REMARK  31 active torsions:
REMARK  status: ('A' for Active; 'I' for Inactive)
REMARK    1  A    between atoms: C_2  and  C_3
REMARK    2  A    between atoms: C_2  and  O_8
REMARK    3  A    between atoms: O_8  and  C_9
REMARK    4  A    between atoms: C_9  and  C_10
REMARK    5  A    between atoms: C_9  and  C_29
REMARK    6  A    between atoms: C_10  and  C_11
REMARK    7  A    between atoms: C_11  and  C_12
REMARK    8  A    between atoms: C_12  and  C_13
REMARK    9  A    between atoms: C_12  and  C_14
REMARK   10  A    between atoms: C_14  and  O_15
REMARK   11  A    between atoms: C_14  and  C_17
REMARK   12  A    between atoms: O_15  and  C_16
REMARK   13  A    between atoms: C_17  and  C_18
REMARK   14  A    between atoms: C_18  and  O_19
REMARK   15  A    between atoms: C_18  and  C_26
REMARK   16  A    between atoms: O_19  and  C_20
REMARK   17  A    between atoms: C_20  and  C_21
REMARK   18  A    between atoms: C_21  and  C_22
REMARK   19  A    between atoms: C_22  and  C_23
REMARK   20  A    between atoms: C_23  and  N_24
REMARK   21  A    between atoms: C_26  and  C_27
REMARK   22  A    between atoms: C_26  and  C_28
REMARK   23  A    between atoms: C_29  and  C_30
REMARK   24  A    between atoms: C_29  and  C_31
REMARK   25  A    between atoms: C_31  and  O_32
REMARK   26  A    between atoms: C_31  and  C_34
REMARK   27  A    between atoms: O_32  and  C_33
REMARK   28  A    between atoms: C_34  and  C_35
REMARK   29  A    between atoms: C_34  and  C_36
REMARK   30  A    between atoms: C_37  and  N_38
REMARK   31  A    between atoms: N_38  and  C_39
REMARK                            x       y       z     vdW  Elec       q    Type
REMARK                         _______ _______ _______ _____ _____    ______ ____
ROOT
ATOM      1  C   UNL     1     147.461 165.655 192.900  0.00  0.00    -0.015 C 
ATOM      2  H   UNL     1     147.105 164.692 193.265  0.00  0.00    +0.030 HD
ATOM      3  H   UNL     1     148.374 165.436 192.338  0.00  0.00    +0.030 HD
ENDROOT
BRANCH   1   4
ATOM      4  C   UNL     1     147.809 166.540 194.108  0.00  0.00    -0.045 C 
ATOM      5  H   UNL     1     146.907 167.053 194.459  0.00  0.00    +0.027 HD
ATOM      6  H   UNL     1     148.491 167.337 193.788  0.00  0.00    +0.027 HD
BRANCH   4   7
ATOM      7  C   UNL     1     148.466 165.794 195.292  0.00  0.00    -0.017 C 
ATOM      8  H   UNL     1     148.303 164.719 195.120  0.00  0.00    +0.032 HD
BRANCH   7   9
ATOM      9  C   UNL     1     147.728 166.119 196.600  0.00  0.00    -0.060 C 
ATOM     10  H   UNL     1     146.888 166.799 196.419  0.00  0.00    +0.023 HD
ATOM     11  H   UNL     1     148.393 166.617 197.314  0.00  0.00    +0.023 HD
ATOM     12  H   UNL     1     147.331 165.217 197.077  0.00  0.00    +0.023 HD
ENDBRANCH   7   9
BRANCH   7  13
ATOM     13  C   UNL     1     149.996 166.018 195.437  0.00  0.00    +0.064 C 
ATOM     14  H   UNL     1     150.212 167.093 195.447  0.00  0.00    +0.060 HD
BRANCH  13  15
ATOM     15  C   UNL     1     150.787 165.338 194.300  0.00  0.00    +0.011 C 
ATOM     16  H   UNL     1     151.529 164.668 194.746  0.00  0.00    +0.033 HD
ATOM     17  H   UNL     1     150.098 164.737 193.700  0.00  0.00    +0.033 HD
BRANCH  15  18
ATOM     18  C   UNL     1     151.497 166.347 193.379  0.00  0.00    +0.108 C 
ATOM     19  H   UNL     1     151.369 167.357 193.786  0.00  0.00    +0.074 HD
BRANCH  18  20
ATOM     20  C   UNL     1     153.014 166.077 193.197  0.00  0.00    -0.009 C 
ATOM     21  H   UNL     1     153.292 165.287 193.908  0.00  0.00    +0.033 HD
BRANCH  20  22
ATOM     22  C   UNL     1     153.346 165.560 191.796  0.00  0.00    -0.059 C 
ATOM     23  H   UNL     1     152.775 164.651 191.580  0.00  0.00    +0.023 HD
ATOM     24  H   UNL     1     154.406 165.312 191.691  0.00  0.00    +0.023 HD
ATOM     25  H   UNL     1     153.089 166.301 191.033  0.00  0.00    +0.023 HD
ENDBRANCH  20  22
BRANCH  20  26
ATOM     26  C   UNL     1     153.890 167.285 193.537  0.00  0.00    -0.059 C 
ATOM     27  H   UNL     1     153.342 168.217 193.357  0.00  0.00    +0.023 HD
ATOM     28  H   UNL     1     154.199 167.283 194.587  0.00  0.00    +0.023 HD
ATOM     29  H   UNL     1     154.789 167.313 192.916  0.00  0.00    +0.023 HD
ENDBRANCH  20  26
ENDBRANCH  18  20
BRANCH  18  30
ATOM     30  O   UNL     1     150.856 166.252 192.083  0.00  0.00    -0.461 OA
BRANCH  30  31
ATOM     31  C   UNL     1     150.556 167.423 191.453  0.00  0.00    +0.307 C 
ATOM     32  O   UNL     1     150.396 167.559 190.248  0.00  0.00    -0.251 OA
BRANCH  31  33
ATOM     33  C   UNL     1     150.420 168.517 192.486  0.00  0.00    +0.046 C 
ATOM     34  H   UNL     1     150.917 168.178 193.401  0.00  0.00    +0.038 HD
ATOM     35  H   UNL     1     149.353 168.655 192.686  0.00  0.00    +0.038 HD
BRANCH  33  36
ATOM     36  C   UNL     1     151.037 169.832 192.014  0.00  0.00    -0.031 C 
ATOM     37  H   UNL     1     151.963 170.026 192.569  0.00  0.00    +0.028 HD
ATOM     38  H   UNL     1     151.324 169.744 190.957  0.00  0.00    +0.028 HD
BRANCH  36  39
ATOM     39  C   UNL     1     150.090 171.025 192.147  0.00  0.00    -0.006 C 
ATOM     40  H   UNL     1     149.473 170.889 193.042  0.00  0.00    +0.042 HD
ATOM     41  H   UNL     1     150.662 171.950 192.285  0.00  0.00    +0.042 HD
BRANCH  39  42
ATOM     42  N   UNL     1     149.210 171.166 190.992  0.00  0.00    -0.330 NA
ATOM     43  H   UNL     1     148.309 171.543 191.282  0.00  0.00    +0.118 HD
ATOM     44  H   UNL     1     149.011 170.239 190.614  0.00  0.00    +0.118 HD
ENDBRANCH  39  42
ENDBRANCH  36  39
ENDBRANCH  33  36
ENDBRANCH  31  33
ENDBRANCH  30  31
ENDBRANCH  18  30
ENDBRANCH  15  18
ENDBRANCH  13  15
BRANCH  13  45
ATOM     45  O   UNL     1     150.418 165.411 196.670  0.00  0.00    -0.379 OA
BRANCH  45  46
ATOM     46  C   UNL     1     150.871 164.072 196.509  0.00  0.00    +0.037 C 
ATOM     47  H   UNL     1     150.002 163.437 196.320  0.00  0.00    +0.052 HD
ATOM     48  H   UNL     1     151.372 163.720 197.416  0.00  0.00    +0.052 HD
ATOM     49  H   UNL     1     151.551 164.000 195.655  0.00  0.00    +0.052 HD
ENDBRANCH  45  46
ENDBRANCH  13  45
ENDBRANCH   7  13
ENDBRANCH   4   7
ENDBRANCH   1   4
BRANCH   1  50
ATOM     50  C   UNL     1     146.426 166.320 191.963  0.00  0.00    +0.108 C 
ATOM     51  H   UNL     1     145.909 167.120 192.511  0.00  0.00    +0.074 HD
BRANCH  50  52
ATOM     52  C   UNL     1     145.290 165.412 191.401  0.00  0.00    +0.020 C 
ATOM     53  H   UNL     1     145.282 164.517 192.039  0.00  0.00    +0.036 HD
BRANCH  52  54
ATOM     54  C   UNL     1     145.662 164.912 189.996  0.00  0.00    -0.057 C 
ATOM     55  H   UNL     1     145.771 163.823 189.987  0.00  0.00    +0.023 HD
ATOM     56  H   UNL     1     146.598 165.347 189.640  0.00  0.00    +0.023 HD
ATOM     57  H   UNL     1     144.877 165.164 189.277  0.00  0.00    +0.023 HD
ENDBRANCH  52  54
BRANCH  52  58
ATOM     58  C   UNL     1     143.825 165.953 191.404  0.00  0.00    +0.070 C 
ATOM     59  H   UNL     1     143.207 165.185 191.895  0.00  0.00    +0.061 HD
BRANCH  58  60
ATOM     60  C   UNL     1     143.578 167.282 192.190  0.00  0.00    +0.002 C 
ATOM     61  H   UNL     1     144.540 167.781 192.360  0.00  0.00    +0.037 HD
BRANCH  60  62
ATOM     62  C   UNL     1     142.927 167.030 193.556  0.00  0.00    -0.057 C 
ATOM     63  H   UNL     1     142.190 167.800 193.799  0.00  0.00    +0.024 HD
ATOM     64  H   UNL     1     142.395 166.073 193.568  0.00  0.00    +0.024 HD
ATOM     65  H   UNL     1     143.671 167.019 194.360  0.00  0.00    +0.024 HD
ENDBRANCH  60  62
BRANCH  60  66
ATOM     66  C   UNL     1     142.793 168.269 191.325  0.00  0.00    -0.065 C 
ATOM     67  C   UNL     1     142.520 169.554 191.597  0.00  0.00    -0.005 C 
ATOM     68  H   UNL     1     142.445 167.812 190.402  0.00  0.00    +0.059 HD
ATOM     69  H   UNL     1     142.880 169.989 192.527  0.00  0.00    +0.078 HD
BRANCH  67  70
ATOM     70  N   UNL     1     141.798 170.442 190.812  0.00  0.00    -0.284 N 
ATOM     71  C   UNL     1     140.418 170.603 190.838  0.00  0.00    +0.206 C 
ATOM     72  O   UNL     1     139.765 171.385 190.156  0.00  0.00    -0.279 OA
ATOM     73  H   UNL     1     139.905 169.950 191.556  0.00  0.00    +0.126 HD
BRANCH  70  74
ATOM     74  C   UNL     1     142.557 171.271 189.881  0.00  0.00    +0.007 C 
ATOM     75  H   UNL     1     143.584 171.371 190.251  0.00  0.00    +0.043 HD
ATOM     76  H   UNL     1     142.127 172.270 189.772  0.00  0.00    +0.043 HD
ATOM     77  H   UNL     1     142.566 170.782 188.901  0.00  0.00    +0.043 HD
ENDBRANCH  70  74
ENDBRANCH  67  70
ENDBRANCH  60  66
ENDBRANCH  58  60
BRANCH  58  78
ATOM     78  O   UNL     1     143.376 166.126 190.051  0.00  0.00    -0.379 OA
BRANCH  78  79
ATOM     79  C   UNL     1     142.283 165.280 189.711  0.00  0.00    +0.037 C 
ATOM     80  H   UNL     1     142.496 164.715 188.798  0.00  0.00    +0.052 HD
ATOM     81  H   UNL     1     141.365 165.861 189.586  0.00  0.00    +0.052 HD
ATOM     82  H   UNL     1     142.134 164.570 190.527  0.00  0.00    +0.052 HD
ENDBRANCH  78  79
ENDBRANCH  58  78
ENDBRANCH  52  58
ENDBRANCH  50  52
BRANCH  50  83
ATOM     83  O   UNL     1     147.134 166.935 190.862  0.00  0.00    -0.459 OA
BRANCH  83  85
ATOM     84  O   UNL     1     147.085 169.071 191.705  0.00  0.00    -0.248 OA
ATOM     85  C   UNL     1     147.023 168.297 190.760  0.00  0.00    +0.337 C 
BRANCH  85  86
ATOM     86  C   UNL     1     146.859 168.696 189.290  0.00  0.00    +0.155 C 
ATOM     87  O   UNL     1     147.180 170.077 189.045  0.00  0.00    -0.365 OA
ATOM     88  C   UNL     1     146.054 170.708 188.424  0.00  0.00    +0.049 C 
ATOM     89  C   UNL     1     145.255 169.594 187.791  0.00  0.00    -0.027 C 
ATOM     90  C   UNL     1     145.434 168.483 188.794  0.00  0.00    -0.014 C 
ATOM     91  H   UNL     1     147.574 168.107 188.703  0.00  0.00    +0.071 HD
ATOM     92  H   UNL     1     145.476 171.222 189.202  0.00  0.00    +0.056 HD
ATOM     93  H   UNL     1     146.400 171.447 187.696  0.00  0.00    +0.056 HD
ATOM     94  H   UNL     1     145.708 169.303 186.835  0.00  0.00    +0.029 HD
ATOM     95  H   UNL     1     144.208 169.861 187.614  0.00  0.00    +0.029 HD
ATOM     96  H   UNL     1     145.292 167.491 188.354  0.00  0.00    +0.030 HD
ATOM     97  H   UNL     1     144.710 168.595 189.612  0.00  0.00    +0.030 HD
ENDBRANCH  85  86
ENDBRANCH  83  85
ENDBRANCH  50  83
ENDBRANCH   1  50
TORSDOF 31
ENDMDL
MODEL 5
REMARK VINA RESULT:      -5.0      2.787      6.513
REMARK  Name = 2u_conf2
REMARK  31 active torsions:
REMARK  status: ('A' for Active; 'I' for Inactive)
REMARK    1  A    between atoms: C_2  and  C_3
REMARK    2  A    between atoms: C_2  and  O_8
REMARK    3  A    between atoms: O_8  and  C_9
REMARK    4  A    between atoms: C_9  and  C_10
REMARK    5  A    between atoms: C_9  and  C_29
REMARK    6  A    between atoms: C_10  and  C_11
REMARK    7  A    between atoms: C_11  and  C_12
REMARK    8  A    between atoms: C_12  and  C_13
REMARK    9  A    between atoms: C_12  and  C_14
REMARK   10  A    between atoms: C_14  and  O_15
REMARK   11  A    between atoms: C_14  and  C_17
REMARK   12  A    between atoms: O_15  and  C_16
REMARK   13  A    between atoms: C_17  and  C_18
REMARK   14  A    between atoms: C_18  and  O_19
REMARK   15  A    between atoms: C_18  and  C_26
REMARK   16  A    between atoms: O_19  and  C_20
REMARK   17  A    between atoms: C_20  and  C_21
REMARK   18  A    between atoms: C_21  and  C_22
REMARK   19  A    between atoms: C_22  and  C_23
REMARK   20  A    between atoms: C_23  and  N_24
REMARK   21  A    between atoms: C_26  and  C_27
REMARK   22  A    between atoms: C_26  and  C_28
REMARK   23  A    between atoms: C_29  and  C_30
REMARK   24  A    between atoms: C_29  and  C_31
REMARK   25  A    between atoms: C_31  and  O_32
REMARK   26  A    between atoms: C_31  and  C_34
REMARK   27  A    between atoms: O_32  and  C_33
REMARK   28  A    between atoms: C_34  and  C_35
REMARK   29  A    between atoms: C_34  and  C_36
REMARK   30  A    between atoms: C_37  and  N_38
REMARK   31  A    between atoms: N_38  and  C_39
REMARK                            x       y       z     vdW  Elec       q    Type
REMARK                         _______ _______ _______ _____ _____    ______ ____
ROOT
ATOM      1  C   UNL     1     152.367 165.213 191.294  0.00  0.00    -0.015 C 
ATOM      2  H   UNL     1     152.199 164.284 191.838  0.00  0.00    +0.030 HD
ATOM      3  H   UNL     1     153.074 165.786 191.904  0.00  0.00    +0.030 HD
ENDROOT
BRANCH   1   4
ATOM      4  C   UNL     1     151.038 165.981 191.206  0.00  0.00    -0.045 C 
ATOM      5  H   UNL     1     150.207 165.300 191.421  0.00  0.00    +0.027 HD
ATOM      6  H   UNL     1     150.881 166.314 190.173  0.00  0.00    +0.027 HD
BRANCH   4   7
ATOM      7  C   UNL     1     150.939 167.216 192.130  0.00  0.00    -0.017 C 
ATOM      8  H   UNL     1     151.111 168.101 191.498  0.00  0.00    +0.032 HD
BRANCH   7   9
ATOM      9  C   UNL     1     152.087 167.209 193.151  0.00  0.00    -0.060 C 
ATOM     10  H   UNL     1     153.026 166.890 192.685  0.00  0.00    +0.023 HD
ATOM     11  H   UNL     1     151.884 166.508 193.968  0.00  0.00    +0.023 HD
ATOM     12  H   UNL     1     152.249 168.200 193.586  0.00  0.00    +0.023 HD
ENDBRANCH   7   9
BRANCH   7  13
ATOM     13  C   UNL     1     149.563 167.399 192.829  0.00  0.00    +0.064 C 
ATOM     14  H   UNL     1     149.710 167.846 193.819  0.00  0.00    +0.060 HD
BRANCH  13  15
ATOM     15  C   UNL     1     148.806 166.063 192.967  0.00  0.00    +0.011 C 
ATOM     16  H   UNL     1     148.277 165.865 192.029  0.00  0.00    +0.033 HD
ATOM     17  H   UNL     1     149.531 165.259 193.128  0.00  0.00    +0.033 HD
BRANCH  15  18
ATOM     18  C   UNL     1     147.799 166.064 194.132  0.00  0.00    +0.108 C 
ATOM     19  H   UNL     1     147.633 167.096 194.462  0.00  0.00    +0.074 HD
BRANCH  18  20
ATOM     20  C   UNL     1     146.427 165.430 193.781  0.00  0.00    -0.009 C 
ATOM     21  H   UNL     1     146.627 164.538 193.173  0.00  0.00    +0.033 HD
BRANCH  20  22
ATOM     22  C   UNL     1     145.668 164.967 195.026  0.00  0.00    -0.059 C 
ATOM     23  H   UNL     1     144.866 164.276 194.748  0.00  0.00    +0.023 HD
ATOM     24  H   UNL     1     145.207 165.804 195.559  0.00  0.00    +0.023 HD
ATOM     25  H   UNL     1     146.332 164.442 195.719  0.00  0.00    +0.023 HD
ENDBRANCH  20  22
BRANCH  20  26
ATOM     26  C   UNL     1     145.541 166.340 192.927  0.00  0.00    -0.059 C 
ATOM     27  H   UNL     1     144.482 166.144 193.132  0.00  0.00    +0.023 HD
ATOM     28  H   UNL     1     145.725 167.399 193.133  0.00  0.00    +0.023 HD
ATOM     29  H   UNL     1     145.703 166.165 191.860  0.00  0.00    +0.023 HD
ENDBRANCH  20  26
ENDBRANCH  18  20
BRANCH  18  30
ATOM     30  O   UNL     1     148.400 165.293 195.203  0.00  0.00    -0.461 OA
BRANCH  30  31
ATOM     31  C   UNL     1     148.881 165.989 196.272  0.00  0.00    +0.307 C 
ATOM     32  O   UNL     1     148.203 166.612 197.076  0.00  0.00    -0.251 OA
BRANCH  31  33
ATOM     33  C   UNL     1     150.384 165.838 196.321  0.00  0.00    +0.046 C 
ATOM     34  H   UNL     1     150.695 165.913 197.368  0.00  0.00    +0.038 HD
ATOM     35  H   UNL     1     150.820 166.667 195.756  0.00  0.00    +0.038 HD
BRANCH  33  36
ATOM     36  C   UNL     1     150.846 164.507 195.733  0.00  0.00    -0.031 C 
ATOM     37  H   UNL     1     150.079 164.115 195.054  0.00  0.00    +0.028 HD
ATOM     38  H   UNL     1     151.745 164.669 195.121  0.00  0.00    +0.028 HD
BRANCH  36  39
ATOM     39  C   UNL     1     151.184 163.461 196.797  0.00  0.00    -0.006 C 
ATOM     40  H   UNL     1     152.220 163.606 197.118  0.00  0.00    +0.042 HD
ATOM     41  H   UNL     1     150.547 163.597 197.679  0.00  0.00    +0.042 HD
BRANCH  39  42
ATOM     42  N   UNL     1     151.038 162.097 196.299  0.00  0.00    -0.330 NA
ATOM     43  H   UNL     1     151.222 161.430 197.046  0.00  0.00    +0.118 HD
ATOM     44  H   UNL     1     151.755 161.924 195.594  0.00  0.00    +0.118 HD
ENDBRANCH  39  42
ENDBRANCH  36  39
ENDBRANCH  33  36
ENDBRANCH  31  33
ENDBRANCH  30  31
ENDBRANCH  18  30
ENDBRANCH  15  18
ENDBRANCH  13  15
BRANCH  13  45
ATOM     45  O   UNL     1     148.759 168.260 192.004  0.00  0.00    -0.379 OA
BRANCH  45  46
ATOM     46  C   UNL     1     149.362 169.526 191.761  0.00  0.00    +0.037 C 
ATOM     47  H   UNL     1     148.745 170.065 191.037  0.00  0.00    +0.052 HD
ATOM     48  H   UNL     1     150.366 169.404 191.343  0.00  0.00    +0.052 HD
ATOM     49  H   UNL     1     149.410 170.110 192.684  0.00  0.00    +0.052 HD
ENDBRANCH  45  46
ENDBRANCH  13  45
ENDBRANCH   7  13
ENDBRANCH   4   7
ENDBRANCH   1   4
BRANCH   1  50
ATOM     50  C   UNL     1     152.986 164.947 189.902  0.00  0.00    +0.108 C 
ATOM     51  H   UNL     1     152.685 165.751 189.217  0.00  0.00    +0.074 HD
BRANCH  50  52
ATOM     52  C   UNL     1     152.577 163.625 189.185  0.00  0.00    +0.020 C 
ATOM     53  H   UNL     1     151.762 163.200 189.787  0.00  0.00    +0.036 HD
BRANCH  52  54
ATOM     54  C   UNL     1     153.723 162.604 189.268  0.00  0.00    -0.057 C 
ATOM     55  H   UNL     1     154.662 163.044 188.916  0.00  0.00    +0.023 HD
ATOM     56  H   UNL     1     153.524 161.714 188.669  0.00  0.00    +0.023 HD
ATOM     57  H   UNL     1     153.883 162.286 190.302  0.00  0.00    +0.023 HD
ENDBRANCH  52  54
BRANCH  52  58
ATOM     58  C   UNL     1     152.036 163.701 187.722  0.00  0.00    +0.070 C 
ATOM     59  H   UNL     1     152.352 162.772 187.221  0.00  0.00    +0.061 HD
BRANCH  58  60
ATOM     60  C   UNL     1     150.483 163.780 187.560  0.00  0.00    +0.002 C 
ATOM     61  H   UNL     1     150.010 163.224 188.377  0.00  0.00    +0.037 HD
BRANCH  60  62
ATOM     62  C   UNL     1     150.011 163.168 186.234  0.00  0.00    -0.057 C 
ATOM     63  H   UNL     1     148.948 163.354 186.060  0.00  0.00    +0.024 HD
ATOM     64  H   UNL     1     150.548 163.605 185.385  0.00  0.00    +0.024 HD
ATOM     65  H   UNL     1     150.165 162.084 186.215  0.00  0.00    +0.024 HD
ENDBRANCH  60  62
BRANCH  60  66
ATOM     66  C   UNL     1     150.003 165.219 187.759  0.00  0.00    -0.065 C 
ATOM     67  C   UNL     1     149.048 165.862 187.073  0.00  0.00    -0.005 C 
ATOM     68  H   UNL     1     150.540 165.717 188.563  0.00  0.00    +0.059 HD
ATOM     69  H   UNL     1     148.523 165.341 186.275  0.00  0.00    +0.078 HD
BRANCH  67  70
ATOM     70  N   UNL     1     148.624 167.171 187.254  0.00  0.00    -0.284 N 
ATOM     71  C   UNL     1     148.012 167.670 188.397  0.00  0.00    +0.206 C 
ATOM     72  O   UNL     1     147.635 168.823 188.576  0.00  0.00    -0.279 OA
ATOM     73  H   UNL     1     147.876 166.926 189.192  0.00  0.00    +0.126 HD
BRANCH  70  74
ATOM     74  C   UNL     1     148.838 168.096 186.144  0.00  0.00    +0.007 C 
ATOM     75  H   UNL     1     147.998 168.796 186.098  0.00  0.00    +0.043 HD
ATOM     76  H   UNL     1     148.915 167.578 185.184  0.00  0.00    +0.043 HD
ATOM     77  H   UNL     1     149.767 168.648 186.322  0.00  0.00    +0.043 HD
ENDBRANCH  70  74
ENDBRANCH  67  70
ENDBRANCH  60  66
ENDBRANCH  58  60
BRANCH  58  78
ATOM     78  O   UNL     1     152.629 164.824 187.050  0.00  0.00    -0.379 OA
BRANCH  78  79
ATOM     79  C   UNL     1     153.605 164.448 186.086  0.00  0.00    +0.037 C 
ATOM     80  H   UNL     1     153.597 165.135 185.234  0.00  0.00    +0.052 HD
ATOM     81  H   UNL     1     153.439 163.423 185.742  0.00  0.00    +0.052 HD
ATOM     82  H   UNL     1     154.589 164.498 186.558  0.00  0.00    +0.052 HD
ENDBRANCH  78  79
ENDBRANCH  58  78
ENDBRANCH  52  58
ENDBRANCH  50  52
BRANCH  50  83
ATOM     83  O   UNL     1     154.427 164.998 190.025  0.00  0.00    -0.459 OA
BRANCH  83  85
ATOM     84  O   UNL     1     154.549 166.998 188.901  0.00  0.00    -0.248 OA
ATOM     85  C   UNL     1     155.061 165.950 189.271  0.00  0.00    +0.337 C 
BRANCH  85  86
ATOM     86  C   UNL     1     156.510 165.524 189.007  0.00  0.00    +0.155 C 
ATOM     87  O   UNL     1     156.714 165.028 187.672  0.00  0.00    -0.365 OA
ATOM     88  C   UNL     1     157.273 163.712 187.752  0.00  0.00    +0.049 C 
ATOM     89  C   UNL     1     157.920 163.621 189.113  0.00  0.00    -0.027 C 
ATOM     90  C   UNL     1     156.966 164.425 189.958  0.00  0.00    -0.014 C 
ATOM     91  H   UNL     1     157.141 166.416 189.102  0.00  0.00    +0.071 HD
ATOM     92  H   UNL     1     156.458 162.985 187.648  0.00  0.00    +0.056 HD
ATOM     93  H   UNL     1     157.984 163.563 186.934  0.00  0.00    +0.056 HD
ATOM     94  H   UNL     1     158.901 164.113 189.096  0.00  0.00    +0.029 HD
ATOM     95  H   UNL     1     158.053 162.591 189.459  0.00  0.00    +0.029 HD
ATOM     96  H   UNL     1     157.437 164.827 190.861  0.00  0.00    +0.030 HD
ATOM     97  H   UNL     1     156.121 163.797 190.271  0.00  0.00    +0.030 HD
ENDBRANCH  85  86
ENDBRANCH  83  85
ENDBRANCH  50  83
ENDBRANCH   1  50
TORSDOF 31
ENDMDL
MODEL 6
REMARK VINA RESULT:      -5.0      2.715      6.460
REMARK  Name = 2u_conf2
REMARK  31 active torsions:
REMARK  status: ('A' for Active; 'I' for Inactive)
REMARK    1  A    between atoms: C_2  and  C_3
REMARK    2  A    between atoms: C_2  and  O_8
REMARK    3  A    between atoms: O_8  and  C_9
REMARK    4  A    between atoms: C_9  and  C_10
REMARK    5  A    between atoms: C_9  and  C_29
REMARK    6  A    between atoms: C_10  and  C_11
REMARK    7  A    between atoms: C_11  and  C_12
REMARK    8  A    between atoms: C_12  and  C_13
REMARK    9  A    between atoms: C_12  and  C_14
REMARK   10  A    between atoms: C_14  and  O_15
REMARK   11  A    between atoms: C_14  and  C_17
REMARK   12  A    between atoms: O_15  and  C_16
REMARK   13  A    between atoms: C_17  and  C_18
REMARK   14  A    between atoms: C_18  and  O_19
REMARK   15  A    between atoms: C_18  and  C_26
REMARK   16  A    between atoms: O_19  and  C_20
REMARK   17  A    between atoms: C_20  and  C_21
REMARK   18  A    between atoms: C_21  and  C_22
REMARK   19  A    between atoms: C_22  and  C_23
REMARK   20  A    between atoms: C_23  and  N_24
REMARK   21  A    between atoms: C_26  and  C_27
REMARK   22  A    between atoms: C_26  and  C_28
REMARK   23  A    between atoms: C_29  and  C_30
REMARK   24  A    between atoms: C_29  and  C_31
REMARK   25  A    between atoms: C_31  and  O_32
REMARK   26  A    between atoms: C_31  and  C_34
REMARK   27  A    between atoms: O_32  and  C_33
REMARK   28  A    between atoms: C_34  and  C_35
REMARK   29  A    between atoms: C_34  and  C_36
REMARK   30  A    between atoms: C_37  and  N_38
REMARK   31  A    between atoms: N_38  and  C_39
REMARK                            x       y       z     vdW  Elec       q    Type
REMARK                         _______ _______ _______ _____ _____    ______ ____
ROOT
ATOM      1  C   UNL     1     147.976 167.588 192.281  0.00  0.00    -0.015 C 
ATOM      2  H   UNL     1     148.266 167.371 193.309  0.00  0.00    +0.030 HD
ATOM      3  H   UNL     1     147.000 168.079 192.349  0.00  0.00    +0.030 HD
ENDROOT
BRANCH   1   4
ATOM      4  C   UNL     1     147.822 166.259 191.523  0.00  0.00    -0.045 C 
ATOM      5  H   UNL     1     148.061 165.425 192.192  0.00  0.00    +0.027 HD
ATOM      6  H   UNL     1     148.570 166.212 190.722  0.00  0.00    +0.027 HD
BRANCH   4   7
ATOM      7  C   UNL     1     146.429 166.028 190.894  0.00  0.00    -0.017 C 
ATOM      8  H   UNL     1     145.842 165.451 191.625  0.00  0.00    +0.032 HD
BRANCH   7   9
ATOM      9  C   UNL     1     146.548 165.124 189.656  0.00  0.00    -0.060 C 
ATOM     10  H   UNL     1     147.383 165.437 189.020  0.00  0.00    +0.023 HD
ATOM     11  H   UNL     1     145.643 165.177 189.042  0.00  0.00    +0.023 HD
ATOM     12  H   UNL     1     146.711 164.078 189.932  0.00  0.00    +0.023 HD
ENDBRANCH   7   9
BRANCH   7  13
ATOM     13  C   UNL     1     145.635 167.324 190.572  0.00  0.00    +0.064 C 
ATOM     14  H   UNL     1     146.279 168.198 190.725  0.00  0.00    +0.060 HD
BRANCH  13  15
ATOM     15  C   UNL     1     144.367 167.452 191.441  0.00  0.00    +0.011 C 
ATOM     16  H   UNL     1     144.642 167.923 192.390  0.00  0.00    +0.033 HD
ATOM     17  H   UNL     1     143.651 168.102 190.930  0.00  0.00    +0.033 HD
BRANCH  15  18
ATOM     18  C   UNL     1     143.694 166.095 191.719  0.00  0.00    +0.108 C 
ATOM     19  H   UNL     1     144.303 165.295 191.281  0.00  0.00    +0.074 HD
BRANCH  18  20
ATOM     20  C   UNL     1     143.489 165.790 193.227  0.00  0.00    -0.009 C 
ATOM     21  H   UNL     1     143.034 164.793 193.299  0.00  0.00    +0.033 HD
BRANCH  20  22
ATOM     22  C   UNL     1     144.812 165.739 193.993  0.00  0.00    -0.059 C 
ATOM     23  H   UNL     1     145.047 166.723 194.412  0.00  0.00    +0.023 HD
ATOM     24  H   UNL     1     145.648 165.451 193.348  0.00  0.00    +0.023 HD
ATOM     25  H   UNL     1     144.758 165.030 194.824  0.00  0.00    +0.023 HD
ENDBRANCH  20  22
BRANCH  20  26
ATOM     26  C   UNL     1     142.516 166.753 193.912  0.00  0.00    -0.059 C 
ATOM     27  H   UNL     1     142.572 167.745 193.450  0.00  0.00    +0.023 HD
ATOM     28  H   UNL     1     141.480 166.411 193.834  0.00  0.00    +0.023 HD
ATOM     29  H   UNL     1     142.758 166.875 194.972  0.00  0.00    +0.023 HD
ENDBRANCH  20  26
ENDBRANCH  18  20
BRANCH  18  30
ATOM     30  O   UNL     1     142.395 166.134 191.079  0.00  0.00    -0.461 OA
BRANCH  30  31
ATOM     31  C   UNL     1     142.282 165.514 189.870  0.00  0.00    +0.307 C 
ATOM     32  O   UNL     1     141.680 165.954 188.901  0.00  0.00    -0.251 OA
BRANCH  31  33
ATOM     33  C   UNL     1     143.048 164.213 189.911  0.00  0.00    +0.046 C 
ATOM     34  H   UNL     1     142.744 163.672 190.813  0.00  0.00    +0.038 HD
ATOM     35  H   UNL     1     144.114 164.456 189.980  0.00  0.00    +0.038 HD
BRANCH  33  36
ATOM     36  C   UNL     1     142.789 163.354 188.675  0.00  0.00    -0.031 C 
ATOM     37  H   UNL     1     141.904 163.728 188.145  0.00  0.00    +0.028 HD
ATOM     38  H   UNL     1     143.632 163.453 187.976  0.00  0.00    +0.028 HD
BRANCH  36  39
ATOM     39  C   UNL     1     142.616 161.869 188.996  0.00  0.00    -0.006 C 
ATOM     40  H   UNL     1     142.280 161.349 188.093  0.00  0.00    +0.042 HD
ATOM     41  H   UNL     1     143.576 161.429 189.287  0.00  0.00    +0.042 HD
BRANCH  39  42
ATOM     42  N   UNL     1     141.637 161.642 190.055  0.00  0.00    -0.330 NA
ATOM     43  H   UNL     1     140.760 161.312 189.656  0.00  0.00    +0.118 HD
ATOM     44  H   UNL     1     141.419 162.534 190.500  0.00  0.00    +0.118 HD
ENDBRANCH  39  42
ENDBRANCH  36  39
ENDBRANCH  33  36
ENDBRANCH  31  33
ENDBRANCH  30  31
ENDBRANCH  18  30
ENDBRANCH  15  18
ENDBRANCH  13  15
BRANCH  13  45
ATOM     45  O   UNL     1     145.205 167.251 189.202  0.00  0.00    -0.379 OA
BRANCH  45  46
ATOM     46  C   UNL     1     144.439 168.378 188.794  0.00  0.00    +0.037 C 
ATOM     47  H   UNL     1     143.417 168.043 188.599  0.00  0.00    +0.052 HD
ATOM     48  H   UNL     1     144.847 168.814 187.877  0.00  0.00    +0.052 HD
ATOM     49  H   UNL     1     144.415 169.131 189.588  0.00  0.00    +0.052 HD
ENDBRANCH  45  46
ENDBRANCH  13  45
ENDBRANCH   7  13
ENDBRANCH   4   7
ENDBRANCH   1   4
BRANCH   1  50
ATOM     50  C   UNL     1     148.986 168.540 191.600  0.00  0.00    +0.108 C 
ATOM     51  H   UNL     1     149.038 168.300 190.529  0.00  0.00    +0.074 HD
BRANCH  50  52
ATOM     52  C   UNL     1     150.461 168.488 192.102  0.00  0.00    +0.020 C 
ATOM     53  H   UNL     1     150.410 168.125 193.138  0.00  0.00    +0.036 HD
BRANCH  52  54
ATOM     54  C   UNL     1     151.038 169.909 192.193  0.00  0.00    -0.057 C 
ATOM     55  H   UNL     1     151.929 169.927 192.828  0.00  0.00    +0.023 HD
ATOM     56  H   UNL     1     150.317 170.618 192.605  0.00  0.00    +0.023 HD
ATOM     57  H   UNL     1     151.337 170.268 191.204  0.00  0.00    +0.023 HD
ENDBRANCH  52  54
BRANCH  52  58
ATOM     58  C   UNL     1     151.471 167.548 191.368  0.00  0.00    +0.070 C 
ATOM     59  H   UNL     1     152.264 168.196 190.963  0.00  0.00    +0.061 HD
BRANCH  58  60
ATOM     60  C   UNL     1     152.187 166.475 192.250  0.00  0.00    +0.002 C 
ATOM     61  H   UNL     1     152.964 166.964 192.848  0.00  0.00    +0.037 HD
BRANCH  60  62
ATOM     62  C   UNL     1     152.858 165.388 191.400  0.00  0.00    -0.057 C 
ATOM     63  H   UNL     1     152.386 164.413 191.547  0.00  0.00    +0.024 HD
ATOM     64  H   UNL     1     152.777 165.617 190.332  0.00  0.00    +0.024 HD
ATOM     65  H   UNL     1     153.920 165.282 191.648  0.00  0.00    +0.024 HD
ENDBRANCH  60  62
BRANCH  60  66
ATOM     66  C   UNL     1     151.216 165.909 193.287  0.00  0.00    -0.065 C 
ATOM     67  C   UNL     1     151.444 165.707 194.593  0.00  0.00    -0.005 C 
ATOM     68  H   UNL     1     150.252 165.665 192.849  0.00  0.00    +0.059 HD
ATOM     69  H   UNL     1     152.417 165.963 195.009  0.00  0.00    +0.078 HD
BRANCH  67  70
ATOM     70  N   UNL     1     150.561 165.185 195.527  0.00  0.00    -0.284 N 
ATOM     71  C   UNL     1     149.324 165.725 195.857  0.00  0.00    +0.206 C 
ATOM     72  O   UNL     1     148.529 165.275 196.676  0.00  0.00    -0.279 OA
ATOM     73  H   UNL     1     149.074 166.640 195.305  0.00  0.00    +0.126 HD
BRANCH  70  74
ATOM     74  C   UNL     1     150.973 163.968 196.220  0.00  0.00    +0.007 C 
ATOM     75  H   UNL     1     150.114 163.292 196.293  0.00  0.00    +0.043 HD
ATOM     76  H   UNL     1     151.344 164.172 197.229  0.00  0.00    +0.043 HD
ATOM     77  H   UNL     1     151.770 163.487 195.642  0.00  0.00    +0.043 HD
ENDBRANCH  70  74
ENDBRANCH  67  70
ENDBRANCH  60  66
ENDBRANCH  58  60
BRANCH  58  78
ATOM     78  O   UNL     1     150.804 166.885 190.282  0.00  0.00    -0.379 OA
BRANCH  78  79
ATOM     79  C   UNL     1     151.370 167.185 189.011  0.00  0.00    +0.037 C 
ATOM     80  H   UNL     1     151.453 166.281 188.398  0.00  0.00    +0.052 HD
ATOM     81  H   UNL     1     152.353 167.653 189.122  0.00  0.00    +0.052 HD
ATOM     82  H   UNL     1     150.709 167.887 188.500  0.00  0.00    +0.052 HD
ENDBRANCH  78  79
ENDBRANCH  58  78
ENDBRANCH  52  58
ENDBRANCH  50  52
BRANCH  50  83
ATOM     83  O   UNL     1     148.490 169.894 191.718  0.00  0.00    -0.459 OA
BRANCH  83  85
ATOM     84  O   UNL     1     147.652 169.808 189.581  0.00  0.00    -0.248 OA
ATOM     85  C   UNL     1     147.964 170.444 190.578  0.00  0.00    +0.337 C 
BRANCH  85  86
ATOM     86  C   UNL     1     147.788 171.955 190.763  0.00  0.00    +0.155 C 
ATOM     87  O   UNL     1     149.035 172.648 190.942  0.00  0.00    -0.365 OA
ATOM     88  C   UNL     1     148.980 173.384 192.170  0.00  0.00    +0.049 C 
ATOM     89  C   UNL     1     147.512 173.584 192.464  0.00  0.00    -0.027 C 
ATOM     90  C   UNL     1     146.924 172.287 191.974  0.00  0.00    -0.014 C 
ATOM     91  H   UNL     1     147.346 172.353 189.841  0.00  0.00    +0.071 HD
ATOM     92  H   UNL     1     149.466 172.787 192.951  0.00  0.00    +0.056 HD
ATOM     93  H   UNL     1     149.522 174.327 192.059  0.00  0.00    +0.056 HD
ATOM     94  H   UNL     1     147.119 174.416 191.866  0.00  0.00    +0.029 HD
ATOM     95  H   UNL     1     147.309 173.788 193.520  0.00  0.00    +0.029 HD
ATOM     96  H   UNL     1     145.864 172.375 191.715  0.00  0.00    +0.030 HD
ATOM     97  H   UNL     1     147.018 171.515 192.750  0.00  0.00    +0.030 HD
ENDBRANCH  85  86
ENDBRANCH  83  85
ENDBRANCH  50  83
ENDBRANCH   1  50
TORSDOF 31
ENDMDL
MODEL 7
REMARK VINA RESULT:      -4.9      2.941      7.573
REMARK  Name = 2u_conf2
REMARK  31 active torsions:
REMARK  status: ('A' for Active; 'I' for Inactive)
REMARK    1  A    between atoms: C_2  and  C_3
REMARK    2  A    between atoms: C_2  and  O_8
REMARK    3  A    between atoms: O_8  and  C_9
REMARK    4  A    between atoms: C_9  and  C_10
REMARK    5  A    between atoms: C_9  and  C_29
REMARK    6  A    between atoms: C_10  and  C_11
REMARK    7  A    between atoms: C_11  and  C_12
REMARK    8  A    between atoms: C_12  and  C_13
REMARK    9  A    between atoms: C_12  and  C_14
REMARK   10  A    between atoms: C_14  and  O_15
REMARK   11  A    between atoms: C_14  and  C_17
REMARK   12  A    between atoms: O_15  and  C_16
REMARK   13  A    between atoms: C_17  and  C_18
REMARK   14  A    between atoms: C_18  and  O_19
REMARK   15  A    between atoms: C_18  and  C_26
REMARK   16  A    between atoms: O_19  and  C_20
REMARK   17  A    between atoms: C_20  and  C_21
REMARK   18  A    between atoms: C_21  and  C_22
REMARK   19  A    between atoms: C_22  and  C_23
REMARK   20  A    between atoms: C_23  and  N_24
REMARK   21  A    between atoms: C_26  and  C_27
REMARK   22  A    between atoms: C_26  and  C_28
REMARK   23  A    between atoms: C_29  and  C_30
REMARK   24  A    between atoms: C_29  and  C_31
REMARK   25  A    between atoms: C_31  and  O_32
REMARK   26  A    between atoms: C_31  and  C_34
REMARK   27  A    between atoms: O_32  and  C_33
REMARK   28  A    between atoms: C_34  and  C_35
REMARK   29  A    between atoms: C_34  and  C_36
REMARK   30  A    between atoms: C_37  and  N_38
REMARK   31  A    between atoms: N_38  and  C_39
REMARK                            x       y       z     vdW  Elec       q    Type
REMARK                         _______ _______ _______ _____ _____    ______ ____
ROOT
ATOM      1  C   UNL     1     146.588 166.369 191.501  0.00  0.00    -0.015 C 
ATOM      2  H   UNL     1     147.500 165.869 191.826  0.00  0.00    +0.030 HD
ATOM      3  H   UNL     1     146.316 165.895 190.552  0.00  0.00    +0.030 HD
ENDROOT
BRANCH   1   4
ATOM      4  C   UNL     1     146.902 167.854 191.253  0.00  0.00    -0.045 C 
ATOM      5  H   UNL     1     146.574 168.446 192.114  0.00  0.00    +0.027 HD
ATOM      6  H   UNL     1     146.304 168.213 190.407  0.00  0.00    +0.027 HD
BRANCH   4   7
ATOM      7  C   UNL     1     148.388 168.162 190.955  0.00  0.00    -0.017 C 
ATOM      8  H   UNL     1     148.418 168.669 189.979  0.00  0.00    +0.032 HD
BRANCH   7   9
ATOM      9  C   UNL     1     149.174 166.854 190.766  0.00  0.00    -0.060 C 
ATOM     10  H   UNL     1     148.612 165.999 191.156  0.00  0.00    +0.023 HD
ATOM     11  H   UNL     1     150.126 166.885 191.307  0.00  0.00    +0.023 HD
ATOM     12  H   UNL     1     149.389 166.660 189.710  0.00  0.00    +0.023 HD
ENDBRANCH   7   9
BRANCH   7  13
ATOM     13  C   UNL     1     149.081 169.092 191.989  0.00  0.00    +0.064 C 
ATOM     14  H   UNL     1     148.493 169.117 192.914  0.00  0.00    +0.060 HD
BRANCH  13  15
ATOM     15  C   UNL     1     149.259 170.524 191.444  0.00  0.00    +0.011 C 
ATOM     16  H   UNL     1     150.148 170.964 191.908  0.00  0.00    +0.033 HD
ATOM     17  H   UNL     1     149.424 170.474 190.364  0.00  0.00    +0.033 HD
BRANCH  15  18
ATOM     18  C   UNL     1     148.039 171.424 191.719  0.00  0.00    +0.108 C 
ATOM     19  H   UNL     1     147.303 170.862 192.305  0.00  0.00    +0.074 HD
BRANCH  18  20
ATOM     20  C   UNL     1     148.380 172.733 192.478  0.00  0.00    -0.009 C 
ATOM     21  H   UNL     1     148.844 173.418 191.756  0.00  0.00    +0.033 HD
BRANCH  20  22
ATOM     22  C   UNL     1     147.131 173.429 193.022  0.00  0.00    -0.059 C 
ATOM     23  H   UNL     1     146.243 173.102 192.471  0.00  0.00    +0.023 HD
ATOM     24  H   UNL     1     147.193 174.517 192.926  0.00  0.00    +0.023 HD
ATOM     25  H   UNL     1     146.973 173.186 194.078  0.00  0.00    +0.023 HD
ENDBRANCH  20  22
BRANCH  20  26
ATOM     26  C   UNL     1     149.405 172.534 193.598  0.00  0.00    -0.059 C 
ATOM     27  H   UNL     1     150.396 172.871 193.273  0.00  0.00    +0.023 HD
ATOM     28  H   UNL     1     149.144 173.100 194.497  0.00  0.00    +0.023 HD
ATOM     29  H   UNL     1     149.496 171.479 193.871  0.00  0.00    +0.023 HD
ENDBRANCH  20  26
ENDBRANCH  18  20
BRANCH  18  30
ATOM     30  O   UNL     1     147.481 171.774 190.429  0.00  0.00    -0.461 OA
BRANCH  30  31
ATOM     31  C   UNL     1     146.240 171.288 190.138  0.00  0.00    +0.307 C 
ATOM     32  O   UNL     1     145.371 171.028 190.958  0.00  0.00    -0.251 OA
BRANCH  31  33
ATOM     33  C   UNL     1     146.103 171.155 188.640  0.00  0.00    +0.046 C 
ATOM     34  H   UNL     1     146.640 171.990 188.177  0.00  0.00    +0.038 HD
ATOM     35  H   UNL     1     145.039 171.232 188.395  0.00  0.00    +0.038 HD
BRANCH  33  36
ATOM     36  C   UNL     1     146.661 169.829 188.127  0.00  0.00    -0.031 C 
ATOM     37  H   UNL     1     147.679 169.684 188.509  0.00  0.00    +0.028 HD
ATOM     38  H   UNL     1     146.061 169.000 188.527  0.00  0.00    +0.028 HD
BRANCH  36  39
ATOM     39  C   UNL     1     146.656 169.720 186.602  0.00  0.00    -0.006 C 
ATOM     40  H   UNL     1     145.775 169.149 186.291  0.00  0.00    +0.042 HD
ATOM     41  H   UNL     1     146.574 170.716 186.150  0.00  0.00    +0.042 HD
BRANCH  39  42
ATOM     42  N   UNL     1     147.847 169.052 186.090  0.00  0.00    -0.330 NA
ATOM     43  H   UNL     1     148.485 169.735 185.684  0.00  0.00    +0.118 HD
ATOM     44  H   UNL     1     147.577 168.438 185.321  0.00  0.00    +0.118 HD
ENDBRANCH  39  42
ENDBRANCH  36  39
ENDBRANCH  33  36
ENDBRANCH  31  33
ENDBRANCH  30  31
ENDBRANCH  18  30
ENDBRANCH  15  18
ENDBRANCH  13  15
BRANCH  13  45
ATOM     45  O   UNL     1     150.396 168.568 192.244  0.00  0.00    -0.379 OA
BRANCH  45  46
ATOM     46  C   UNL     1     151.417 169.554 192.159  0.00  0.00    +0.037 C 
ATOM     47  H   UNL     1     151.470 169.904 191.125  0.00  0.00    +0.052 HD
ATOM     48  H   UNL     1     152.388 169.132 192.436  0.00  0.00    +0.052 HD
ATOM     49  H   UNL     1     151.182 170.405 192.806  0.00  0.00    +0.052 HD
ENDBRANCH  45  46
ENDBRANCH  13  45
ENDBRANCH   7  13
ENDBRANCH   4   7
ENDBRANCH   1   4
BRANCH   1  50
ATOM     50  C   UNL     1     145.444 166.173 192.522  0.00  0.00    +0.108 C 
ATOM     51  H   UNL     1     145.243 165.098 192.632  0.00  0.00    +0.074 HD
BRANCH  50  52
ATOM     52  C   UNL     1     144.065 166.812 192.174  0.00  0.00    +0.020 C 
ATOM     53  H   UNL     1     144.275 167.864 191.941  0.00  0.00    +0.036 HD
BRANCH  52  54
ATOM     54  C   UNL     1     143.167 166.839 193.421  0.00  0.00    -0.057 C 
ATOM     55  H   UNL     1     143.539 166.146 194.183  0.00  0.00    +0.023 HD
ATOM     56  H   UNL     1     142.136 166.564 193.190  0.00  0.00    +0.023 HD
ATOM     57  H   UNL     1     143.158 167.837 193.868  0.00  0.00    +0.023 HD
ENDBRANCH  52  54
BRANCH  52  58
ATOM     58  C   UNL     1     143.265 166.253 190.953  0.00  0.00    +0.070 C 
ATOM     59  H   UNL     1     142.265 165.987 191.329  0.00  0.00    +0.061 HD
BRANCH  58  60
ATOM     60  C   UNL     1     143.040 167.240 189.762  0.00  0.00    +0.002 C 
ATOM     61  H   UNL     1     142.167 166.911 189.186  0.00  0.00    +0.037 HD
BRANCH  60  62
ATOM     62  C   UNL     1     144.246 167.281 188.814  0.00  0.00    -0.057 C 
ATOM     63  H   UNL     1     144.314 168.238 188.291  0.00  0.00    +0.024 HD
ATOM     64  H   UNL     1     145.184 167.158 189.365  0.00  0.00    +0.024 HD
ATOM     65  H   UNL     1     144.187 166.493 188.055  0.00  0.00    +0.024 HD
ENDBRANCH  60  62
BRANCH  60  66
ATOM     66  C   UNL     1     142.643 168.621 190.287  0.00  0.00    -0.065 C 
ATOM     67  C   UNL     1     141.405 169.090 190.493  0.00  0.00    -0.005 C 
ATOM     68  H   UNL     1     143.513 169.240 190.494  0.00  0.00    +0.059 HD
ATOM     69  H   UNL     1     140.551 168.450 190.280  0.00  0.00    +0.078 HD
BRANCH  67  70
ATOM     70  N   UNL     1     141.052 170.348 190.961  0.00  0.00    -0.284 N 
ATOM     71  C   UNL     1     141.908 171.243 191.590  0.00  0.00    +0.206 C 
ATOM     72  O   UNL     1     141.616 172.359 192.006  0.00  0.00    -0.279 OA
ATOM     73  H   UNL     1     142.936 170.875 191.702  0.00  0.00    +0.126 HD
BRANCH  70  74
ATOM     74  C   UNL     1     139.663 170.758 190.776  0.00  0.00    +0.007 C 
ATOM     75  H   UNL     1     139.373 171.412 191.605  0.00  0.00    +0.043 HD
ATOM     76  H   UNL     1     138.980 169.904 190.749  0.00  0.00    +0.043 HD
ATOM     77  H   UNL     1     139.581 171.304 189.831  0.00  0.00    +0.043 HD
ENDBRANCH  70  74
ENDBRANCH  67  70
ENDBRANCH  60  66
ENDBRANCH  58  60
BRANCH  58  78
ATOM     78  O   UNL     1     143.913 165.070 190.459  0.00  0.00    -0.379 OA
BRANCH  78  79
ATOM     79  C   UNL     1     143.004 164.121 189.913  0.00  0.00    +0.037 C 
ATOM     80  H   UNL     1     142.069 164.605 189.612  0.00  0.00    +0.052 HD
ATOM     81  H   UNL     1     142.798 163.322 190.630  0.00  0.00    +0.052 HD
ATOM     82  H   UNL     1     143.463 163.680 189.026  0.00  0.00    +0.052 HD
ENDBRANCH  78  79
ENDBRANCH  58  78
ENDBRANCH  52  58
ENDBRANCH  50  52
BRANCH  50  83
ATOM     83  O   UNL     1     145.888 166.666 193.807  0.00  0.00    -0.459 OA
BRANCH  83  85
ATOM     84  O   UNL     1     146.215 164.620 194.800  0.00  0.00    -0.248 OA
ATOM     85  C   UNL     1     146.569 165.773 194.592  0.00  0.00    +0.337 C 
BRANCH  85  86
ATOM     86  C   UNL     1     147.853 166.420 195.123  0.00  0.00    +0.155 C 
ATOM     87  O   UNL     1     148.970 166.267 194.229  0.00  0.00    -0.365 OA
ATOM     88  C   UNL     1     150.044 165.640 194.939  0.00  0.00    +0.049 C 
ATOM     89  C   UNL     1     149.783 165.909 196.402  0.00  0.00    -0.027 C 
ATOM     90  C   UNL     1     148.279 165.833 196.462  0.00  0.00    -0.014 C 
ATOM     91  H   UNL     1     147.671 167.499 195.204  0.00  0.00    +0.071 HD
ATOM     92  H   UNL     1     150.019 164.565 194.720  0.00  0.00    +0.056 HD
ATOM     93  H   UNL     1     151.000 166.047 194.597  0.00  0.00    +0.056 HD
ATOM     94  H   UNL     1     150.111 166.924 196.661  0.00  0.00    +0.029 HD
ATOM     95  H   UNL     1     150.286 165.200 197.066  0.00  0.00    +0.029 HD
ATOM     96  H   UNL     1     147.862 166.386 197.310  0.00  0.00    +0.030 HD
ATOM     97  H   UNL     1     147.960 164.786 196.554  0.00  0.00    +0.030 HD
ENDBRANCH  85  86
ENDBRANCH  83  85
ENDBRANCH  50  83
ENDBRANCH   1  50
TORSDOF 31
ENDMDL
MODEL 8
REMARK VINA RESULT:      -4.9      2.761      6.559
REMARK  Name = 2u_conf2
REMARK  31 active torsions:
REMARK  status: ('A' for Active; 'I' for Inactive)
REMARK    1  A    between atoms: C_2  and  C_3
REMARK    2  A    between atoms: C_2  and  O_8
REMARK    3  A    between atoms: O_8  and  C_9
REMARK    4  A    between atoms: C_9  and  C_10
REMARK    5  A    between atoms: C_9  and  C_29
REMARK    6  A    between atoms: C_10  and  C_11
REMARK    7  A    between atoms: C_11  and  C_12
REMARK    8  A    between atoms: C_12  and  C_13
REMARK    9  A    between atoms: C_12  and  C_14
REMARK   10  A    between atoms: C_14  and  O_15
REMARK   11  A    between atoms: C_14  and  C_17
REMARK   12  A    between atoms: O_15  and  C_16
REMARK   13  A    between atoms: C_17  and  C_18
REMARK   14  A    between atoms: C_18  and  O_19
REMARK   15  A    between atoms: C_18  and  C_26
REMARK   16  A    between atoms: O_19  and  C_20
REMARK   17  A    between atoms: C_20  and  C_21
REMARK   18  A    between atoms: C_21  and  C_22
REMARK   19  A    between atoms: C_22  and  C_23
REMARK   20  A    between atoms: C_23  and  N_24
REMARK   21  A    between atoms: C_26  and  C_27
REMARK   22  A    between atoms: C_26  and  C_28
REMARK   23  A    between atoms: C_29  and  C_30
REMARK   24  A    between atoms: C_29  and  C_31
REMARK   25  A    between atoms: C_31  and  O_32
REMARK   26  A    between atoms: C_31  and  C_34
REMARK   27  A    between atoms: O_32  and  C_33
REMARK   28  A    between atoms: C_34  and  C_35
REMARK   29  A    between atoms: C_34  and  C_36
REMARK   30  A    between atoms: C_37  and  N_38
REMARK   31  A    between atoms: N_38  and  C_39
REMARK                            x       y       z     vdW  Elec       q    Type
REMARK                         _______ _______ _______ _____ _____    ______ ____
ROOT
ATOM      1  C   UNL     1     148.076 167.835 193.484  0.00  0.00    -0.015 C 
ATOM      2  H   UNL     1     148.739 167.514 194.287  0.00  0.00    +0.030 HD
ATOM      3  H   UNL     1     147.393 168.560 193.940  0.00  0.00    +0.030 HD
ENDROOT
BRANCH   1   4
ATOM      4  C   UNL     1     147.271 166.620 192.993  0.00  0.00    -0.045 C 
ATOM      5  H   UNL     1     147.850 165.705 193.163  0.00  0.00    +0.027 HD
ATOM      6  H   UNL     1     147.144 166.687 191.906  0.00  0.00    +0.027 HD
BRANCH   4   7
ATOM      7  C   UNL     1     145.873 166.467 193.632  0.00  0.00    -0.017 C 
ATOM      8  H   UNL     1     145.781 167.258 194.392  0.00  0.00    +0.032 HD
BRANCH   7   9
ATOM      9  C   UNL     1     145.784 165.142 194.406  0.00  0.00    -0.060 C 
ATOM     10  H   UNL     1     145.653 164.296 193.722  0.00  0.00    +0.023 HD
ATOM     11  H   UNL     1     144.924 165.139 195.085  0.00  0.00    +0.023 HD
ATOM     12  H   UNL     1     146.686 164.957 194.998  0.00  0.00    +0.023 HD
ENDBRANCH   7   9
BRANCH   7  13
ATOM     13  C   UNL     1     144.683 166.624 192.645  0.00  0.00    +0.064 C 
ATOM     14  H   UNL     1     144.321 165.635 192.342  0.00  0.00    +0.060 HD
BRANCH  13  15
ATOM     15  C   UNL     1     145.077 167.440 191.396  0.00  0.00    +0.011 C 
ATOM     16  H   UNL     1     144.535 168.391 191.417  0.00  0.00    +0.033 HD
ATOM     17  H   UNL     1     146.149 167.656 191.437  0.00  0.00    +0.033 HD
BRANCH  15  18
ATOM     18  C   UNL     1     144.769 166.703 190.080  0.00  0.00    +0.108 C 
ATOM     19  H   UNL     1     144.278 167.395 189.386  0.00  0.00    +0.074 HD
BRANCH  18  20
ATOM     20  C   UNL     1     146.022 166.110 189.381  0.00  0.00    -0.009 C 
ATOM     21  H   UNL     1     146.868 166.768 189.617  0.00  0.00    +0.033 HD
BRANCH  20  22
ATOM     22  C   UNL     1     146.372 164.717 189.907  0.00  0.00    -0.059 C 
ATOM     23  H   UNL     1     147.202 164.291 189.334  0.00  0.00    +0.023 HD
ATOM     24  H   UNL     1     145.530 164.024 189.825  0.00  0.00    +0.023 HD
ATOM     25  H   UNL     1     146.682 164.759 190.956  0.00  0.00    +0.023 HD
ENDBRANCH  20  22
BRANCH  20  26
ATOM     26  C   UNL     1     145.909 166.087 187.855  0.00  0.00    -0.059 C 
ATOM     27  H   UNL     1     145.724 165.067 187.500  0.00  0.00    +0.023 HD
ATOM     28  H   UNL     1     145.088 166.715 187.496  0.00  0.00    +0.023 HD
ATOM     29  H   UNL     1     146.834 166.431 187.383  0.00  0.00    +0.023 HD
ENDBRANCH  20  26
ENDBRANCH  18  20
BRANCH  18  30
ATOM     30  O   UNL     1     143.871 165.615 190.411  0.00  0.00    -0.461 OA
BRANCH  30  31
ATOM     31  C   UNL     1     142.621 165.657 189.868  0.00  0.00    +0.307 C 
ATOM     32  O   UNL     1     141.763 166.488 190.128  0.00  0.00    -0.251 OA
BRANCH  31  33
ATOM     33  C   UNL     1     142.481 164.533 188.869  0.00  0.00    +0.046 C 
ATOM     34  H   UNL     1     142.982 164.840 187.945  0.00  0.00    +0.038 HD
ATOM     35  H   UNL     1     141.413 164.395 188.670  0.00  0.00    +0.038 HD
BRANCH  33  36
ATOM     36  C   UNL     1     143.087 163.229 189.383  0.00  0.00    -0.031 C 
ATOM     37  H   UNL     1     144.100 163.108 188.978  0.00  0.00    +0.028 HD
ATOM     38  H   UNL     1     143.196 163.281 190.476  0.00  0.00    +0.028 HD
BRANCH  36  39
ATOM     39  C   UNL     1     142.243 161.998 189.053  0.00  0.00    -0.006 C 
ATOM     40  H   UNL     1     141.432 162.296 188.380  0.00  0.00    +0.042 HD
ATOM     41  H   UNL     1     142.848 161.253 188.523  0.00  0.00    +0.042 HD
BRANCH  39  42
ATOM     42  N   UNL     1     141.659 161.390 190.244  0.00  0.00    -0.330 NA
ATOM     43  H   UNL     1     140.811 160.882 189.998  0.00  0.00    +0.118 HD
ATOM     44  H   UNL     1     141.360 162.131 190.880  0.00  0.00    +0.118 HD
ENDBRANCH  39  42
ENDBRANCH  36  39
ENDBRANCH  33  36
ENDBRANCH  31  33
ENDBRANCH  30  31
ENDBRANCH  18  30
ENDBRANCH  15  18
ENDBRANCH  13  15
BRANCH  13  45
ATOM     45  O   UNL     1     143.643 167.354 193.318  0.00  0.00    -0.379 OA
BRANCH  45  46
ATOM     46  C   UNL     1     142.486 166.569 193.579  0.00  0.00    +0.037 C 
ATOM     47  H   UNL     1     142.812 165.590 193.940  0.00  0.00    +0.052 HD
ATOM     48  H   UNL     1     141.898 166.428 192.666  0.00  0.00    +0.052 HD
ATOM     49  H   UNL     1     141.870 167.040 194.350  0.00  0.00    +0.052 HD
ENDBRANCH  45  46
ENDBRANCH  13  45
ENDBRANCH   7  13
ENDBRANCH   4   7
ENDBRANCH   1   4
BRANCH   1  50
ATOM     50  C   UNL     1     148.864 168.519 192.343  0.00  0.00    +0.108 C 
ATOM     51  H   UNL     1     148.635 168.011 191.396  0.00  0.00    +0.074 HD
BRANCH  50  52
ATOM     52  C   UNL     1     150.419 168.505 192.447  0.00  0.00    +0.020 C 
ATOM     53  H   UNL     1     150.646 168.208 193.480  0.00  0.00    +0.036 HD
BRANCH  52  54
ATOM     54  C   UNL     1     150.970 169.932 192.301  0.00  0.00    -0.057 C 
ATOM     55  H   UNL     1     150.446 170.622 192.969  0.00  0.00    +0.023 HD
ATOM     56  H   UNL     1     150.868 170.308 191.281  0.00  0.00    +0.023 HD
ATOM     57  H   UNL     1     152.031 169.966 192.568  0.00  0.00    +0.023 HD
ENDBRANCH  52  54
BRANCH  52  58
ATOM     58  C   UNL     1     151.225 167.526 191.534  0.00  0.00    +0.070 C 
ATOM     59  H   UNL     1     151.675 168.139 190.737  0.00  0.00    +0.061 HD
BRANCH  58  60
ATOM     60  C   UNL     1     152.402 166.754 192.212  0.00  0.00    +0.002 C 
ATOM     61  H   UNL     1     153.236 167.445 192.376  0.00  0.00    +0.037 HD
BRANCH  60  62
ATOM     62  C   UNL     1     152.909 165.598 191.339  0.00  0.00    -0.057 C 
ATOM     63  H   UNL     1     152.222 165.383 190.516  0.00  0.00    +0.024 HD
ATOM     64  H   UNL     1     153.875 165.843 190.884  0.00  0.00    +0.024 HD
ATOM     65  H   UNL     1     153.028 164.677 191.920  0.00  0.00    +0.024 HD
ENDBRANCH  60  62
BRANCH  60  66
ATOM     66  C   UNL     1     152.001 166.309 193.620  0.00  0.00    -0.065 C 
ATOM     67  C   UNL     1     151.040 165.438 193.957  0.00  0.00    -0.005 C 
ATOM     68  H   UNL     1     152.604 166.793 194.384  0.00  0.00    +0.059 HD
ATOM     69  H   UNL     1     150.452 164.964 193.173  0.00  0.00    +0.078 HD
BRANCH  67  70
ATOM     70  N   UNL     1     150.675 165.046 195.238  0.00  0.00    -0.284 N 
ATOM     71  C   UNL     1     151.046 163.856 195.853  0.00  0.00    +0.206 C 
ATOM     72  O   UNL     1     150.738 163.496 196.983  0.00  0.00    -0.279 OA
ATOM     73  H   UNL     1     151.679 163.209 195.231  0.00  0.00    +0.126 HD
BRANCH  70  74
ATOM     74  C   UNL     1     149.830 165.963 195.995  0.00  0.00    +0.007 C 
ATOM     75  H   UNL     1     149.617 166.842 195.378  0.00  0.00    +0.043 HD
ATOM     76  H   UNL     1     150.307 166.295 196.922  0.00  0.00    +0.043 HD
ATOM     77  H   UNL     1     148.893 165.453 196.245  0.00  0.00    +0.043 HD
ENDBRANCH  70  74
ENDBRANCH  67  70
ENDBRANCH  60  66
ENDBRANCH  58  60
BRANCH  58  78
ATOM     78  O   UNL     1     150.325 166.574 190.944  0.00  0.00    -0.379 OA
BRANCH  78  79
ATOM     79  C   UNL     1     150.066 166.826 189.568  0.00  0.00    +0.037 C 
ATOM     80  H   UNL     1     150.605 167.716 189.226  0.00  0.00    +0.052 HD
ATOM     81  H   UNL     1     148.994 166.947 189.388  0.00  0.00    +0.052 HD
ATOM     82  H   UNL     1     150.418 165.969 188.991  0.00  0.00    +0.052 HD
ENDBRANCH  78  79
ENDBRANCH  58  78
ENDBRANCH  52  58
ENDBRANCH  50  52
BRANCH  50  83
ATOM     83  O   UNL     1     148.406 169.886 192.225  0.00  0.00    -0.459 OA
BRANCH  83  85
ATOM     84  O   UNL     1     147.707 169.494 190.072  0.00  0.00    -0.248 OA
ATOM     85  C   UNL     1     147.960 170.266 190.986  0.00  0.00    +0.337 C 
BRANCH  85  86
ATOM     86  C   UNL     1     147.784 171.788 190.942  0.00  0.00    +0.155 C 
ATOM     87  O   UNL     1     149.034 172.498 190.963  0.00  0.00    -0.365 OA
ATOM     88  C   UNL     1     149.023 173.416 192.063  0.00  0.00    +0.049 C 
ATOM     89  C   UNL     1     147.566 173.662 192.379  0.00  0.00    -0.027 C 
ATOM     90  C   UNL     1     146.965 172.305 192.118  0.00  0.00    -0.014 C 
ATOM     91  H   UNL     1     147.305 172.039 189.987  0.00  0.00    +0.071 HD
ATOM     92  H   UNL     1     149.541 172.946 192.908  0.00  0.00    +0.056 HD
ATOM     93  H   UNL     1     149.556 174.330 191.787  0.00  0.00    +0.056 HD
ATOM     94  H   UNL     1     147.147 174.392 191.674  0.00  0.00    +0.029 HD
ATOM     95  H   UNL     1     147.402 174.027 193.398  0.00  0.00    +0.029 HD
ATOM     96  H   UNL     1     145.896 172.353 191.890  0.00  0.00    +0.030 HD
ATOM     97  H   UNL     1     147.092 171.663 193.001  0.00  0.00    +0.030 HD
ENDBRANCH  85  86
ENDBRANCH  83  85
ENDBRANCH  50  83
ENDBRANCH   1  50
TORSDOF 31
ENDMDL
MODEL 9
REMARK VINA RESULT:      -4.9      2.011      6.006
REMARK  Name = 2u_conf2
REMARK  31 active torsions:
REMARK  status: ('A' for Active; 'I' for Inactive)
REMARK    1  A    between atoms: C_2  and  C_3
REMARK    2  A    between atoms: C_2  and  O_8
REMARK    3  A    between atoms: O_8  and  C_9
REMARK    4  A    between atoms: C_9  and  C_10
REMARK    5  A    between atoms: C_9  and  C_29
REMARK    6  A    between atoms: C_10  and  C_11
REMARK    7  A    between atoms: C_11  and  C_12
REMARK    8  A    between atoms: C_12  and  C_13
REMARK    9  A    between atoms: C_12  and  C_14
REMARK   10  A    between atoms: C_14  and  O_15
REMARK   11  A    between atoms: C_14  and  C_17
REMARK   12  A    between atoms: O_15  and  C_16
REMARK   13  A    between atoms: C_17  and  C_18
REMARK   14  A    between atoms: C_18  and  O_19
REMARK   15  A    between atoms: C_18  and  C_26
REMARK   16  A    between atoms: O_19  and  C_20
REMARK   17  A    between atoms: C_20  and  C_21
REMARK   18  A    between atoms: C_21  and  C_22
REMARK   19  A    between atoms: C_22  and  C_23
REMARK   20  A    between atoms: C_23  and  N_24
REMARK   21  A    between atoms: C_26  and  C_27
REMARK   22  A    between atoms: C_26  and  C_28
REMARK   23  A    between atoms: C_29  and  C_30
REMARK   24  A    between atoms: C_29  and  C_31
REMARK   25  A    between atoms: C_31  and  O_32
REMARK   26  A    between atoms: C_31  and  C_34
REMARK   27  A    between atoms: O_32  and  C_33
REMARK   28  A    between atoms: C_34  and  C_35
REMARK   29  A    between atoms: C_34  and  C_36
REMARK   30  A    between atoms: C_37  and  N_38
REMARK   31  A    between atoms: N_38  and  C_39
REMARK                            x       y       z     vdW  Elec       q    Type
REMARK                         _______ _______ _______ _____ _____    ______ ____
ROOT
ATOM      1  C   UNL     1     148.738 168.175 192.277  0.00  0.00    -0.015 C 
ATOM      2  H   UNL     1     148.870 168.929 193.052  0.00  0.00    +0.030 HD
ATOM      3  H   UNL     1     148.539 167.238 192.808  0.00  0.00    +0.030 HD
ENDROOT
BRANCH   1   4
ATOM      4  C   UNL     1     150.052 168.041 191.490  0.00  0.00    -0.045 C 
ATOM      5  H   UNL     1     149.943 168.519 190.510  0.00  0.00    +0.027 HD
ATOM      6  H   UNL     1     150.240 166.982 191.278  0.00  0.00    +0.027 HD
BRANCH   4   7
ATOM      7  C   UNL     1     151.296 168.617 192.204  0.00  0.00    -0.017 C 
ATOM      8  H   UNL     1     151.098 168.559 193.285  0.00  0.00    +0.032 HD
BRANCH   7   9
ATOM      9  C   UNL     1     151.444 170.114 191.891  0.00  0.00    -0.060 C 
ATOM     10  H   UNL     1     151.358 170.716 192.802  0.00  0.00    +0.023 HD
ATOM     11  H   UNL     1     150.655 170.453 191.210  0.00  0.00    +0.023 HD
ATOM     12  H   UNL     1     152.411 170.339 191.431  0.00  0.00    +0.023 HD
ENDBRANCH   7   9
BRANCH   7  13
ATOM     13  C   UNL     1     152.620 167.850 191.928  0.00  0.00    +0.064 C 
ATOM     14  H   UNL     1     153.364 168.537 191.509  0.00  0.00    +0.060 HD
BRANCH  13  15
ATOM     15  C   UNL     1     152.406 166.662 190.967  0.00  0.00    +0.011 C 
ATOM     16  H   UNL     1     152.284 165.752 191.562  0.00  0.00    +0.033 HD
ATOM     17  H   UNL     1     151.486 166.827 190.399  0.00  0.00    +0.033 HD
BRANCH  15  18
ATOM     18  C   UNL     1     153.573 166.477 189.979  0.00  0.00    +0.108 C 
ATOM     19  H   UNL     1     154.016 167.455 189.758  0.00  0.00    +0.074 HD
BRANCH  18  20
ATOM     20  C   UNL     1     154.691 165.532 190.494  0.00  0.00    -0.009 C 
ATOM     21  H   UNL     1     154.624 165.515 191.590  0.00  0.00    +0.033 HD
BRANCH  20  22
ATOM     22  C   UNL     1     154.505 164.095 190.006  0.00  0.00    -0.059 C 
ATOM     23  H   UNL     1     155.465 163.567 190.000  0.00  0.00    +0.023 HD
ATOM     24  H   UNL     1     154.105 164.056 188.988  0.00  0.00    +0.023 HD
ATOM     25  H   UNL     1     153.827 163.541 190.663  0.00  0.00    +0.023 HD
ENDBRANCH  20  22
BRANCH  20  26
ATOM     26  C   UNL     1     156.101 166.027 190.161  0.00  0.00    -0.059 C 
ATOM     27  H   UNL     1     156.823 165.645 190.891  0.00  0.00    +0.023 HD
ATOM     28  H   UNL     1     156.427 165.694 189.171  0.00  0.00    +0.023 HD
ATOM     29  H   UNL     1     156.157 167.119 190.190  0.00  0.00    +0.023 HD
ENDBRANCH  20  26
ENDBRANCH  18  20
BRANCH  18  30
ATOM     30  O   UNL     1     153.010 165.905 188.772  0.00  0.00    -0.461 OA
BRANCH  30  31
ATOM     31  C   UNL     1     153.204 166.594 187.612  0.00  0.00    +0.307 C 
ATOM     32  O   UNL     1     154.100 167.400 187.407  0.00  0.00    -0.251 OA
BRANCH  31  33
ATOM     33  C   UNL     1     152.153 166.176 186.610  0.00  0.00    +0.046 C 
ATOM     34  H   UNL     1     152.084 165.083 186.632  0.00  0.00    +0.038 HD
ATOM     35  H   UNL     1     152.493 166.494 185.619  0.00  0.00    +0.038 HD
BRANCH  33  36
ATOM     36  C   UNL     1     150.790 166.792 186.916  0.00  0.00    -0.031 C 
ATOM     37  H   UNL     1     150.894 167.548 187.704  0.00  0.00    +0.028 HD
ATOM     38  H   UNL     1     150.419 167.322 186.027  0.00  0.00    +0.028 HD
BRANCH  36  39
ATOM     39  C   UNL     1     149.737 165.759 187.321  0.00  0.00    -0.006 C 
ATOM     40  H   UNL     1     148.757 166.246 187.347  0.00  0.00    +0.042 HD
ATOM     41  H   UNL     1     149.683 164.959 186.574  0.00  0.00    +0.042 HD
BRANCH  39  42
ATOM     42  N   UNL     1     150.005 165.180 188.633  0.00  0.00    -0.330 NA
ATOM     43  H   UNL     1     149.128 164.973 189.110  0.00  0.00    +0.118 HD
ATOM     44  H   UNL     1     150.474 165.878 189.212  0.00  0.00    +0.118 HD
ENDBRANCH  39  42
ENDBRANCH  36  39
ENDBRANCH  33  36
ENDBRANCH  31  33
ENDBRANCH  30  31
ENDBRANCH  18  30
ENDBRANCH  15  18
ENDBRANCH  13  15
BRANCH  13  45
ATOM     45  O   UNL     1     153.085 167.308 193.176  0.00  0.00    -0.379 OA
BRANCH  45  46
ATOM     46  C   UNL     1     152.514 166.042 193.484  0.00  0.00    +0.037 C 
ATOM     47  H   UNL     1     151.986 166.127 194.437  0.00  0.00    +0.052 HD
ATOM     48  H   UNL     1     153.292 165.278 193.582  0.00  0.00    +0.052 HD
ATOM     49  H   UNL     1     151.797 165.748 192.712  0.00  0.00    +0.052 HD
ENDBRANCH  45  46
ENDBRANCH  13  45
ENDBRANCH   7  13
ENDBRANCH   4   7
ENDBRANCH   1   4
BRANCH   1  50
ATOM     50  C   UNL     1     147.537 168.513 191.362  0.00  0.00    +0.108 C 
ATOM     51  H   UNL     1     146.793 169.076 191.942  0.00  0.00    +0.074 HD
BRANCH  50  52
ATOM     52  C   UNL     1     146.754 167.314 190.747  0.00  0.00    +0.020 C 
ATOM     53  H   UNL     1     147.224 166.410 191.156  0.00  0.00    +0.036 HD
BRANCH  52  54
ATOM     54  C   UNL     1     146.992 167.252 189.230  0.00  0.00    -0.057 C 
ATOM     55  H   UNL     1     146.059 167.416 188.682  0.00  0.00    +0.023 HD
ATOM     56  H   UNL     1     147.400 166.288 188.918  0.00  0.00    +0.023 HD
ATOM     57  H   UNL     1     147.693 168.031 188.917  0.00  0.00    +0.023 HD
ENDBRANCH  52  54
BRANCH  52  58
ATOM     58  C   UNL     1     145.227 167.179 191.052  0.00  0.00    +0.070 C 
ATOM     59  H   UNL     1     144.755 166.801 190.132  0.00  0.00    +0.061 HD
BRANCH  58  60
ATOM     60  C   UNL     1     144.833 166.183 192.190  0.00  0.00    +0.002 C 
ATOM     61  H   UNL     1     144.449 165.260 191.740  0.00  0.00    +0.037 HD
BRANCH  60  62
ATOM     62  C   UNL     1     143.740 166.755 193.102  0.00  0.00    -0.057 C 
ATOM     63  H   UNL     1     143.024 167.362 192.541  0.00  0.00    +0.024 HD
ATOM     64  H   UNL     1     143.164 165.955 193.578  0.00  0.00    +0.024 HD
ATOM     65  H   UNL     1     144.164 167.388 193.889  0.00  0.00    +0.024 HD
ENDBRANCH  60  62
BRANCH  60  66
ATOM     66  C   UNL     1     146.079 165.735 192.956  0.00  0.00    -0.065 C 
ATOM     67  C   UNL     1     146.451 166.100 194.192  0.00  0.00    -0.005 C 
ATOM     68  H   UNL     1     146.686 165.045 192.375  0.00  0.00    +0.059 HD
ATOM     69  H   UNL     1     145.825 166.790 194.754  0.00  0.00    +0.078 HD
BRANCH  67  70
ATOM     70  N   UNL     1     147.588 165.697 194.878  0.00  0.00    -0.284 N 
ATOM     71  C   UNL     1     148.711 165.114 194.304  0.00  0.00    +0.206 C 
ATOM     72  O   UNL     1     149.725 164.756 194.894  0.00  0.00    -0.279 OA
ATOM     73  H   UNL     1     148.642 164.984 193.217  0.00  0.00    +0.126 HD
BRANCH  70  74
ATOM     74  C   UNL     1     147.596 165.902 196.323  0.00  0.00    +0.007 C 
ATOM     75  H   UNL     1     148.539 166.381 196.608  0.00  0.00    +0.043 HD
ATOM     76  H   UNL     1     147.501 164.962 196.875  0.00  0.00    +0.043 HD
ATOM     77  H   UNL     1     146.758 166.553 196.591  0.00  0.00    +0.043 HD
ENDBRANCH  70  74
ENDBRANCH  67  70
ENDBRANCH  60  66
ENDBRANCH  58  60
BRANCH  58  78
ATOM     78  O   UNL     1     144.685 168.473 191.362  0.00  0.00    -0.379 OA
BRANCH  78  79
ATOM     79  C   UNL     1     143.945 169.042 190.288  0.00  0.00    +0.037 C 
ATOM     80  H   UNL     1     144.274 170.067 190.088  0.00  0.00    +0.052 HD
ATOM     81  H   UNL     1     142.873 169.029 190.503  0.00  0.00    +0.052 HD
ATOM     82  H   UNL     1     144.126 168.443 189.394  0.00  0.00    +0.052 HD
ENDBRANCH  78  79
ENDBRANCH  58  78
ENDBRANCH  52  58
ENDBRANCH  50  52
BRANCH  50  83
ATOM     83  O   UNL     1     148.001 169.377 190.299  0.00  0.00    -0.459 OA
BRANCH  83  85
ATOM     84  O   UNL     1     146.687 171.080 189.495  0.00  0.00    -0.248 OA
ATOM     85  C   UNL     1     147.504 170.653 190.299  0.00  0.00    +0.337 C 
BRANCH  85  86
ATOM     86  C   UNL     1     148.088 171.439 191.479  0.00  0.00    +0.155 C 
ATOM     87  O   UNL     1     147.078 171.963 192.359  0.00  0.00    -0.365 OA
ATOM     88  C   UNL     1     147.257 173.379 192.471  0.00  0.00    +0.049 C 
ATOM     89  C   UNL     1     148.698 173.643 192.105  0.00  0.00    -0.027 C 
ATOM     90  C   UNL     1     148.927 172.624 191.018  0.00  0.00    -0.014 C 
ATOM     91  H   UNL     1     148.686 170.741 192.079  0.00  0.00    +0.071 HD
ATOM     92  H   UNL     1     146.570 173.869 191.770  0.00  0.00    +0.056 HD
ATOM     93  H   UNL     1     147.012 173.703 193.487  0.00  0.00    +0.056 HD
ATOM     94  H   UNL     1     149.350 173.423 192.960  0.00  0.00    +0.029 HD
ATOM     95  H   UNL     1     148.879 174.674 191.786  0.00  0.00    +0.029 HD
ATOM     96  H   UNL     1     149.983 172.364 190.899  0.00  0.00    +0.030 HD
ATOM     97  H   UNL     1     148.566 173.014 190.057  0.00  0.00    +0.030 HD
ENDBRANCH  85  86
ENDBRANCH  83  85
ENDBRANCH  50  83
ENDBRANCH   1  50
TORSDOF 31
ENDMDL
MODEL 10
REMARK VINA RESULT:      -4.9      2.871      4.945
REMARK  Name = 2u_conf2
REMARK  31 active torsions:
REMARK  status: ('A' for Active; 'I' for Inactive)
REMARK    1  A    between atoms: C_2  and  C_3
REMARK    2  A    between atoms: C_2  and  O_8
REMARK    3  A    between atoms: O_8  and  C_9
REMARK    4  A    between atoms: C_9  and  C_10
REMARK    5  A    between atoms: C_9  and  C_29
REMARK    6  A    between atoms: C_10  and  C_11
REMARK    7  A    between atoms: C_11  and  C_12
REMARK    8  A    between atoms: C_12  and  C_13
REMARK    9  A    between atoms: C_12  and  C_14
REMARK   10  A    between atoms: C_14  and  O_15
REMARK   11  A    between atoms: C_14  and  C_17
REMARK   12  A    between atoms: O_15  and  C_16
REMARK   13  A    between atoms: C_17  and  C_18
REMARK   14  A    between atoms: C_18  and  O_19
REMARK   15  A    between atoms: C_18  and  C_26
REMARK   16  A    between atoms: O_19  and  C_20
REMARK   17  A    between atoms: C_20  and  C_21
REMARK   18  A    between atoms: C_21  and  C_22
REMARK   19  A    between atoms: C_22  and  C_23
REMARK   20  A    between atoms: C_23  and  N_24
REMARK   21  A    between atoms: C_26  and  C_27
REMARK   22  A    between atoms: C_26  and  C_28
REMARK   23  A    between atoms: C_29  and  C_30
REMARK   24  A    between atoms: C_29  and  C_31
REMARK   25  A    between atoms: C_31  and  O_32
REMARK   26  A    between atoms: C_31  and  C_34
REMARK   27  A    between atoms: O_32  and  C_33
REMARK   28  A    between atoms: C_34  and  C_35
REMARK   29  A    between atoms: C_34  and  C_36
REMARK   30  A    between atoms: C_37  and  N_38
REMARK   31  A    between atoms: N_38  and  C_39
REMARK                            x       y       z     vdW  Elec       q    Type
REMARK                         _______ _______ _______ _____ _____    ______ ____
ROOT
ATOM      1  C   UNL     1     147.555 169.377 190.136  0.00  0.00    -0.015 C 
ATOM      2  H   UNL     1     147.455 168.743 189.255  0.00  0.00    +0.030 HD
ATOM      3  H   UNL     1     148.526 169.872 190.033  0.00  0.00    +0.030 HD
ENDROOT
BRANCH   1   4
ATOM      4  C   UNL     1     147.572 168.481 191.386  0.00  0.00    -0.045 C 
ATOM      5  H   UNL     1     146.559 168.121 191.593  0.00  0.00    +0.027 HD
ATOM      6  H   UNL     1     147.850 169.084 192.259  0.00  0.00    +0.027 HD
BRANCH   4   7
ATOM      7  C   UNL     1     148.538 167.277 191.308  0.00  0.00    -0.017 C 
ATOM      8  H   UNL     1     149.447 167.630 190.798  0.00  0.00    +0.032 HD
BRANCH   7   9
ATOM      9  C   UNL     1     147.953 166.185 190.397  0.00  0.00    -0.060 C 
ATOM     10  H   UNL     1     148.157 165.187 190.799  0.00  0.00    +0.023 HD
ATOM     11  H   UNL     1     148.401 166.224 189.398  0.00  0.00    +0.023 HD
ATOM     12  H   UNL     1     146.869 166.287 190.287  0.00  0.00    +0.023 HD
ENDBRANCH   7   9
BRANCH   7  13
ATOM     13  C   UNL     1     148.967 166.694 192.683  0.00  0.00    +0.064 C 
ATOM     14  H   UNL     1     148.735 165.623 192.718  0.00  0.00    +0.060 HD
BRANCH  13  15
ATOM     15  C   UNL     1     148.273 167.417 193.855  0.00  0.00    +0.011 C 
ATOM     16  H   UNL     1     149.029 167.982 194.410  0.00  0.00    +0.033 HD
ATOM     17  H   UNL     1     147.542 168.125 193.453  0.00  0.00    +0.033 HD
BRANCH  15  18
ATOM     18  C   UNL     1     147.552 166.449 194.811  0.00  0.00    +0.108 C 
ATOM     19  H   UNL     1     147.116 167.020 195.639  0.00  0.00    +0.074 HD
BRANCH  18  20
ATOM     20  C   UNL     1     146.427 165.619 194.137  0.00  0.00    -0.009 C 
ATOM     21  H   UNL     1     146.909 164.942 193.418  0.00  0.00    +0.033 HD
BRANCH  20  22
ATOM     22  C   UNL     1     145.671 164.747 195.141  0.00  0.00    -0.059 C 
ATOM     23  H   UNL     1     144.962 164.095 194.621  0.00  0.00    +0.023 HD
ATOM     24  H   UNL     1     145.098 165.347 195.855  0.00  0.00    +0.023 HD
ATOM     25  H   UNL     1     146.358 164.107 195.703  0.00  0.00    +0.023 HD
ENDBRANCH  20  22
BRANCH  20  26
ATOM     26  C   UNL     1     145.446 166.472 193.330  0.00  0.00    -0.059 C 
ATOM     27  H   UNL     1     144.592 166.763 193.952  0.00  0.00    +0.023 HD
ATOM     28  H   UNL     1     145.912 167.390 192.960  0.00  0.00    +0.023 HD
ATOM     29  H   UNL     1     145.049 165.919 192.474  0.00  0.00    +0.023 HD
ENDBRANCH  20  26
ENDBRANCH  18  20
BRANCH  18  30
ATOM     30  O   UNL     1     148.557 165.535 195.316  0.00  0.00    -0.461 OA
BRANCH  30  31
ATOM     31  C   UNL     1     149.327 165.973 196.353  0.00  0.00    +0.307 C 
ATOM     32  O   UNL     1     148.910 166.527 197.360  0.00  0.00    -0.251 OA
BRANCH  31  33
ATOM     33  C   UNL     1     150.771 165.632 196.071  0.00  0.00    +0.046 C 
ATOM     34  H   UNL     1     151.350 165.849 196.975  0.00  0.00    +0.038 HD
ATOM     35  H   UNL     1     151.115 166.282 195.260  0.00  0.00    +0.038 HD
BRANCH  33  36
ATOM     36  C   UNL     1     150.949 164.168 195.677  0.00  0.00    -0.031 C 
ATOM     37  H   UNL     1     150.048 163.811 195.163  0.00  0.00    +0.028 HD
ATOM     38  H   UNL     1     151.772 164.081 194.952  0.00  0.00    +0.028 HD
BRANCH  36  39
ATOM     39  C   UNL     1     151.268 163.257 196.863  0.00  0.00    -0.006 C 
ATOM     40  H   UNL     1     152.333 163.348 197.102  0.00  0.00    +0.042 HD
ATOM     41  H   UNL     1     150.707 163.575 197.749  0.00  0.00    +0.042 HD
BRANCH  39  42
ATOM     42  N   UNL     1     150.975 161.856 196.580  0.00  0.00    -0.330 NA
ATOM     43  H   UNL     1     150.322 161.489 197.271  0.00  0.00    +0.118 HD
ATOM     44  H   UNL     1     151.830 161.310 196.693  0.00  0.00    +0.118 HD
ENDBRANCH  39  42
ENDBRANCH  36  39
ENDBRANCH  33  36
ENDBRANCH  31  33
ENDBRANCH  30  31
ENDBRANCH  18  30
ENDBRANCH  15  18
ENDBRANCH  13  15
BRANCH  13  45
ATOM     45  O   UNL     1     150.382 166.906 192.831  0.00  0.00    -0.379 OA
BRANCH  45  46
ATOM     46  C   UNL     1     151.166 165.847 192.295  0.00  0.00    +0.037 C 
ATOM     47  H   UNL     1     152.041 165.711 192.936  0.00  0.00    +0.052 HD
ATOM     48  H   UNL     1     151.507 166.089 191.284  0.00  0.00    +0.052 HD
ATOM     49  H   UNL     1     150.593 164.916 192.283  0.00  0.00    +0.052 HD
ENDBRANCH  45  46
ENDBRANCH  13  45
ENDBRANCH   7  13
ENDBRANCH   4   7
ENDBRANCH   1   4
BRANCH   1  50
ATOM     50  C   UNL     1     146.436 170.443 190.192  0.00  0.00    +0.108 C 
ATOM     51  H   UNL     1     145.918 170.368 191.158  0.00  0.00    +0.074 HD
BRANCH  50  52
ATOM     52  C   UNL     1     145.311 170.349 189.118  0.00  0.00    +0.020 C 
ATOM     53  H   UNL     1     145.576 169.493 188.483  0.00  0.00    +0.036 HD
BRANCH  52  54
ATOM     54  C   UNL     1     145.361 171.576 188.194  0.00  0.00    -0.057 C 
ATOM     55  H   UNL     1     145.600 172.481 188.761  0.00  0.00    +0.023 HD
ATOM     56  H   UNL     1     144.412 171.742 187.680  0.00  0.00    +0.023 HD
ATOM     57  H   UNL     1     146.139 171.455 187.434  0.00  0.00    +0.023 HD
ENDBRANCH  52  54
BRANCH  52  58
ATOM     58  C   UNL     1     143.843 170.095 189.588  0.00  0.00    +0.070 C 
ATOM     59  H   UNL     1     143.196 170.712 188.945  0.00  0.00    +0.061 HD
BRANCH  58  60
ATOM     60  C   UNL     1     143.318 168.629 189.463  0.00  0.00    +0.002 C 
ATOM     61  H   UNL     1     143.017 168.271 190.454  0.00  0.00    +0.037 HD
BRANCH  60  62
ATOM     62  C   UNL     1     144.394 167.677 188.923  0.00  0.00    -0.057 C 
ATOM     63  H   UNL     1     145.034 167.297 189.723  0.00  0.00    +0.024 HD
ATOM     64  H   UNL     1     143.942 166.803 188.442  0.00  0.00    +0.024 HD
ATOM     65  H   UNL     1     145.041 168.175 188.192  0.00  0.00    +0.024 HD
ENDBRANCH  60  62
BRANCH  60  66
ATOM     66  C   UNL     1     142.026 168.597 188.646  0.00  0.00    -0.065 C 
ATOM     67  C   UNL     1     140.854 169.172 188.950  0.00  0.00    -0.005 C 
ATOM     68  H   UNL     1     142.142 168.027 187.727  0.00  0.00    +0.059 HD
ATOM     69  H   UNL     1     140.764 169.739 189.875  0.00  0.00    +0.078 HD
BRANCH  67  70
ATOM     70  N   UNL     1     139.682 169.131 188.208  0.00  0.00    -0.284 N 
ATOM     71  C   UNL     1     138.500 169.785 188.531  0.00  0.00    +0.206 C 
ATOM     72  O   UNL     1     137.457 169.764 187.886  0.00  0.00    -0.279 OA
ATOM     73  H   UNL     1     138.550 170.367 189.461  0.00  0.00    +0.126 HD
BRANCH  70  74
ATOM     74  C   UNL     1     139.699 168.331 186.987  0.00  0.00    +0.007 C 
ATOM     75  H   UNL     1     138.772 167.751 186.929  0.00  0.00    +0.043 HD
ATOM     76  H   UNL     1     140.546 167.639 186.958  0.00  0.00    +0.043 HD
ATOM     77  H   UNL     1     139.765 169.004 186.126  0.00  0.00    +0.043 HD
ENDBRANCH  70  74
ENDBRANCH  67  70
ENDBRANCH  60  66
ENDBRANCH  58  60
BRANCH  58  78
ATOM     78  O   UNL     1     143.697 170.525 190.952  0.00  0.00    -0.379 OA
BRANCH  78  79
ATOM     79  C   UNL     1     142.735 171.560 191.113  0.00  0.00    +0.037 C 
ATOM     80  H   UNL     1     141.727 171.143 191.215  0.00  0.00    +0.052 HD
ATOM     81  H   UNL     1     142.766 172.257 190.270  0.00  0.00    +0.052 HD
ATOM     82  H   UNL     1     142.973 172.109 192.025  0.00  0.00    +0.052 HD
ENDBRANCH  78  79
ENDBRANCH  58  78
ENDBRANCH  52  58
ENDBRANCH  50  52
BRANCH  50  83
ATOM     83  O   UNL     1     147.049 171.752 190.129  0.00  0.00    -0.459 OA
BRANCH  83  85
ATOM     84  O   UNL     1     145.939 172.867 191.803  0.00  0.00    -0.248 OA
ATOM     85  C   UNL     1     146.980 172.505 191.272  0.00  0.00    +0.337 C 
BRANCH  85  86
ATOM     86  C   UNL     1     148.392 172.779 191.801  0.00  0.00    +0.155 C 
ATOM     87  O   UNL     1     149.370 171.853 191.294  0.00  0.00    -0.365 OA
ATOM     88  C   UNL     1     150.031 171.231 192.402  0.00  0.00    +0.049 C 
ATOM     89  C   UNL     1     149.848 172.170 193.571  0.00  0.00    -0.027 C 
ATOM     90  C   UNL     1     148.460 172.700 193.321  0.00  0.00    -0.014 C 
ATOM     91  H   UNL     1     148.694 173.771 191.442  0.00  0.00    +0.071 HD
ATOM     92  H   UNL     1     149.552 170.263 192.588  0.00  0.00    +0.056 HD
ATOM     93  H   UNL     1     151.083 171.062 192.155  0.00  0.00    +0.056 HD
ATOM     94  H   UNL     1     150.573 172.992 193.509  0.00  0.00    +0.029 HD
ATOM     95  H   UNL     1     149.962 171.677 194.541  0.00  0.00    +0.029 HD
ATOM     96  H   UNL     1     148.287 173.671 193.795  0.00  0.00    +0.030 HD
ATOM     97  H   UNL     1     147.713 171.996 193.714  0.00  0.00    +0.030 HD
ENDBRANCH  85  86
ENDBRANCH  83  85
ENDBRANCH  50  83
ENDBRANCH   1  50
TORSDOF 31
ENDMDL
